@<TRIPOS>MOLECULE
*****
 39 41 0 0 0
SMALL
GASTEIGER

@<TRIPOS>ATOM
      1 C         -20.1581  -13.1334  -12.7121 C.3     1  UNL1        0.2320
      2 C         -20.9337  -12.9392  -13.9882 C.ar    1  UNL1        0.0209
      3 C         -21.0587  -13.9817  -14.9196 C.ar    1  UNL1       -0.0007
      4 C         -21.8013  -13.7948  -16.0884 C.ar    1  UNL1       -0.0005
      5 C         -22.4273  -12.5706  -16.3352 C.ar    1  UNL1       -0.0029
      6 C         -22.2916  -11.5106  -15.4248 C.ar    1  UNL1       -0.0063
      7 C         -21.5500  -11.7049  -14.2480 C.ar    1  UNL1       -0.0036
      8 C         -22.9860  -10.1965  -15.6788 C.3     1  UNL1        0.0996
      9 N         -23.4426   -9.5624  -14.4179 N.3     1  UNL1       -0.2579
     10 C         -24.8862   -9.8046  -14.1705 C.3     1  UNL1        0.1001
     11 C         -25.1404  -11.2729  -13.9964 C.ar    1  UNL1        0.0009
     12 C         -24.7171  -11.9894  -12.8654 C.ar    1  UNL1        0.0046
     13 C         -25.0495  -13.3352  -12.9042 C.ar    1  UNL1        0.0352
     14 S         -25.8735  -13.6229  -14.3380 S.2     1  UNL1       -0.0862
     15 C         -25.8197  -12.0512  -14.9271 C.ar    1  UNL1        0.0325
     16 C         -23.1025   -8.1175  -14.4065 C.3     1  UNL1        0.1772
     17 C         -21.7478   -7.9037  -13.7304 C.3     1  UNL1        0.4121
     18 F         -20.7645   -7.7829  -14.6955 F       1  UNL1       -0.1685
     19 F         -21.7791   -6.7458  -12.9740 F       1  UNL1       -0.1685
     20 F         -21.4387   -8.9727  -12.9100 F       1  UNL1       -0.1685
     21 O         -20.9731  -12.8231  -11.5817 O.3     1  UNL1       -0.4707
     22 C         -21.0927   -9.0734   -9.6290 C.ar    1  UNL1       -0.0113
     23 C         -19.8838   -9.6475  -10.0707 C.ar    1  UNL1       -0.0004
     24 C         -19.8702  -10.8676  -10.7403 C.ar    1  UNL1        0.0366
     25 C         -21.0543  -11.5648  -10.9648 C.ar    1  UNL1        0.1388
     26 C         -22.2746  -10.9931  -10.5672 C.ar    1  UNL1        0.0348
     27 C         -22.3173   -9.7372   -9.9242 C.ar    1  UNL1        0.0069
     28 C         -23.6501   -9.1451   -9.5038 C.3     1  UNL1        0.1634
     29 O         -23.9226   -9.3675   -8.1464 O.3     1  UNL1       -0.3772
     30 H         -24.7925   -8.9265   -7.9627 H       1  UNL1        0.2109
     31 C         -21.0334   -7.7806   -8.8187 C.3     1  UNL1        0.0971
     32 C         -18.2883   -8.2308   -5.7536 C.3     1  UNL1        0.0900
     33 C         -19.2471   -8.0592   -6.8441 C.1     1  UNL1       -0.0897
     34 C         -20.0445   -7.9259   -7.7383 C.1     1  UNL1       -0.0870
     35 C         -20.6903   -6.5614   -9.6945 C.3     1  UNL1        0.1267
     36 C         -21.7289   -5.4858   -9.5628 C.2     1  UNL1        0.3152
     37 O         -22.4881   -5.2229  -10.5322 O.2     1  UNL1       -0.2502
     38 O         -21.8886   -4.7999   -8.3625 O.3     1  UNL1       -0.4801
     39 H         -21.3055   -5.0064   -7.5603 H       1  UNL1        0.2951
@<TRIPOS>BOND
     1    32    33    1
     2    33    34    3
     3    34    31    1
     4    31    35    1
     5    35    36    1
     6    36    37    2
     7    36    38    1
     8    31    22    1
     9    22    23   ar
    10    23    24   ar
    11    24    25   ar
    12    25    21    1
    13    21     1    1
    14     1     2    1
    15     2     3   ar
    16     3     4   ar
    17     4     5   ar
    18     5     6   ar
    19     6     8    1
    20     8     9    1
    21     9    10    1
    22    10    11    1
    23    11    12   ar
    24    12    13   ar
    25    13    14   ar
    26    14    15   ar
    27     9    16    1
    28    16    17    1
    29    17    18    1
    30    17    19    1
    31    17    20    1
    32     6     7   ar
    33    25    26   ar
    34    26    27   ar
    35    27    28    1
    36    28    29    1
    37    27    22   ar
    38     7     2   ar
    39    15    11   ar
    40    38    39    1
    41    29    30    1
@<TRIPOS>MOLECULE
*****
 39 41 0 0 0
SMALL
GASTEIGER

@<TRIPOS>ATOM
      1 C         -26.8330   -8.0671  -10.3419 C.3     1  UNL1        0.2320
      2 C         -25.7140   -8.8264   -9.6794 C.ar    1  UNL1        0.0209
      3 C         -25.9137  -10.1313   -9.2029 C.ar    1  UNL1       -0.0007
      4 C         -24.8597  -10.8328   -8.6117 C.ar    1  UNL1       -0.0005
      5 C         -23.5997  -10.2410   -8.4947 C.ar    1  UNL1       -0.0029
      6 C         -23.3905   -8.9278   -8.9446 C.ar    1  UNL1       -0.0063
      7 C         -24.4508   -8.2288   -9.5445 C.ar    1  UNL1       -0.0036
      8 C         -22.0252   -8.2966   -8.8401 C.3     1  UNL1        0.0996
      9 N         -21.5634   -7.7641  -10.1454 N.3     1  UNL1       -0.2579
     10 C         -20.3439   -8.4617  -10.6250 C.3     1  UNL1        0.1001
     11 C         -20.7049   -9.8070  -11.1826 C.ar    1  UNL1        0.0009
     12 C         -20.0886  -10.9958  -10.7603 C.ar    1  UNL1        0.0046
     13 C         -20.5656  -12.1276  -11.4043 C.ar    1  UNL1        0.0352
     14 S         -21.7543  -11.6443  -12.4863 S.2     1  UNL1       -0.0862
     15 C         -21.6803   -9.9996  -12.1547 C.ar    1  UNL1        0.0325
     16 C         -21.3812   -6.2927  -10.0746 C.3     1  UNL1        0.1772
     17 C         -21.9261   -5.6357  -11.3433 C.3     1  UNL1        0.4121
     18 F         -21.2177   -4.4767  -11.6034 F       1  UNL1       -0.1685
     19 F         -21.7848   -6.4984  -12.4155 F       1  UNL1       -0.1685
     20 F         -23.2628   -5.3170  -11.1911 F       1  UNL1       -0.1685
     21 O         -27.0229   -8.5267  -11.6802 O.3     1  UNL1       -0.4707
     22 C         -24.0796   -8.5477  -14.7174 C.ar    1  UNL1       -0.0113
     23 C         -24.4277   -7.3721  -14.0224 C.ar    1  UNL1       -0.0004
     24 C         -25.3759   -7.3936  -13.0038 C.ar    1  UNL1        0.0366
     25 C         -26.0252   -8.5781  -12.6664 C.ar    1  UNL1        0.1388
     26 C         -25.6662   -9.7690  -13.3197 C.ar    1  UNL1        0.0348
     27 C         -24.6771   -9.7797  -14.3268 C.ar    1  UNL1        0.0069
     28 C         -24.3113  -11.0810  -15.0171 C.3     1  UNL1        0.1634
     29 O         -25.1274  -11.3374  -16.1282 O.3     1  UNL1       -0.3772
     30 H         -24.7985  -12.1862  -16.5235 H       1  UNL1        0.2109
     31 C         -23.1027   -8.4423  -15.8861 C.3     1  UNL1        0.0971
     32 C         -24.6399   -5.8055  -18.6821 C.3     1  UNL1        0.0900
     33 C         -24.0810   -6.7278  -17.6946 C.1     1  UNL1       -0.0897
     34 C         -23.6304   -7.4939  -16.8802 C.1     1  UNL1       -0.0870
     35 C         -21.6968   -8.0095  -15.4308 C.3     1  UNL1        0.1267
     36 C         -20.6319   -8.6186  -16.2957 C.2     1  UNL1        0.3152
     37 O         -20.6252   -9.8604  -16.5038 O.2     1  UNL1       -0.2502
     38 O         -19.6709   -7.8172  -16.9045 O.3     1  UNL1       -0.4801
     39 H         -19.6663   -6.8130  -16.7711 H       1  UNL1        0.2951
@<TRIPOS>BOND
     1    32    33    1
     2    33    34    3
     3    34    31    1
     4    31    35    1
     5    35    36    1
     6    36    37    2
     7    36    38    1
     8    31    22    1
     9    22    23   ar
    10    23    24   ar
    11    24    25   ar
    12    25    21    1
    13    21     1    1
    14     1     2    1
    15     2     3   ar
    16     3     4   ar
    17     4     5   ar
    18     5     6   ar
    19     6     8    1
    20     8     9    1
    21     9    10    1
    22    10    11    1
    23    11    12   ar
    24    12    13   ar
    25    13    14   ar
    26    14    15   ar
    27     9    16    1
    28    16    17    1
    29    17    18    1
    30    17    19    1
    31    17    20    1
    32     6     7   ar
    33    25    26   ar
    34    26    27   ar
    35    27    28    1
    36    28    29    1
    37    27    22   ar
    38     7     2   ar
    39    15    11   ar
    40    38    39    1
    41    29    30    1
@<TRIPOS>MOLECULE
*****
 39 41 0 0 0
SMALL
GASTEIGER

@<TRIPOS>ATOM
      1 C         -23.7509   -7.9753  -13.6987 C.3     1  UNL1        0.2320
      2 C         -23.5494   -8.7440  -14.9778 C.ar    1  UNL1        0.0209
      3 C         -23.0334   -8.1148  -16.1213 C.ar    1  UNL1       -0.0007
      4 C         -22.8293   -8.8461  -17.2944 C.ar    1  UNL1       -0.0005
      5 C         -23.1338  -10.2088  -17.3351 C.ar    1  UNL1       -0.0029
      6 C         -23.6732  -10.8471  -16.2070 C.ar    1  UNL1       -0.0063
      7 C         -23.8703  -10.1098  -15.0278 C.ar    1  UNL1       -0.0036
      8 C         -23.9804  -12.3227  -16.2424 C.3     1  UNL1        0.0996
      9 N         -23.6398  -12.9870  -14.9605 N.3     1  UNL1       -0.2579
     10 C         -22.2076  -13.3732  -14.9034 C.3     1  UNL1        0.1001
     11 C         -21.5949  -12.8941  -13.6205 C.ar    1  UNL1        0.0009
     12 C         -22.1033  -11.8048  -12.8948 C.ar    1  UNL1        0.0046
     13 C         -21.3882  -11.5243  -11.7403 C.ar    1  UNL1        0.0352
     14 S         -20.1357  -12.6360  -11.6252 S.2     1  UNL1       -0.0862
     15 C         -20.4816  -13.4844  -13.0327 C.ar    1  UNL1        0.0325
     16 C         -24.5450  -14.1366  -14.7109 C.3     1  UNL1        0.1772
     17 C         -25.5997  -13.7567  -13.6710 C.3     1  UNL1        0.4121
     18 F         -26.8543  -13.7925  -14.2520 F       1  UNL1       -0.1685
     19 F         -25.5661  -14.6551  -12.6196 F       1  UNL1       -0.1685
     20 F         -25.3688  -12.4827  -13.1861 F       1  UNL1       -0.1685
     21 O         -22.4988   -7.5101  -13.1945 O.3     1  UNL1       -0.4707
     22 C         -20.7712   -8.5530   -9.4776 C.ar    1  UNL1       -0.0113
     23 C         -19.9978   -8.0667  -10.5508 C.ar    1  UNL1       -0.0004
     24 C         -20.5908   -7.6985  -11.7549 C.ar    1  UNL1        0.0366
     25 C         -21.9651   -7.8297  -11.9361 C.ar    1  UNL1        0.1388
     26 C         -22.7600   -8.2760  -10.8671 C.ar    1  UNL1        0.0348
     27 C         -22.1863   -8.6151   -9.6226 C.ar    1  UNL1        0.0069
     28 C         -23.0696   -9.0965   -8.4861 C.3     1  UNL1        0.1634
     29 O         -23.4714   -8.0467   -7.6478 O.3     1  UNL1       -0.3772
     30 H         -24.0592   -8.4521   -6.9585 H       1  UNL1        0.2109
     31 C         -20.0528   -9.0282   -8.2169 C.3     1  UNL1        0.0971
     32 C         -17.0354  -11.6844   -9.2035 C.3     1  UNL1        0.0900
     33 C         -18.1043  -10.7431   -8.8729 C.1     1  UNL1       -0.0897
     34 C         -18.9837   -9.9691   -8.5888 C.1     1  UNL1       -0.0870
     35 C         -19.4723   -7.8572   -7.4027 C.3     1  UNL1        0.1267
     36 C         -19.2423   -8.2489   -5.9721 C.2     1  UNL1        0.3152
     37 O         -18.0697   -8.4307   -5.5508 O.2     1  UNL1       -0.2502
     38 O         -20.3131   -8.3753   -5.0924 O.3     1  UNL1       -0.4801
     39 H         -21.2647   -8.2137   -5.3999 H       1  UNL1        0.2951
@<TRIPOS>BOND
     1    32    33    1
     2    33    34    3
     3    34    31    1
     4    31    35    1
     5    35    36    1
     6    36    37    2
     7    36    38    1
     8    31    22    1
     9    22    23   ar
    10    23    24   ar
    11    24    25   ar
    12    25    21    1
    13    21     1    1
    14     1     2    1
    15     2     3   ar
    16     3     4   ar
    17     4     5   ar
    18     5     6   ar
    19     6     8    1
    20     8     9    1
    21     9    10    1
    22    10    11    1
    23    11    12   ar
    24    12    13   ar
    25    13    14   ar
    26    14    15   ar
    27     9    16    1
    28    16    17    1
    29    17    18    1
    30    17    19    1
    31    17    20    1
    32     6     7   ar
    33    25    26   ar
    34    26    27   ar
    35    27    28    1
    36    28    29    1
    37    27    22   ar
    38     7     2   ar
    39    15    11   ar
    40    38    39    1
    41    29    30    1
@<TRIPOS>MOLECULE
*****
 39 41 0 0 0
SMALL
GASTEIGER

@<TRIPOS>ATOM
      1 C         -20.6667   -8.0951  -16.1677 C.3     1  UNL1        0.2320
      2 C         -21.5777   -9.1875  -16.6623 C.ar    1  UNL1        0.0209
      3 C         -22.6860   -8.8890  -17.4700 C.ar    1  UNL1       -0.0007
      4 C         -23.5091   -9.9151  -17.9414 C.ar    1  UNL1       -0.0005
      5 C         -23.2316  -11.2447  -17.6148 C.ar    1  UNL1       -0.0029
      6 C         -22.1409  -11.5573  -16.7882 C.ar    1  UNL1       -0.0063
      7 C         -21.3122  -10.5234  -16.3222 C.ar    1  UNL1       -0.0036
      8 C         -21.8268  -12.9936  -16.4543 C.3     1  UNL1        0.0996
      9 N         -22.4253  -13.4015  -15.1596 N.3     1  UNL1       -0.2579
     10 C         -21.4283  -13.3788  -14.0600 C.3     1  UNL1        0.1001
     11 C         -21.8095  -12.3475  -13.0393 C.ar    1  UNL1        0.0009
     12 C         -23.0931  -11.7824  -12.9715 C.ar    1  UNL1        0.0046
     13 C         -23.2349  -10.8466  -11.9580 C.ar    1  UNL1        0.0352
     14 S         -21.7685  -10.7345  -11.1490 S.2     1  UNL1       -0.0862
     15 C         -20.9367  -11.8663  -12.0697 C.ar    1  UNL1        0.0325
     16 C         -23.0964  -14.7195  -15.2862 C.3     1  UNL1        0.1772
     17 C         -24.6145  -14.5394  -15.2555 C.3     1  UNL1        0.4121
     18 F         -25.0859  -14.8137  -13.9845 F       1  UNL1       -0.1685
     19 F         -24.9384  -13.2349  -15.5826 F       1  UNL1       -0.1685
     20 F         -25.2249  -15.3964  -16.1524 F       1  UNL1       -0.1685
     21 O         -20.6866   -8.0376  -14.7413 O.3     1  UNL1       -0.4707
     22 C         -24.2158   -7.3649  -12.5097 C.ar    1  UNL1       -0.0113
     23 C         -24.2324   -8.0328  -13.7507 C.ar    1  UNL1       -0.0004
     24 C         -23.0552   -8.2725  -14.4535 C.ar    1  UNL1        0.0366
     25 C         -21.8319   -7.8306  -13.9565 C.ar    1  UNL1        0.1388
     26 C         -21.7874   -7.1969  -12.7034 C.ar    1  UNL1        0.0348
     27 C         -22.9631   -6.9803  -11.9527 C.ar    1  UNL1        0.0069
     28 C         -22.8850   -6.2909  -10.6027 C.3     1  UNL1        0.1634
     29 O         -22.6801   -7.2008   -9.5556 O.3     1  UNL1       -0.3772
     30 H         -22.6177   -6.6592   -8.7263 H       1  UNL1        0.2109
     31 C         -25.5476   -7.0491  -11.8331 C.3     1  UNL1        0.0971
     32 C         -27.9724   -5.0742  -14.5449 C.3     1  UNL1        0.0900
     33 C         -27.1251   -5.7640  -13.5731 C.1     1  UNL1       -0.0897
     34 C         -26.4207   -6.3379  -12.7809 C.1     1  UNL1       -0.0870
     35 C         -26.2489   -8.3167  -11.3111 C.3     1  UNL1        0.1267
     36 C         -25.9256   -8.5628   -9.8661 C.2     1  UNL1        0.3152
     37 O         -24.7665   -8.9259   -9.5342 O.2     1  UNL1       -0.2502
     38 O         -26.8864   -8.3552   -8.8809 O.3     1  UNL1       -0.4801
     39 H         -27.8202   -8.0427   -9.1185 H       1  UNL1        0.2951
@<TRIPOS>BOND
     1    32    33    1
     2    33    34    3
     3    34    31    1
     4    31    35    1
     5    35    36    1
     6    36    37    2
     7    36    38    1
     8    31    22    1
     9    22    23   ar
    10    23    24   ar
    11    24    25   ar
    12    25    21    1
    13    21     1    1
    14     1     2    1
    15     2     3   ar
    16     3     4   ar
    17     4     5   ar
    18     5     6   ar
    19     6     8    1
    20     8     9    1
    21     9    10    1
    22    10    11    1
    23    11    12   ar
    24    12    13   ar
    25    13    14   ar
    26    14    15   ar
    27     9    16    1
    28    16    17    1
    29    17    18    1
    30    17    19    1
    31    17    20    1
    32     6     7   ar
    33    25    26   ar
    34    26    27   ar
    35    27    28    1
    36    28    29    1
    37    27    22   ar
    38     7     2   ar
    39    15    11   ar
    40    38    39    1
    41    29    30    1
@<TRIPOS>MOLECULE
*****
 39 41 0 0 0
SMALL
GASTEIGER

@<TRIPOS>ATOM
      1 C         -26.2836   -7.8542  -11.3634 C.3     1  UNL1        0.2320
      2 C         -25.4334   -8.6099  -10.3766 C.ar    1  UNL1        0.0209
      3 C         -25.9117   -9.7767   -9.7605 C.ar    1  UNL1       -0.0007
      4 C         -25.1028  -10.4810   -8.8648 C.ar    1  UNL1       -0.0005
      5 C         -23.8116  -10.0302   -8.5801 C.ar    1  UNL1       -0.0029
      6 C         -23.3276   -8.8517   -9.1698 C.ar    1  UNL1       -0.0063
      7 C         -24.1415   -8.1507  -10.0747 C.ar    1  UNL1       -0.0036
      8 C         -21.9260   -8.3771   -8.8812 C.3     1  UNL1        0.0996
      9 N         -21.3070   -7.7353  -10.0668 N.3     1  UNL1       -0.2579
     10 C         -19.9966   -8.3465  -10.4031 C.3     1  UNL1        0.1001
     11 C         -20.1775   -9.7938  -10.7543 C.ar    1  UNL1        0.0009
     12 C         -21.2060  -10.2500  -11.5944 C.ar    1  UNL1        0.0046
     13 C         -21.1972  -11.6232  -11.7874 C.ar    1  UNL1        0.0352
     14 S         -19.9079  -12.2588  -10.9207 S.2     1  UNL1       -0.0862
     15 C         -19.3458  -10.8071  -10.2908 C.ar    1  UNL1        0.0325
     16 C         -21.2125   -6.2662   -9.8762 C.3     1  UNL1        0.1772
     17 C         -21.7347   -5.5423  -11.1175 C.3     1  UNL1        0.4121
     18 F         -22.0655   -6.4705  -12.0880 F       1  UNL1       -0.1685
     19 F         -22.8629   -4.8103  -10.7933 F       1  UNL1       -0.1685
     20 F         -20.7719   -4.6898  -11.6254 F       1  UNL1       -0.1685
     21 O         -26.4240   -8.5993  -12.5731 O.3     1  UNL1       -0.4707
     22 C         -23.2521  -10.5124  -14.6144 C.ar    1  UNL1       -0.0113
     23 C         -24.4205  -11.2031  -14.2344 C.ar    1  UNL1       -0.0004
     24 C         -25.4663  -10.5468  -13.5922 C.ar    1  UNL1        0.0366
     25 C         -25.3690   -9.1924  -13.2842 C.ar    1  UNL1        0.1388
     26 C         -24.2300   -8.4758  -13.6878 C.ar    1  UNL1        0.0348
     27 C         -23.1747   -9.1105  -14.3780 C.ar    1  UNL1        0.0069
     28 C         -21.9550   -8.3114  -14.7997 C.3     1  UNL1        0.1634
     29 O         -22.1660   -7.6195  -16.0009 O.3     1  UNL1       -0.3772
     30 H         -21.3317   -7.1122  -16.1785 H       1  UNL1        0.2109
     31 C         -22.1028  -11.3066  -15.2305 C.3     1  UNL1        0.0971
     32 C         -23.0114  -15.3389  -15.0096 C.3     1  UNL1        0.0900
     33 C         -22.6725  -13.9185  -15.0865 C.1     1  UNL1       -0.0897
     34 C         -22.4046  -12.7450  -15.1508 C.1     1  UNL1       -0.0870
     35 C         -21.8324  -10.8992  -16.6907 C.3     1  UNL1        0.1267
     36 C         -23.1131  -10.7104  -17.4503 C.2     1  UNL1        0.3152
     37 O         -23.4863   -9.5526  -17.7756 O.2     1  UNL1       -0.2502
     38 O         -23.8761  -11.8089  -17.8348 O.3     1  UNL1       -0.4801
     39 H         -23.5879  -12.7523  -17.6047 H       1  UNL1        0.2951
@<TRIPOS>BOND
     1    32    33    1
     2    33    34    3
     3    34    31    1
     4    31    35    1
     5    35    36    1
     6    36    37    2
     7    36    38    1
     8    31    22    1
     9    22    23   ar
    10    23    24   ar
    11    24    25   ar
    12    25    21    1
    13    21     1    1
    14     1     2    1
    15     2     3   ar
    16     3     4   ar
    17     4     5   ar
    18     5     6   ar
    19     6     8    1
    20     8     9    1
    21     9    10    1
    22    10    11    1
    23    11    12   ar
    24    12    13   ar
    25    13    14   ar
    26    14    15   ar
    27     9    16    1
    28    16    17    1
    29    17    18    1
    30    17    19    1
    31    17    20    1
    32     6     7   ar
    33    25    26   ar
    34    26    27   ar
    35    27    28    1
    36    28    29    1
    37    27    22   ar
    38     7     2   ar
    39    15    11   ar
    40    38    39    1
    41    29    30    1
@<TRIPOS>MOLECULE
*****
 39 41 0 0 0
SMALL
GASTEIGER

@<TRIPOS>ATOM
      1 C         -24.9160   -5.8719  -13.5586 C.3     1  UNL1        0.2320
      2 C         -25.1215   -7.3626  -13.6171 C.ar    1  UNL1        0.0209
      3 C         -26.3468   -7.9350  -13.2417 C.ar    1  UNL1       -0.0007
      4 C         -26.5312   -9.3176  -13.3236 C.ar    1  UNL1       -0.0005
      5 C         -25.4986  -10.1384  -13.7834 C.ar    1  UNL1       -0.0029
      6 C         -24.2592   -9.5835  -14.1397 C.ar    1  UNL1       -0.0063
      7 C         -24.0804   -8.1925  -14.0623 C.ar    1  UNL1       -0.0036
      8 C         -23.1519  -10.4656  -14.6581 C.3     1  UNL1        0.0996
      9 N         -22.8005  -10.1405  -16.0622 N.3     1  UNL1       -0.2579
     10 C         -23.2984  -11.1710  -17.0077 C.3     1  UNL1        0.1001
     11 C         -23.4035  -12.4980  -16.3158 C.ar    1  UNL1        0.0009
     12 C         -24.6243  -13.0279  -15.8679 C.ar    1  UNL1        0.0046
     13 C         -24.5003  -14.2639  -15.2515 C.ar    1  UNL1        0.0352
     14 S         -22.8777  -14.6928  -15.2750 S.2     1  UNL1       -0.0862
     15 C         -22.3123  -13.3221  -16.0636 C.ar    1  UNL1        0.0325
     16 C         -21.3402   -9.9101  -16.1956 C.3     1  UNL1        0.1772
     17 C         -21.0438   -8.4102  -16.1891 C.3     1  UNL1        0.4121
     18 F         -22.1072   -7.7273  -16.7509 F       1  UNL1       -0.1685
     19 F         -20.8663   -7.9732  -14.8886 F       1  UNL1       -0.1685
     20 F         -19.9020   -8.1361  -16.9191 F       1  UNL1       -0.1685
     21 O         -24.0496   -5.5305  -12.4765 O.3     1  UNL1       -0.4707
     22 C         -21.8278   -8.3624  -10.2555 C.ar    1  UNL1       -0.0113
     23 C         -21.2578   -7.6324  -11.3179 C.ar    1  UNL1       -0.0004
     24 C         -21.9977   -6.6816  -12.0148 C.ar    1  UNL1        0.0366
     25 C         -23.3326   -6.4496  -11.6943 C.ar    1  UNL1        0.1388
     26 C         -23.9099   -7.1380  -10.6142 C.ar    1  UNL1        0.0348
     27 C         -23.1670   -8.0763   -9.8655 C.ar    1  UNL1        0.0069
     28 C         -23.8177   -8.8069   -8.7051 C.3     1  UNL1        0.1634
     29 O         -23.5063   -8.2206   -7.4700 O.3     1  UNL1       -0.3772
     30 H         -23.9926   -8.7466   -6.7832 H       1  UNL1        0.2109
     31 C         -20.9947   -9.4565   -9.5922 C.3     1  UNL1        0.0971
     32 C         -20.5199  -12.6085  -12.2329 C.3     1  UNL1        0.0900
     33 C         -20.6716  -11.4881  -11.3056 C.1     1  UNL1       -0.0897
     34 C         -20.8070  -10.5688  -10.5377 C.1     1  UNL1       -0.0870
     35 C         -19.6300   -8.9338   -9.1070 C.3     1  UNL1        0.1267
     36 C         -19.7717   -8.1220   -7.8524 C.2     1  UNL1        0.3152
     37 O         -18.9994   -7.1501   -7.6420 O.2     1  UNL1       -0.2502
     38 O         -20.7771   -8.4090   -6.9340 O.3     1  UNL1       -0.4801
     39 H         -21.4252   -9.1718   -7.0892 H       1  UNL1        0.2951
@<TRIPOS>BOND
     1    32    33    1
     2    33    34    3
     3    34    31    1
     4    31    35    1
     5    35    36    1
     6    36    37    2
     7    36    38    1
     8    31    22    1
     9    22    23   ar
    10    23    24   ar
    11    24    25   ar
    12    25    21    1
    13    21     1    1
    14     1     2    1
    15     2     3   ar
    16     3     4   ar
    17     4     5   ar
    18     5     6   ar
    19     6     8    1
    20     8     9    1
    21     9    10    1
    22    10    11    1
    23    11    12   ar
    24    12    13   ar
    25    13    14   ar
    26    14    15   ar
    27     9    16    1
    28    16    17    1
    29    17    18    1
    30    17    19    1
    31    17    20    1
    32     6     7   ar
    33    25    26   ar
    34    26    27   ar
    35    27    28    1
    36    28    29    1
    37    27    22   ar
    38     7     2   ar
    39    15    11   ar
    40    38    39    1
    41    29    30    1
@<TRIPOS>MOLECULE
*****
 39 41 0 0 0
SMALL
GASTEIGER

@<TRIPOS>ATOM
      1 C         -20.1631  -12.3742  -10.8325 C.3     1  UNL1        0.2320
      2 C         -20.8132  -12.2857  -12.1880 C.ar    1  UNL1        0.0209
      3 C         -20.4644  -13.1789  -13.2128 C.ar    1  UNL1       -0.0007
      4 C         -21.0930  -13.1002  -14.4582 C.ar    1  UNL1       -0.0005
      5 C         -22.0755  -12.1345  -14.6898 C.ar    1  UNL1       -0.0029
      6 C         -22.4183  -11.2185  -13.6827 C.ar    1  UNL1       -0.0063
      7 C         -21.7888  -11.3056  -12.4301 C.ar    1  UNL1       -0.0036
      8 C         -23.4949  -10.1909  -13.9238 C.3     1  UNL1        0.0996
      9 N         -22.9247   -8.8449  -14.1761 N.3     1  UNL1       -0.2579
     10 C         -23.6999   -7.7806  -13.4904 C.3     1  UNL1        0.1001
     11 C         -22.8160   -7.0314  -12.5373 C.ar    1  UNL1        0.0009
     12 C         -21.5167   -7.4535  -12.2130 C.ar    1  UNL1        0.0046
     13 C         -20.8715   -6.6213  -11.3107 C.ar    1  UNL1        0.0352
     14 S         -21.9159   -5.3638  -10.9293 S.2     1  UNL1       -0.0862
     15 C         -23.1957   -5.8559  -11.8990 C.ar    1  UNL1        0.0325
     16 C         -22.7935   -8.5977  -15.6339 C.3     1  UNL1        0.1772
     17 C         -21.3205   -8.4243  -16.0053 C.3     1  UNL1        0.4121
     18 F         -20.5994   -8.0702  -14.8795 F       1  UNL1       -0.1685
     19 F         -20.8196   -9.6136  -16.5035 F       1  UNL1       -0.1685
     20 F         -21.1720   -7.4349  -16.9596 F       1  UNL1       -0.1685
     21 O         -19.1574  -11.3702  -10.6959 O.3     1  UNL1       -0.4707
     22 C         -18.3089   -9.3932   -7.0545 C.ar    1  UNL1       -0.0113
     23 C         -17.6963  -10.6139   -7.4024 C.ar    1  UNL1       -0.0004
     24 C         -17.9652  -11.2314   -8.6204 C.ar    1  UNL1        0.0366
     25 C         -18.8716  -10.6679   -9.5145 C.ar    1  UNL1        0.1388
     26 C         -19.4647   -9.4324   -9.2052 C.ar    1  UNL1        0.0348
     27 C         -19.1751   -8.7662   -7.9947 C.ar    1  UNL1        0.0069
     28 C         -19.8326   -7.4335   -7.6862 C.3     1  UNL1        0.1634
     29 O         -21.1517   -7.3730   -8.1581 O.3     1  UNL1       -0.3772
     30 H         -21.5016   -6.4841   -7.8891 H       1  UNL1        0.2109
     31 C         -18.0455   -8.8140   -5.6666 C.3     1  UNL1        0.0971
     32 C         -21.3404   -9.3864   -3.2275 C.3     1  UNL1        0.0900
     33 C         -20.1842   -9.1949   -4.1018 C.1     1  UNL1       -0.0897
     34 C         -19.2261   -9.0301   -4.8146 C.1     1  UNL1       -0.0870
     35 C         -16.7950   -9.4266   -5.0092 C.3     1  UNL1        0.1267
     36 C         -15.9706   -8.3772   -4.3221 C.2     1  UNL1        0.3152
     37 O         -15.0845   -7.7540   -4.9639 O.2     1  UNL1       -0.2502
     38 O         -16.2027   -8.0566   -2.9880 O.3     1  UNL1       -0.4801
     39 H         -16.9237   -8.5275   -2.4546 H       1  UNL1        0.2951
@<TRIPOS>BOND
     1    32    33    1
     2    33    34    3
     3    34    31    1
     4    31    35    1
     5    35    36    1
     6    36    37    2
     7    36    38    1
     8    31    22    1
     9    22    23   ar
    10    23    24   ar
    11    24    25   ar
    12    25    21    1
    13    21     1    1
    14     1     2    1
    15     2     3   ar
    16     3     4   ar
    17     4     5   ar
    18     5     6   ar
    19     6     8    1
    20     8     9    1
    21     9    10    1
    22    10    11    1
    23    11    12   ar
    24    12    13   ar
    25    13    14   ar
    26    14    15   ar
    27     9    16    1
    28    16    17    1
    29    17    18    1
    30    17    19    1
    31    17    20    1
    32     6     7   ar
    33    25    26   ar
    34    26    27   ar
    35    27    28    1
    36    28    29    1
    37    27    22   ar
    38     7     2   ar
    39    15    11   ar
    40    38    39    1
    41    29    30    1
@<TRIPOS>MOLECULE
*****
 39 41 0 0 0
SMALL
GASTEIGER

@<TRIPOS>ATOM
      1 C         -20.4224  -13.3866  -13.1913 C.3     1  UNL1        0.2320
      2 C         -21.1201  -13.0060  -14.4704 C.ar    1  UNL1        0.0209
      3 C         -21.2094  -13.9126  -15.5382 C.ar    1  UNL1       -0.0007
      4 C         -21.8805  -13.5543  -16.7103 C.ar    1  UNL1       -0.0005
      5 C         -22.4701  -12.2931  -16.8251 C.ar    1  UNL1       -0.0029
      6 C         -22.3686  -11.3666  -15.7752 C.ar    1  UNL1       -0.0063
      7 C         -21.6991  -11.7333  -14.5962 C.ar    1  UNL1       -0.0036
      8 C         -23.0245  -10.0138  -15.8889 C.3     1  UNL1        0.0996
      9 N         -23.3906   -9.4660  -14.5598 N.3     1  UNL1       -0.2579
     10 C         -24.8272   -9.6793  -14.2524 C.3     1  UNL1        0.1001
     11 C         -25.0918  -11.1359  -14.0093 C.ar    1  UNL1        0.0009
     12 C         -25.7970  -11.9428  -14.9166 C.ar    1  UNL1        0.0046
     13 C         -25.9345  -13.2581  -14.4993 C.ar    1  UNL1        0.0352
     14 S         -25.1721  -13.4108  -13.0117 S.2     1  UNL1       -0.0862
     15 C         -24.6599  -11.8171  -12.8767 C.ar    1  UNL1        0.0325
     16 C         -22.9969   -8.0385  -14.4564 C.3     1  UNL1        0.1772
     17 C         -21.5695   -7.9263  -13.9199 C.3     1  UNL1        0.4121
     18 F         -21.4576   -6.7893  -13.1404 F       1  UNL1       -0.1685
     19 F         -21.2717   -9.0329  -13.1451 F       1  UNL1       -0.1685
     20 F         -20.6630   -7.8446  -14.9607 F       1  UNL1       -0.1685
     21 O         -21.1720  -12.9374  -12.0623 O.3     1  UNL1       -0.4707
     22 C         -20.0903   -9.7019   -9.5624 C.ar    1  UNL1       -0.0113
     23 C         -21.3857   -9.8276  -10.1034 C.ar    1  UNL1       -0.0004
     24 C         -21.7301  -10.9175  -10.8974 C.ar    1  UNL1        0.0366
     25 C         -20.7893  -11.8985  -11.1994 C.ar    1  UNL1        0.1388
     26 C         -19.5035  -11.8133  -10.6396 C.ar    1  UNL1        0.0348
     27 C         -19.1437  -10.7394   -9.7970 C.ar    1  UNL1        0.0069
     28 C         -17.7464  -10.6723   -9.2082 C.3     1  UNL1        0.1634
     29 O         -17.7022  -11.1619   -7.8949 O.3     1  UNL1       -0.3772
     30 H         -16.7539  -11.1016   -7.6086 H       1  UNL1        0.2109
     31 C         -19.7466   -8.4380   -8.7779 C.3     1  UNL1        0.0971
     32 C         -21.9817   -5.2808  -10.2511 C.3     1  UNL1        0.0900
     33 C         -21.1770   -6.3884   -9.7376 C.1     1  UNL1       -0.0897
     34 C         -20.5232   -7.3063   -9.3097 C.1     1  UNL1       -0.0870
     35 C         -20.0083   -8.6014   -7.2693 C.3     1  UNL1        0.1267
     36 C         -18.8398   -8.1224   -6.4581 C.2     1  UNL1        0.3152
     37 O         -18.9198   -7.0408   -5.8184 O.2     1  UNL1       -0.2502
     38 O         -17.6779   -8.8836   -6.3733 O.3     1  UNL1       -0.4801
     39 H         -17.5951   -9.7679   -6.8605 H       1  UNL1        0.2951
@<TRIPOS>BOND
     1    32    33    1
     2    33    34    3
     3    34    31    1
     4    31    35    1
     5    35    36    1
     6    36    37    2
     7    36    38    1
     8    31    22    1
     9    22    23   ar
    10    23    24   ar
    11    24    25   ar
    12    25    21    1
    13    21     1    1
    14     1     2    1
    15     2     3   ar
    16     3     4   ar
    17     4     5   ar
    18     5     6   ar
    19     6     8    1
    20     8     9    1
    21     9    10    1
    22    10    11    1
    23    11    12   ar
    24    12    13   ar
    25    13    14   ar
    26    14    15   ar
    27     9    16    1
    28    16    17    1
    29    17    18    1
    30    17    19    1
    31    17    20    1
    32     6     7   ar
    33    25    26   ar
    34    26    27   ar
    35    27    28    1
    36    28    29    1
    37    27    22   ar
    38     7     2   ar
    39    15    11   ar
    40    38    39    1
    41    29    30    1
@<TRIPOS>MOLECULE
*****
 39 41 0 0 0
SMALL
GASTEIGER

@<TRIPOS>ATOM
      1 C         -24.9431   -6.4256  -12.8020 C.3     1  UNL1        0.2320
      2 C         -23.7088   -6.1706  -11.9777 C.ar    1  UNL1        0.0209
      3 C         -23.3490   -4.8659  -11.6062 C.ar    1  UNL1       -0.0007
      4 C         -22.2141   -4.6462  -10.8212 C.ar    1  UNL1       -0.0005
      5 C         -21.4329   -5.7242  -10.3979 C.ar    1  UNL1       -0.0029
      6 C         -21.7662   -7.0329  -10.7813 C.ar    1  UNL1       -0.0063
      7 C         -22.9116   -7.2498  -11.5647 C.ar    1  UNL1       -0.0036
      8 C         -20.9372   -8.1990  -10.3057 C.3     1  UNL1        0.0996
      9 N         -21.7534   -9.4280  -10.1509 N.3     1  UNL1       -0.2579
     10 C         -22.3443   -9.5298   -8.7928 C.3     1  UNL1        0.1001
     11 C         -23.8308   -9.7082   -8.8892 C.ar    1  UNL1        0.0009
     12 C         -24.4878  -10.8690   -8.4504 C.ar    1  UNL1        0.0046
     13 C         -25.8618  -10.8323   -8.6335 C.ar    1  UNL1        0.0352
     14 S         -26.2511   -9.3558   -9.3306 S.2     1  UNL1       -0.0862
     15 C         -24.6885   -8.7457   -9.4101 C.ar    1  UNL1        0.0325
     16 C         -20.9619  -10.6302  -10.5138 C.3     1  UNL1        0.1772
     17 C         -21.5002  -11.2406  -11.8082 C.3     1  UNL1        0.4121
     18 F         -20.9175  -12.4783  -12.0118 F       1  UNL1       -0.1685
     19 F         -22.8714  -11.3996  -11.7166 F       1  UNL1       -0.1685
     20 F         -21.2095  -10.4275  -12.8879 F       1  UNL1       -0.1685
     21 O         -24.5927   -7.0139  -14.0548 O.3     1  UNL1       -0.4707
     22 C         -24.2756  -11.1925  -14.6266 C.ar    1  UNL1       -0.0113
     23 C         -25.3469  -10.6147  -13.9159 C.ar    1  UNL1       -0.0004
     24 C         -25.4493   -9.2347  -13.7673 C.ar    1  UNL1        0.0366
     25 C         -24.4755   -8.3918  -14.2961 C.ar    1  UNL1        0.1388
     26 C         -23.4197   -8.9434  -15.0410 C.ar    1  UNL1        0.0348
     27 C         -23.3176  -10.3371  -15.2413 C.ar    1  UNL1        0.0069
     28 C         -22.1646  -10.9050  -16.0486 C.3     1  UNL1        0.1634
     29 O         -21.1912   -9.9367  -16.3334 O.3     1  UNL1       -0.3772
     30 H         -20.4744  -10.4040  -16.8360 H       1  UNL1        0.2109
     31 C         -24.1685  -12.7148  -14.6747 C.3     1  UNL1        0.0971
     32 C         -26.5314  -14.4074  -11.7276 C.3     1  UNL1        0.0900
     33 C         -25.7064  -13.7939  -12.7674 C.1     1  UNL1       -0.0897
     34 C         -25.0200  -13.2981  -13.6253 C.1     1  UNL1       -0.0870
     35 C         -24.5579  -13.2812  -16.0526 C.3     1  UNL1        0.1267
     36 C         -24.5081  -14.7814  -16.0593 C.2     1  UNL1        0.3152
     37 O         -25.4567  -15.4397  -16.5615 O.2     1  UNL1       -0.2502
     38 O         -23.4019  -15.4547  -15.5497 O.3     1  UNL1       -0.4801
     39 H         -22.6157  -14.9490  -15.1595 H       1  UNL1        0.2951
@<TRIPOS>BOND
     1    32    33    1
     2    33    34    3
     3    34    31    1
     4    31    35    1
     5    35    36    1
     6    36    37    2
     7    36    38    1
     8    31    22    1
     9    22    23   ar
    10    23    24   ar
    11    24    25   ar
    12    25    21    1
    13    21     1    1
    14     1     2    1
    15     2     3   ar
    16     3     4   ar
    17     4     5   ar
    18     5     6   ar
    19     6     8    1
    20     8     9    1
    21     9    10    1
    22    10    11    1
    23    11    12   ar
    24    12    13   ar
    25    13    14   ar
    26    14    15   ar
    27     9    16    1
    28    16    17    1
    29    17    18    1
    30    17    19    1
    31    17    20    1
    32     6     7   ar
    33    25    26   ar
    34    26    27   ar
    35    27    28    1
    36    28    29    1
    37    27    22   ar
    38     7     2   ar
    39    15    11   ar
    40    38    39    1
    41    29    30    1
