@<TRIPOS>MOLECULE
*****
 46 51 0 0 0
SMALL
GASTEIGER

@<TRIPOS>ATOM
      1 C          61.2016   85.2289   12.2254 C.ar    1  UNL1        0.0702
      2 C          61.4587   84.2027   13.1420 C.ar    1  UNL1        0.0191
      3 C          60.6780   83.0456   13.1409 C.ar    1  UNL1        0.0356
      4 C          59.6211   82.9221   12.2233 C.ar    1  UNL1        0.1318
      5 N          59.3684   83.9510   11.3666 N.ar    1  UNL1       -0.2279
      6 C          60.1166   85.0849   11.3470 C.ar    1  UNL1        0.1149
      7 N          58.8120   81.7267   12.1678 N.pl3   1  UNL1       -0.2932
      8 C          59.0342   80.6180   13.1120 C.3     1  UNL1        0.0923
      9 C          58.5987   79.2693   12.5085 C.3     1  UNL1        0.0252
     10 C          58.9143   79.1982   10.9974 C.3     1  UNL1        0.0472
     11 C          58.1877   80.3339   10.2227 C.3     1  UNL1        0.0252
     12 C          57.8209   81.5428   11.0997 C.3     1  UNL1        0.0923
     13 C          60.4414   79.1798   10.7565 C.3     1  UNL1        0.2054
     14 O          60.8462   80.2536    9.9024 O.3     1  UNL1       -0.4755
     15 C          61.8665   81.1898   10.1540 C.ar    1  UNL1        0.1388
     16 C          62.8801   80.9929   11.1140 C.ar    1  UNL1        0.0369
     17 C          63.8609   81.9663   11.3120 C.ar    1  UNL1        0.0033
     18 C          63.8475   83.1426   10.5610 C.ar    1  UNL1        0.0066
     19 C          62.8449   83.3602    9.6008 C.ar    1  UNL1        0.0785
     20 C          61.8593   82.3759    9.4080 C.ar    1  UNL1        0.0433
     21 C          62.8226   84.6062    8.8028 C.2     1  UNL1        0.3381
     22 O          62.8131   84.5576    7.5428 O.2     1  UNL1       -0.2451
     23 O          62.8118   85.8460    9.4368 O.3     1  UNL1       -0.4771
     24 H          62.7966   86.7049    8.8998 H       1  UNL1        0.2954
     25 C          61.6916   87.5892   13.0164 C.2     1  UNL1        0.2839
     26 O          60.5487   87.7197   13.5317 O.2     1  UNL1       -0.2665
     27 N          62.0072   86.4197   12.2434 N.am    1  UNL1       -0.2766
     28 H          62.8205   86.4682   11.5887 H       1  UNL1        0.1553
     29 C          64.1107   87.6645   15.1170 C.3     1  UNL1        0.0345
     30 C          63.7546   88.6942   14.0873 C.ar    1  UNL1        0.0202
     31 C          62.6965   88.6578   13.1722 C.ar    1  UNL1        0.1946
     32 O          62.7075   89.7473   12.4249 O.2     1  UNL1       -0.4492
     33 C          63.7177   90.4889   12.8086 C.ar    1  UNL1        0.1452
     34 C          64.1034   91.7214   12.2936 C.ar    1  UNL1        0.0375
     35 C          65.2284   92.3490   12.8558 C.ar    1  UNL1        0.0031
     36 C          65.9475   91.7391   13.9191 C.ar    1  UNL1        0.0002
     37 C          65.5210   90.4836   14.4148 C.ar    1  UNL1        0.0028
     38 C          64.4000   89.8893   13.8331 C.ar    1  UNL1        0.0337
     39 C          67.1347   92.4116   14.5051 C.ar    1  UNL1        0.0000
     40 C          68.4330   92.0646   14.0865 C.ar    1  UNL1        0.0005
     41 C          69.5494   92.6983   14.6402 C.ar    1  UNL1        0.0059
     42 C          69.3842   93.6855   15.6163 C.ar    1  UNL1        0.0215
     43 S          70.8152   94.4956   16.3233 S.3     1  UNL1       -0.1414
     44 C          68.0995   94.0382   16.0397 C.ar    1  UNL1        0.0059
     45 C          66.9805   93.4062   15.4892 C.ar    1  UNL1        0.0005
     46 H          70.7975   95.5030   15.3404 H       1  UNL1        0.1071
@<TRIPOS>BOND
     1    29    30    1
     2    30    31   ar
     3    31    25    1
     4    25    26    2
     5    25    27   am
     6    27     1    1
     7     1     2   ar
     8     2     3   ar
     9     3     4   ar
    10     4     7    1
    11     7     8    1
    12     8     9    1
    13     9    10    1
    14    10    13    1
    15    13    14    1
    16    14    15    1
    17    15    16   ar
    18    16    17   ar
    19    17    18   ar
    20    18    19   ar
    21    19    21    1
    22    21    22    2
    23    21    23    1
    24    19    20   ar
    25    10    11    1
    26    11    12    1
    27     4     5   ar
    28     5     6   ar
    29    31    32   ar
    30    32    33   ar
    31    33    34   ar
    32    34    35   ar
    33    35    36   ar
    34    36    39    1
    35    39    40   ar
    36    40    41   ar
    37    41    42   ar
    38    42    43    1
    39    42    44   ar
    40    44    45   ar
    41    36    37   ar
    42    37    38   ar
    43    38    30   ar
    44     6     1   ar
    45    38    33   ar
    46    12     7    1
    47    45    39   ar
    48    20    15   ar
    49    27    28    1
    50    23    24    1
    51    43    46    1
@<TRIPOS>MOLECULE
*****
 46 51 0 0 0
SMALL
GASTEIGER

@<TRIPOS>ATOM
      1 C          61.2466   85.1696   11.9078 C.ar    1  UNL1        0.0702
      2 C          60.9342   84.4989   13.0960 C.ar    1  UNL1        0.0191
      3 C          60.1152   83.3688   13.0723 C.ar    1  UNL1        0.0356
      4 C          59.5925   82.9158   11.8493 C.ar    1  UNL1        0.1318
      5 N          59.8815   83.6084   10.7121 N.ar    1  UNL1       -0.2279
      6 C          60.6787   84.7084   10.7102 C.ar    1  UNL1        0.1149
      7 N          58.7691   81.7310   11.7785 N.pl3   1  UNL1       -0.2932
      8 C          58.7757   80.7388   12.8673 C.3     1  UNL1        0.0923
      9 C          58.4160   79.3332   12.3497 C.3     1  UNL1        0.0252
     10 C          59.0042   79.0814   10.9430 C.3     1  UNL1        0.0472
     11 C          58.4717   80.1259    9.9215 C.3     1  UNL1        0.0252
     12 C          57.9882   81.4335   10.5708 C.3     1  UNL1        0.0923
     13 C          60.5481   79.0183   10.9976 C.3     1  UNL1        0.2054
     14 O          61.1351   80.2410   10.5428 O.3     1  UNL1       -0.4755
     15 C          62.1706   80.9606   11.1678 C.ar    1  UNL1        0.1388
     16 C          63.0326   81.8367   10.4771 C.ar    1  UNL1        0.0369
     17 C          64.0406   82.5177   11.1618 C.ar    1  UNL1        0.0033
     18 C          64.2037   82.3380   12.5363 C.ar    1  UNL1        0.0066
     19 C          63.3572   81.4675   13.2436 C.ar    1  UNL1        0.0785
     20 C          62.3450   80.7838   12.5468 C.ar    1  UNL1        0.0433
     21 C          63.5259   81.2698   14.7003 C.2     1  UNL1        0.3381
     22 O          64.0089   80.1941   15.1472 O.2     1  UNL1       -0.2451
     23 O          63.1525   82.2714   15.5928 O.3     1  UNL1       -0.4771
     24 H          63.2638   82.1461   16.5920 H       1  UNL1        0.2954
     25 C          61.6801   87.5941   12.5166 C.2     1  UNL1        0.2839
     26 O          60.4684   87.8059   12.7921 O.2     1  UNL1       -0.2665
     27 N          62.0836   86.3380   11.9473 N.am    1  UNL1       -0.2766
     28 H          63.0045   86.2951   11.4547 H       1  UNL1        0.1553
     29 C          63.9578   87.6409   14.7704 C.3     1  UNL1        0.0345
     30 C          63.6791   88.6768   13.7232 C.ar    1  UNL1        0.0202
     31 C          62.6825   88.6529   12.7410 C.ar    1  UNL1        0.1946
     32 O          62.7522   89.7442   11.9996 O.2     1  UNL1       -0.4492
     33 C          63.7421   90.4752   12.4507 C.ar    1  UNL1        0.1452
     34 C          64.1718   91.7054   11.9660 C.ar    1  UNL1        0.0375
     35 C          65.2636   92.3209   12.6023 C.ar    1  UNL1        0.0031
     36 C          65.9063   91.7013   13.7081 C.ar    1  UNL1        0.0002
     37 C          65.4368   90.4485   14.1708 C.ar    1  UNL1        0.0028
     38 C          64.3506   89.8664   13.5154 C.ar    1  UNL1        0.0337
     39 C          67.0590   92.3610   14.3723 C.ar    1  UNL1        0.0000
     40 C          68.3779   92.0543   13.9880 C.ar    1  UNL1        0.0005
     41 C          69.4617   92.6758   14.6154 C.ar    1  UNL1        0.0059
     42 C          69.2431   93.6106   15.6318 C.ar    1  UNL1        0.0215
     43 S          70.6324   94.4052   16.4330 S.3     1  UNL1       -0.1414
     44 C          67.9375   93.9229   16.0216 C.ar    1  UNL1        0.0059
     45 C          66.8509   93.3029   15.3974 C.ar    1  UNL1        0.0005
     46 H          70.6356   95.4599   15.5010 H       1  UNL1        0.1071
@<TRIPOS>BOND
     1    29    30    1
     2    30    31   ar
     3    31    25    1
     4    25    26    2
     5    25    27   am
     6    27     1    1
     7     1     2   ar
     8     2     3   ar
     9     3     4   ar
    10     4     7    1
    11     7     8    1
    12     8     9    1
    13     9    10    1
    14    10    13    1
    15    13    14    1
    16    14    15    1
    17    15    16   ar
    18    16    17   ar
    19    17    18   ar
    20    18    19   ar
    21    19    21    1
    22    21    22    2
    23    21    23    1
    24    19    20   ar
    25    10    11    1
    26    11    12    1
    27     4     5   ar
    28     5     6   ar
    29    31    32   ar
    30    32    33   ar
    31    33    34   ar
    32    34    35   ar
    33    35    36   ar
    34    36    39    1
    35    39    40   ar
    36    40    41   ar
    37    41    42   ar
    38    42    43    1
    39    42    44   ar
    40    44    45   ar
    41    36    37   ar
    42    37    38   ar
    43    38    30   ar
    44     6     1   ar
    45    38    33   ar
    46    12     7    1
    47    45    39   ar
    48    20    15   ar
    49    27    28    1
    50    23    24    1
    51    43    46    1
@<TRIPOS>MOLECULE
*****
 46 51 0 0 0
SMALL
GASTEIGER

@<TRIPOS>ATOM
      1 C          61.5517   85.1009   10.7323 C.ar    1  UNL1        0.0702
      2 C          60.1540   85.0573   10.6703 C.ar    1  UNL1        0.0191
      3 C          59.4971   83.8485   10.4345 C.ar    1  UNL1        0.0356
      4 C          60.2476   82.6760   10.2443 C.ar    1  UNL1        0.1318
      5 N          61.6077   82.7523   10.2725 N.ar    1  UNL1       -0.2279
      6 C          62.2688   83.9164   10.5037 C.ar    1  UNL1        0.1149
      7 N          59.6045   81.4001   10.0317 N.pl3   1  UNL1       -0.2932
      8 C          58.1565   81.2373   10.2477 C.3     1  UNL1        0.0923
      9 C          57.8036   79.7861   10.6253 C.3     1  UNL1        0.0252
     10 C          58.8911   79.1559   11.5245 C.3     1  UNL1        0.0472
     11 C          60.2711   79.1493   10.8080 C.3     1  UNL1        0.0252
     12 C          60.3968   80.2087    9.7004 C.3     1  UNL1        0.0923
     13 C          58.9281   79.8477   12.9068 C.3     1  UNL1        0.2054
     14 O          60.1998   79.6780   13.5394 O.3     1  UNL1       -0.4755
     15 C          61.2541   80.6098   13.5721 C.ar    1  UNL1        0.1388
     16 C          62.5702   80.3062   13.1678 C.ar    1  UNL1        0.0369
     17 C          63.5679   81.2807   13.2286 C.ar    1  UNL1        0.0033
     18 C          63.2714   82.5644   13.6892 C.ar    1  UNL1        0.0066
     19 C          61.9669   82.8875   14.0996 C.ar    1  UNL1        0.0785
     20 C          60.9674   81.9002   14.0370 C.ar    1  UNL1        0.0433
     21 C          61.6457   84.2455   14.5918 C.2     1  UNL1        0.3381
     22 O          62.3462   84.7802   15.4937 O.2     1  UNL1       -0.2451
     23 O          60.5652   84.9469   14.0629 O.3     1  UNL1       -0.4771
     24 H          60.3368   85.8771   14.3929 H       1  UNL1        0.2954
     25 C          61.8631   87.2641   12.0209 C.2     1  UNL1        0.2839
     26 O          60.7793   87.1186   12.6480 O.2     1  UNL1       -0.2665
     27 N          62.2164   86.3542   10.9664 N.am    1  UNL1       -0.2766
     28 H          62.9388   86.6596   10.2755 H       1  UNL1        0.1553
     29 C          63.9607   87.4358   14.4377 C.3     1  UNL1        0.0345
     30 C          63.6716   88.4739   13.3956 C.ar    1  UNL1        0.0202
     31 C          62.7539   88.3953   12.3420 C.ar    1  UNL1        0.1946
     32 O          62.7844   89.5090   11.6318 O.2     1  UNL1       -0.4492
     33 C          63.6741   90.3063   12.1708 C.ar    1  UNL1        0.1452
     34 C          64.0323   91.5808   11.7461 C.ar    1  UNL1        0.0375
     35 C          65.0196   92.2662   12.4748 C.ar    1  UNL1        0.0031
     36 C          65.6311   91.6712   13.6114 C.ar    1  UNL1        0.0002
     37 C          65.2369   90.3715   14.0106 C.ar    1  UNL1        0.0028
     38 C          64.2536   89.7203   13.2641 C.ar    1  UNL1        0.0337
     39 C          66.6732   92.4049   14.3733 C.ar    1  UNL1        0.0000
     40 C          66.7243   93.8112   14.3438 C.ar    1  UNL1        0.0005
     41 C          67.7069   94.5001   15.0611 C.ar    1  UNL1        0.0059
     42 C          68.6486   93.7952   15.8167 C.ar    1  UNL1        0.0215
     43 S          69.9052   94.6795   16.7345 S.3     1  UNL1       -0.1414
     44 C          68.6074   92.3983   15.8534 C.ar    1  UNL1        0.0059
     45 C          67.6270   91.7056   15.1367 C.ar    1  UNL1        0.0005
     46 H          69.0889   94.7609   17.8782 H       1  UNL1        0.1071
@<TRIPOS>BOND
     1    29    30    1
     2    30    31   ar
     3    31    25    1
     4    25    26    2
     5    25    27   am
     6    27     1    1
     7     1     2   ar
     8     2     3   ar
     9     3     4   ar
    10     4     7    1
    11     7     8    1
    12     8     9    1
    13     9    10    1
    14    10    13    1
    15    13    14    1
    16    14    15    1
    17    15    16   ar
    18    16    17   ar
    19    17    18   ar
    20    18    19   ar
    21    19    21    1
    22    21    22    2
    23    21    23    1
    24    19    20   ar
    25    10    11    1
    26    11    12    1
    27     4     5   ar
    28     5     6   ar
    29    31    32   ar
    30    32    33   ar
    31    33    34   ar
    32    34    35   ar
    33    35    36   ar
    34    36    39    1
    35    39    40   ar
    36    40    41   ar
    37    41    42   ar
    38    42    43    1
    39    42    44   ar
    40    44    45   ar
    41    36    37   ar
    42    37    38   ar
    43    38    30   ar
    44     6     1   ar
    45    38    33   ar
    46    12     7    1
    47    45    39   ar
    48    20    15   ar
    49    27    28    1
    50    23    24    1
    51    43    46    1
@<TRIPOS>MOLECULE
*****
 46 51 0 0 0
SMALL
GASTEIGER

@<TRIPOS>ATOM
      1 C          61.5644   85.1964   10.6253 C.ar    1  UNL1        0.0702
      2 C          61.7397   84.5205    9.4121 C.ar    1  UNL1        0.0191
      3 C          61.0823   83.3117    9.1781 C.ar    1  UNL1        0.0356
      4 C          60.2539   82.7677   10.1742 C.ar    1  UNL1        0.1318
      5 N          60.1297   83.4266   11.3603 N.ar    1  UNL1       -0.2279
      6 C          60.7567   84.6058   11.6094 C.ar    1  UNL1        0.1149
      7 N          59.5300   81.5366    9.9577 N.pl3   1  UNL1       -0.2932
      8 C          58.1170   81.4098   10.3546 C.3     1  UNL1        0.0923
      9 C          57.7502   79.9471   10.6693 C.3     1  UNL1        0.0252
     10 C          58.9162   79.2093   11.3651 C.3     1  UNL1        0.0472
     11 C          60.1880   79.2091   10.4705 C.3     1  UNL1        0.0252
     12 C          60.2157   80.3470    9.4364 C.3     1  UNL1        0.0923
     13 C          59.1670   79.7885   12.7766 C.3     1  UNL1        0.2054
     14 O          60.5478   79.6964   13.1388 O.3     1  UNL1       -0.4755
     15 C          61.4453   80.7667   13.3118 C.ar    1  UNL1        0.1388
     16 C          61.4811   81.5691   14.4705 C.ar    1  UNL1        0.0369
     17 C          62.3981   82.6165   14.5735 C.ar    1  UNL1        0.0033
     18 C          63.2883   82.8783   13.5308 C.ar    1  UNL1        0.0066
     19 C          63.2679   82.0925   12.3661 C.ar    1  UNL1        0.0785
     20 C          62.3402   81.0401   12.2689 C.ar    1  UNL1        0.0433
     21 C          64.2066   82.3659   11.2553 C.2     1  UNL1        0.3381
     22 O          64.0143   81.8587   10.1170 O.2     1  UNL1       -0.2451
     23 O          65.3129   83.1873   11.4570 O.3     1  UNL1       -0.4771
     24 H          65.9617   83.3807   10.7033 H       1  UNL1        0.2954
     25 C          61.8280   87.4253   11.8081 C.2     1  UNL1        0.2839
     26 O          60.6759   87.3622   12.3155 O.2     1  UNL1       -0.2665
     27 N          62.2549   86.4360   10.8573 N.am    1  UNL1       -0.2766
     28 H          63.0626   86.6681   10.2359 H       1  UNL1        0.1553
     29 C          63.8628   87.5500   14.2808 C.3     1  UNL1        0.0345
     30 C          63.6182   88.5983   13.2376 C.ar    1  UNL1        0.0202
     31 C          62.7278   88.5403   12.1595 C.ar    1  UNL1        0.1946
     32 O          62.7950   89.6572   11.4570 O.2     1  UNL1       -0.4492
     33 C          63.6825   90.4372   12.0243 C.ar    1  UNL1        0.1452
     34 C          64.0721   91.7081   11.6169 C.ar    1  UNL1        0.0375
     35 C          65.0504   92.3736   12.3757 C.ar    1  UNL1        0.0031
     36 C          65.6217   91.7625   13.5246 C.ar    1  UNL1        0.0002
     37 C          65.1964   90.4671   13.9054 C.ar    1  UNL1        0.0028
     38 C          64.2232   89.8359   13.1291 C.ar    1  UNL1        0.0337
     39 C          66.6546   92.4752   14.3184 C.ar    1  UNL1        0.0000
     40 C          67.5581   91.7583   15.1251 C.ar    1  UNL1        0.0005
     41 C          68.5292   92.4313   15.8725 C.ar    1  UNL1        0.0059
     42 C          68.6113   93.8262   15.8233 C.ar    1  UNL1        0.0215
     43 S          69.8558   94.6854   16.7807 S.3     1  UNL1       -0.1414
     44 C          67.7191   94.5485   15.0254 C.ar    1  UNL1        0.0059
     45 C          66.7460   93.8793   14.2773 C.ar    1  UNL1        0.0005
     46 H          70.7875   94.6206   15.7278 H       1  UNL1        0.1071
@<TRIPOS>BOND
     1    29    30    1
     2    30    31   ar
     3    31    25    1
     4    25    26    2
     5    25    27   am
     6    27     1    1
     7     1     2   ar
     8     2     3   ar
     9     3     4   ar
    10     4     7    1
    11     7     8    1
    12     8     9    1
    13     9    10    1
    14    10    13    1
    15    13    14    1
    16    14    15    1
    17    15    16   ar
    18    16    17   ar
    19    17    18   ar
    20    18    19   ar
    21    19    21    1
    22    21    22    2
    23    21    23    1
    24    19    20   ar
    25    10    11    1
    26    11    12    1
    27     4     5   ar
    28     5     6   ar
    29    31    32   ar
    30    32    33   ar
    31    33    34   ar
    32    34    35   ar
    33    35    36   ar
    34    36    39    1
    35    39    40   ar
    36    40    41   ar
    37    41    42   ar
    38    42    43    1
    39    42    44   ar
    40    44    45   ar
    41    36    37   ar
    42    37    38   ar
    43    38    30   ar
    44     6     1   ar
    45    38    33   ar
    46    12     7    1
    47    45    39   ar
    48    20    15   ar
    49    27    28    1
    50    23    24    1
    51    43    46    1
@<TRIPOS>MOLECULE
*****
 46 51 0 0 0
SMALL
GASTEIGER

@<TRIPOS>ATOM
      1 C          61.6745   85.2304   10.2226 C.ar    1  UNL1        0.0702
      2 C          60.3473   85.2485    9.7782 C.ar    1  UNL1        0.0191
      3 C          59.6749   84.0530    9.5199 C.ar    1  UNL1        0.0356
      4 C          60.3428   82.8291    9.6938 C.ar    1  UNL1        0.1318
      5 N          61.6460   82.8403   10.0914 N.ar    1  UNL1       -0.2279
      6 C          62.3198   83.9909   10.3520 C.ar    1  UNL1        0.1149
      7 N          59.6715   81.5699    9.4698 N.pl3   1  UNL1       -0.2932
      8 C          58.2012   81.4945    9.4201 C.3     1  UNL1        0.0923
      9 C          57.6946   80.1026    9.8430 C.3     1  UNL1        0.0252
     10 C          58.5556   79.5097   10.9811 C.3     1  UNL1        0.0472
     11 C          60.0411   79.3730   10.5423 C.3     1  UNL1        0.0252
     12 C          60.4353   80.3177    9.3945 C.3     1  UNL1        0.0923
     13 C          58.3799   80.3248   12.2831 C.3     1  UNL1        0.2054
     14 O          59.6018   80.9621   12.6667 O.3     1  UNL1       -0.4755
     15 C          59.7792   82.3234   12.9769 C.ar    1  UNL1        0.1388
     16 C          60.9869   82.8544   13.4744 C.ar    1  UNL1        0.0369
     17 C          61.0914   84.2163   13.7624 C.ar    1  UNL1        0.0033
     18 C          60.0018   85.0647   13.5596 C.ar    1  UNL1        0.0066
     19 C          58.7882   84.5558   13.0671 C.ar    1  UNL1        0.0785
     20 C          58.6899   83.1825   12.7807 C.ar    1  UNL1        0.0433
     21 C          57.6278   85.4487   12.8524 C.2     1  UNL1        0.3381
     22 O          57.1931   85.6623   11.6882 O.2     1  UNL1       -0.2451
     23 O          57.0040   86.0623   13.9357 O.3     1  UNL1       -0.4771
     24 H          56.2090   86.6753   13.7996 H       1  UNL1        0.2954
     25 C          61.8512   87.5044   11.3337 C.2     1  UNL1        0.2839
     26 O          60.6506   87.4789   11.7169 O.2     1  UNL1       -0.2665
     27 N          62.3588   86.4694   10.4759 N.am    1  UNL1       -0.2766
     28 H          63.2323   86.6634    9.9356 H       1  UNL1        0.1553
     29 C          63.6877   87.6658   13.9551 C.3     1  UNL1        0.0345
     30 C          63.5325   88.6951   12.8763 C.ar    1  UNL1        0.0202
     31 C          62.7286   88.6210   11.7333 C.ar    1  UNL1        0.1946
     32 O          62.8581   89.7238   11.0172 O.2     1  UNL1       -0.4492
     33 C          63.7041   90.5097   11.6372 C.ar    1  UNL1        0.1452
     34 C          64.1332   91.7703   11.2376 C.ar    1  UNL1        0.0375
     35 C          65.0538   92.4450   12.0578 C.ar    1  UNL1        0.0031
     36 C          65.5295   91.8532   13.2592 C.ar    1  UNL1        0.0002
     37 C          65.0668   90.5678   13.6300 C.ar    1  UNL1        0.0028
     38 C          64.1528   89.9270   12.7921 C.ar    1  UNL1        0.0337
     39 C          66.5023   92.5755   14.1177 C.ar    1  UNL1        0.0000
     40 C          67.2698   91.8802   15.0709 C.ar    1  UNL1        0.0005
     41 C          68.1844   92.5623   15.8789 C.ar    1  UNL1        0.0059
     42 C          68.3450   93.9447   15.7450 C.ar    1  UNL1        0.0215
     43 S          69.5169   94.8155   16.7802 S.3     1  UNL1       -0.1414
     44 C          67.5881   94.6456   14.8015 C.ar    1  UNL1        0.0059
     45 C          66.6717   93.9673   13.9923 C.ar    1  UNL1        0.0005
     46 H          70.5570   94.6321   15.8498 H       1  UNL1        0.1071
@<TRIPOS>BOND
     1    29    30    1
     2    30    31   ar
     3    31    25    1
     4    25    26    2
     5    25    27   am
     6    27     1    1
     7     1     2   ar
     8     2     3   ar
     9     3     4   ar
    10     4     7    1
    11     7     8    1
    12     8     9    1
    13     9    10    1
    14    10    13    1
    15    13    14    1
    16    14    15    1
    17    15    16   ar
    18    16    17   ar
    19    17    18   ar
    20    18    19   ar
    21    19    21    1
    22    21    22    2
    23    21    23    1
    24    19    20   ar
    25    10    11    1
    26    11    12    1
    27     4     5   ar
    28     5     6   ar
    29    31    32   ar
    30    32    33   ar
    31    33    34   ar
    32    34    35   ar
    33    35    36   ar
    34    36    39    1
    35    39    40   ar
    36    40    41   ar
    37    41    42   ar
    38    42    43    1
    39    42    44   ar
    40    44    45   ar
    41    36    37   ar
    42    37    38   ar
    43    38    30   ar
    44     6     1   ar
    45    38    33   ar
    46    12     7    1
    47    45    39   ar
    48    20    15   ar
    49    27    28    1
    50    23    24    1
    51    43    46    1
@<TRIPOS>MOLECULE
*****
 46 51 0 0 0
SMALL
GASTEIGER

@<TRIPOS>ATOM
      1 C          60.7690   86.6406   10.9805 C.ar    1  UNL1        0.0702
      2 C          60.8965   85.4651   11.7297 C.ar    1  UNL1        0.0191
      3 C          60.0572   84.3777   11.4819 C.ar    1  UNL1        0.0356
      4 C          59.0716   84.4744   10.4851 C.ar    1  UNL1        0.1318
      5 N          58.9439   85.6427    9.7957 N.ar    1  UNL1       -0.2279
      6 C          59.7512   86.7127   10.0169 C.ar    1  UNL1        0.1149
      7 N          58.2063   83.3600   10.1755 N.pl3   1  UNL1       -0.2932
      8 C          58.3737   82.0615   10.8508 C.3     1  UNL1        0.0923
      9 C          57.8750   80.9006    9.9696 C.3     1  UNL1        0.0252
     10 C          58.1890   81.1490    8.4769 C.3     1  UNL1        0.0472
     11 C          57.5188   82.4602    7.9776 C.3     1  UNL1        0.0252
     12 C          57.2091   83.4625    9.1022 C.3     1  UNL1        0.0923
     13 C          59.7139   81.1122    8.2240 C.3     1  UNL1        0.2054
     14 O          60.1474   82.2617    7.4913 O.3     1  UNL1       -0.4755
     15 C          61.1096   83.2050    7.8980 C.ar    1  UNL1        0.1388
     16 C          61.2091   84.4985    7.3460 C.ar    1  UNL1        0.0369
     17 C          62.1904   85.3829    7.7972 C.ar    1  UNL1        0.0033
     18 C          63.0813   84.9949    8.7992 C.ar    1  UNL1        0.0066
     19 C          63.0013   83.7094    9.3610 C.ar    1  UNL1        0.0785
     20 C          62.0112   82.8235    8.9004 C.ar    1  UNL1        0.0433
     21 C          63.9442   83.2900   10.4216 C.2     1  UNL1        0.3381
     22 O          63.9892   83.9108   11.5183 O.2     1  UNL1       -0.2451
     23 O          64.7920   82.2042   10.2183 O.3     1  UNL1       -0.4771
     24 H          65.4412   81.9089   10.9379 H       1  UNL1        0.2954
     25 C          61.7141   88.4168   12.5261 C.2     1  UNL1        0.2839
     26 O          60.8396   88.2022   13.4083 O.2     1  UNL1       -0.2665
     27 N          61.6336   87.7569   11.2523 N.am    1  UNL1       -0.2766
     28 H          62.1680   88.1658   10.4525 H       1  UNL1        0.1553
     29 C          63.8747   88.2873   14.8895 C.3     1  UNL1        0.0345
     30 C          63.7475   89.3257   13.8157 C.ar    1  UNL1        0.0202
     31 C          62.8018   89.3790   12.7857 C.ar    1  UNL1        0.1946
     32 O          63.0117   90.4450   12.0339 O.2     1  UNL1       -0.4492
     33 C          64.0444   91.0863   12.5236 C.ar    1  UNL1        0.1452
     34 C          64.6134   92.2608   12.0441 C.ar    1  UNL1        0.0375
     35 C          65.7274   92.7809   12.7255 C.ar    1  UNL1        0.0031
     36 C          66.2535   92.1231   13.8701 C.ar    1  UNL1        0.0002
     37 C          65.6440   90.9295   14.3259 C.ar    1  UNL1        0.0028
     38 C          64.5396   90.4418   13.6254 C.ar    1  UNL1        0.0337
     39 C          67.4310   92.6818   14.5817 C.ar    1  UNL1        0.0000
     40 C          67.2603   93.5728   15.6579 C.ar    1  UNL1        0.0005
     41 C          68.3702   94.0985   16.3259 C.ar    1  UNL1        0.0059
     42 C          69.6625   93.7411   15.9295 C.ar    1  UNL1        0.0215
     43 S          71.0818   94.4151   16.7867 S.3     1  UNL1       -0.1414
     44 C          69.8440   92.8570   14.8620 C.ar    1  UNL1        0.0059
     45 C          68.7366   92.3299   14.1908 C.ar    1  UNL1        0.0005
     46 H          71.0991   93.3504   17.7071 H       1  UNL1        0.1071
@<TRIPOS>BOND
     1    29    30    1
     2    30    31   ar
     3    31    25    1
     4    25    26    2
     5    25    27   am
     6    27     1    1
     7     1     2   ar
     8     2     3   ar
     9     3     4   ar
    10     4     7    1
    11     7     8    1
    12     8     9    1
    13     9    10    1
    14    10    13    1
    15    13    14    1
    16    14    15    1
    17    15    16   ar
    18    16    17   ar
    19    17    18   ar
    20    18    19   ar
    21    19    21    1
    22    21    22    2
    23    21    23    1
    24    19    20   ar
    25    10    11    1
    26    11    12    1
    27     4     5   ar
    28     5     6   ar
    29    31    32   ar
    30    32    33   ar
    31    33    34   ar
    32    34    35   ar
    33    35    36   ar
    34    36    39    1
    35    39    40   ar
    36    40    41   ar
    37    41    42   ar
    38    42    43    1
    39    42    44   ar
    40    44    45   ar
    41    36    37   ar
    42    37    38   ar
    43    38    30   ar
    44     6     1   ar
    45    38    33   ar
    46    12     7    1
    47    45    39   ar
    48    20    15   ar
    49    27    28    1
    50    23    24    1
    51    43    46    1
@<TRIPOS>MOLECULE
*****
 46 51 0 0 0
SMALL
GASTEIGER

@<TRIPOS>ATOM
      1 C          61.3407   86.5941    9.5306 C.ar    1  UNL1        0.0702
      2 C          59.9552   86.6515    9.7215 C.ar    1  UNL1        0.0191
      3 C          59.1469   85.5793    9.3402 C.ar    1  UNL1        0.0356
      4 C          59.7301   84.4461    8.7488 C.ar    1  UNL1        0.1318
      5 N          61.0765   84.4308    8.5402 N.ar    1  UNL1       -0.2279
      6 C          61.8835   85.4606    8.9060 C.ar    1  UNL1        0.1149
      7 N          58.9323   83.3025    8.3717 N.pl3   1  UNL1       -0.2932
      8 C          57.7959   82.8659    9.2011 C.3     1  UNL1        0.0923
      9 C          57.5297   81.3570    9.0414 C.3     1  UNL1        0.0252
     10 C          58.8472   80.5639    8.8884 C.3     1  UNL1        0.0472
     11 C          59.6486   81.0495    7.6475 C.3     1  UNL1        0.0252
     12 C          59.3015   82.4826    7.2104 C.3     1  UNL1        0.0923
     13 C          59.6690   80.6084   10.1972 C.3     1  UNL1        0.2054
     14 O          61.0560   80.8379    9.9329 O.3     1  UNL1       -0.4755
     15 C          61.8732   81.8208   10.5219 C.ar    1  UNL1        0.1388
     16 C          63.2339   81.9952   10.1960 C.ar    1  UNL1        0.0369
     17 C          63.9856   82.9911   10.8220 C.ar    1  UNL1        0.0033
     18 C          63.3970   83.8236   11.7752 C.ar    1  UNL1        0.0066
     19 C          62.0432   83.6652   12.1166 C.ar    1  UNL1        0.0785
     20 C          61.2926   82.6589   11.4831 C.ar    1  UNL1        0.0433
     21 C          61.4131   84.5421   13.1284 C.2     1  UNL1        0.3381
     22 O          60.7694   85.5667   12.7737 O.2     1  UNL1       -0.2451
     23 O          61.5252   84.2436   14.4840 O.3     1  UNL1       -0.4771
     24 H          61.0977   84.8374   15.1847 H       1  UNL1        0.2954
     25 C          61.8782   88.5592   11.0427 C.2     1  UNL1        0.2839
     26 O          60.7496   88.5165   11.6024 O.2     1  UNL1       -0.2665
     27 N          62.1610   87.7093    9.9191 N.am    1  UNL1       -0.2766
     28 H          62.9589   87.9683    9.2957 H       1  UNL1        0.1553
     29 C          63.7482   88.2518   13.6270 C.3     1  UNL1        0.0345
     30 C          63.7185   89.3821   12.6427 C.ar    1  UNL1        0.0202
     31 C          62.8995   89.5129   11.5156 C.ar    1  UNL1        0.1946
     32 O          63.1656   90.6472   10.8924 O.2     1  UNL1       -0.4492
     33 C          64.1145   91.2593   11.5578 C.ar    1  UNL1        0.1452
     34 C          64.7018   92.4830   11.2567 C.ar    1  UNL1        0.0375
     35 C          65.7123   92.9582   12.1103 C.ar    1  UNL1        0.0031
     36 C          66.1188   92.2075   13.2466 C.ar    1  UNL1        0.0002
     37 C          65.4945   90.9662   13.5177 C.ar    1  UNL1        0.0028
     38 C          64.4949   90.5252   12.6491 C.ar    1  UNL1        0.0337
     39 C          67.1876   92.7195   14.1412 C.ar    1  UNL1        0.0000
     40 C          68.5126   92.2640   14.0068 C.ar    1  UNL1        0.0005
     41 C          69.5172   92.7467   14.8508 C.ar    1  UNL1        0.0059
     42 C          69.2127   93.6894   15.8373 C.ar    1  UNL1        0.0215
     43 S          70.5008   94.3061   16.9162 S.3     1  UNL1       -0.1414
     44 C          67.9001   94.1489   15.9799 C.ar    1  UNL1        0.0059
     45 C          66.8924   93.6680   15.1385 C.ar    1  UNL1        0.0005
     46 H          70.8045   95.3633   16.0382 H       1  UNL1        0.1071
@<TRIPOS>BOND
     1    29    30    1
     2    30    31   ar
     3    31    25    1
     4    25    26    2
     5    25    27   am
     6    27     1    1
     7     1     2   ar
     8     2     3   ar
     9     3     4   ar
    10     4     7    1
    11     7     8    1
    12     8     9    1
    13     9    10    1
    14    10    13    1
    15    13    14    1
    16    14    15    1
    17    15    16   ar
    18    16    17   ar
    19    17    18   ar
    20    18    19   ar
    21    19    21    1
    22    21    22    2
    23    21    23    1
    24    19    20   ar
    25    10    11    1
    26    11    12    1
    27     4     5   ar
    28     5     6   ar
    29    31    32   ar
    30    32    33   ar
    31    33    34   ar
    32    34    35   ar
    33    35    36   ar
    34    36    39    1
    35    39    40   ar
    36    40    41   ar
    37    41    42   ar
    38    42    43    1
    39    42    44   ar
    40    44    45   ar
    41    36    37   ar
    42    37    38   ar
    43    38    30   ar
    44     6     1   ar
    45    38    33   ar
    46    12     7    1
    47    45    39   ar
    48    20    15   ar
    49    27    28    1
    50    23    24    1
    51    43    46    1
@<TRIPOS>MOLECULE
*****
 46 51 0 0 0
SMALL
GASTEIGER

@<TRIPOS>ATOM
      1 C          59.9560   91.6865    4.6260 C.ar    1  UNL1        0.0702
      2 C          60.9465   92.0209    3.6953 C.ar    1  UNL1        0.0191
      3 C          60.5975   92.5887    2.4689 C.ar    1  UNL1        0.0356
      4 C          59.2433   92.8097    2.1663 C.ar    1  UNL1        0.1318
      5 N          58.2966   92.4410    3.0743 N.ar    1  UNL1       -0.2279
      6 C          58.6124   91.8901    4.2752 C.ar    1  UNL1        0.1149
      7 N          58.8437   93.4261    0.9227 N.pl3   1  UNL1       -0.2932
      8 C          58.1627   92.6452   -0.1245 C.3     1  UNL1        0.0923
      9 C          58.4249   93.2322   -1.5243 C.3     1  UNL1        0.0252
     10 C          59.8656   93.7774   -1.6476 C.3     1  UNL1        0.0472
     11 C          60.1312   94.8919   -0.5962 C.3     1  UNL1        0.0252
     12 C          59.2036   94.8192    0.6283 C.3     1  UNL1        0.0923
     13 C          60.8950   92.6255   -1.5843 C.3     1  UNL1        0.2054
     14 O          62.1722   93.0416   -2.0763 O.3     1  UNL1       -0.4755
     15 C          63.2335   93.5714   -1.3189 C.ar    1  UNL1        0.1388
     16 C          64.2359   94.4006   -1.8626 C.ar    1  UNL1        0.0369
     17 C          65.2614   94.8897   -1.0515 C.ar    1  UNL1        0.0033
     18 C          65.3032   94.5631    0.3048 C.ar    1  UNL1        0.0066
     19 C          64.3157   93.7361    0.8664 C.ar    1  UNL1        0.0785
     20 C          63.2867   93.2459    0.0429 C.ar    1  UNL1        0.0433
     21 C          64.3551   93.3833    2.3030 C.2     1  UNL1        0.3381
     22 O          64.4454   94.2848    3.1799 O.2     1  UNL1       -0.2451
     23 O          64.2927   92.0501    2.7006 O.3     1  UNL1       -0.4771
     24 H          64.3190   91.7979    3.6814 H       1  UNL1        0.2954
     25 C          59.5674   90.0678    6.5406 C.2     1  UNL1        0.2839
     26 O          58.3923   89.8092    6.1648 O.2     1  UNL1       -0.2665
     27 N          60.3282   91.0934    5.8818 N.am    1  UNL1       -0.2766
     28 H          61.1518   91.4942    6.3854 H       1  UNL1        0.1553
     29 C          59.0568   87.0082    7.3460 C.3     1  UNL1        0.0345
     30 C          59.9310   88.0084    8.0408 C.ar    1  UNL1        0.0202
     31 C          60.1506   89.3442    7.6862 C.ar    1  UNL1        0.1946
     32 O          60.9868   89.9071    8.5403 O.2     1  UNL1       -0.4492
     33 C          61.3204   89.0055    9.4311 C.ar    1  UNL1        0.1452
     34 C          62.1802   89.1649   10.5120 C.ar    1  UNL1        0.0375
     35 C          62.4014   88.0572   11.3485 C.ar    1  UNL1        0.0031
     36 C          61.7633   86.8131   11.0941 C.ar    1  UNL1        0.0002
     37 C          60.8945   86.6934    9.9828 C.ar    1  UNL1        0.0028
     38 C          60.6979   87.8135    9.1737 C.ar    1  UNL1        0.0337
     39 C          62.0048   85.6497   11.9847 C.ar    1  UNL1        0.0000
     40 C          63.3062   85.3433   12.4247 C.ar    1  UNL1        0.0005
     41 C          63.5316   84.2469   13.2624 C.ar    1  UNL1        0.0059
     42 C          62.4623   83.4446   13.6718 C.ar    1  UNL1        0.0215
     43 S          62.7534   82.0418   14.7447 S.3     1  UNL1       -0.1414
     44 C          61.1655   83.7395   13.2410 C.ar    1  UNL1        0.0059
     45 C          60.9361   84.8344   12.4025 C.ar    1  UNL1        0.0005
     46 H          62.5757   82.8221   15.9025 H       1  UNL1        0.1071
@<TRIPOS>BOND
     1    29    30    1
     2    30    31   ar
     3    31    25    1
     4    25    26    2
     5    25    27   am
     6    27     1    1
     7     1     2   ar
     8     2     3   ar
     9     3     4   ar
    10     4     7    1
    11     7     8    1
    12     8     9    1
    13     9    10    1
    14    10    13    1
    15    13    14    1
    16    14    15    1
    17    15    16   ar
    18    16    17   ar
    19    17    18   ar
    20    18    19   ar
    21    19    21    1
    22    21    22    2
    23    21    23    1
    24    19    20   ar
    25    10    11    1
    26    11    12    1
    27     4     5   ar
    28     5     6   ar
    29    31    32   ar
    30    32    33   ar
    31    33    34   ar
    32    34    35   ar
    33    35    36   ar
    34    36    39    1
    35    39    40   ar
    36    40    41   ar
    37    41    42   ar
    38    42    43    1
    39    42    44   ar
    40    44    45   ar
    41    36    37   ar
    42    37    38   ar
    43    38    30   ar
    44     6     1   ar
    45    38    33   ar
    46    12     7    1
    47    45    39   ar
    48    20    15   ar
    49    27    28    1
    50    23    24    1
    51    43    46    1
