@<TRIPOS>MOLECULE
*****
 42 46 0 0 0
SMALL
GASTEIGER

@<TRIPOS>ATOM
      1 C          -9.0905  -14.4352   28.0831 C.3     1  UNL1        0.1332
      2 N          -7.7539  -14.4173   27.4883 N.ar    1  UNL1       -0.2977
      3 C          -6.6365  -13.7715   27.9312 C.ar    1  UNL1        0.2018
      4 N          -5.5590  -13.9207   27.1185 N.ar    1  UNL1       -0.2135
      5 C          -6.0227  -14.7246   26.1462 C.ar    1  UNL1        0.0999
      6 C          -5.3053  -15.2351   25.0566 C.ar    1  UNL1        0.0282
      7 C          -5.9652  -16.1242   24.1712 C.ar    1  UNL1        0.0888
      8 C          -7.3265  -16.4246   24.4221 C.ar    1  UNL1        0.1401
      9 C          -8.0106  -15.8963   25.4931 C.ar    1  UNL1        0.0327
     10 C          -7.3381  -15.0364   26.3668 C.ar    1  UNL1        0.0789
     11 C          -9.4184  -16.3817   25.4874 C.3     1  UNL1        0.0709
     12 C          -9.4461  -17.3383   24.2504 C.3     1  UNL1        0.1375
     13 C         -10.4951  -16.8985   23.2206 C.3     1  UNL1        0.0439
     14 C          -9.6922  -18.7918   24.6777 C.3     1  UNL1        0.0439
     15 O          -8.1455  -17.2386   23.6678 O.3     1  UNL1       -0.4824
     16 C          -5.2379  -16.6951   23.0181 C.2     1  UNL1        0.2525
     17 O          -5.4148  -16.1894   21.8767 O.2     1  UNL1       -0.2697
     18 N          -4.3420  -17.8090   23.1873 N.am    1  UNL1       -0.2803
     19 H          -4.2367  -18.2319   24.1358 H       1  UNL1        0.1552
     20 C          -3.6316  -18.4400   22.1091 C.ar    1  UNL1        0.0517
     21 C          -4.2545  -19.3825   21.2742 C.ar    1  UNL1        0.0287
     22 C          -3.5446  -19.9780   20.2234 C.ar    1  UNL1        0.0427
     23 N          -4.1786  -20.9524   19.3901 N.pl3   1  UNL1       -0.3570
     24 C          -2.2124  -19.6122   19.9898 C.ar    1  UNL1        0.0180
     25 C          -1.5917  -18.6313   20.7816 C.ar    1  UNL1        0.0739
     26 C          -2.3068  -18.0618   21.8491 C.ar    1  UNL1        0.0186
     27 H          -5.1710  -21.2330   19.5549 H       1  UNL1        0.1424
     28 H          -3.6602  -21.4012   18.6022 H       1  UNL1        0.1424
     29 C          -0.1466  -18.2657   20.5507 C.3     1  UNL1        0.4187
     30 F           0.2617  -18.7732   19.3316 F       1  UNL1       -0.1659
     31 F           0.6560  -18.7899   21.5493 F       1  UNL1       -0.1659
     32 F           0.0154  -16.8910   20.5440 F       1  UNL1       -0.1659
     33 N          -6.5574  -13.0193   29.1506 N.pl3   1  UNL1       -0.2814
     34 H          -6.3894  -13.5497   30.0349 H       1  UNL1        0.1551
     35 C          -6.7491  -11.5982   29.2428 C.ar    1  UNL1        0.0889
     36 C          -5.7580  -10.7462   28.7267 C.ar    1  UNL1        0.1543
     37 F          -4.6495  -11.2645   28.1402 F       1  UNL1       -0.2028
     38 C          -5.9160   -9.3591   28.7866 C.ar    1  UNL1        0.0310
     39 C          -7.0547   -8.8087   29.3759 C.ar    1  UNL1        0.0033
     40 C          -8.0333   -9.6430   29.9193 C.ar    1  UNL1        0.0128
     41 C          -7.8872  -11.0347   29.8664 C.ar    1  UNL1        0.0733
     42 CL         -9.1103  -12.0229   30.6575 Cl      1  UNL1       -0.0809
@<TRIPOS>BOND
     1     1     2    1
     2     2     3   ar
     3     3    33    1
     4    33    35    1
     5    35    36   ar
     6    36    37    1
     7    36    38   ar
     8    38    39   ar
     9    39    40   ar
    10    40    41   ar
    11    41    42    1
    12     3     4   ar
    13     4     5   ar
    14     5     6   ar
    15     6     7   ar
    16     7    16    1
    17    16    17    2
    18    16    18   am
    19    18    20    1
    20    20    21   ar
    21    21    22   ar
    22    22    23    1
    23    22    24   ar
    24    24    25   ar
    25    25    29    1
    26    29    30    1
    27    29    31    1
    28    29    32    1
    29    25    26   ar
    30     7     8   ar
    31     8     9   ar
    32     9    10   ar
    33     9    11    1
    34    11    12    1
    35    12    13    1
    36    12    14    1
    37    12    15    1
    38    10     2   ar
    39    41    35   ar
    40    10     5   ar
    41    26    20   ar
    42    15     8    1
    43    33    34    1
    44    18    19    1
    45    23    27    1
    46    23    28    1
@<TRIPOS>MOLECULE
*****
 42 46 0 0 0
SMALL
GASTEIGER

@<TRIPOS>ATOM
      1 C          -8.9981  -10.4148   31.9834 C.3     1  UNL1        0.1332
      2 N          -9.2918  -11.6006   31.1783 N.ar    1  UNL1       -0.2977
      3 C         -10.3776  -12.4243   31.2454 C.ar    1  UNL1        0.2018
      4 N         -10.3243  -13.4723   30.3835 N.ar    1  UNL1       -0.2135
      5 C          -9.1683  -13.2673   29.7292 C.ar    1  UNL1        0.0999
      6 C          -8.6371  -14.0392   28.6879 C.ar    1  UNL1        0.0282
      7 C          -7.4268  -13.6153   28.0833 C.ar    1  UNL1        0.0888
      8 C          -6.8048  -12.4470   28.5875 C.ar    1  UNL1        0.1401
      9 C          -7.3425  -11.7160   29.6223 C.ar    1  UNL1        0.0327
     10 C          -8.5468  -12.1384   30.1936 C.ar    1  UNL1        0.0789
     11 C          -6.4627  -10.5567   29.9375 C.3     1  UNL1        0.0709
     12 C          -5.3249  -10.6904   28.8730 C.3     1  UNL1        0.1375
     13 C          -3.9464  -10.8215   29.5341 C.3     1  UNL1        0.0439
     14 C          -5.3385   -9.5085   27.8939 C.3     1  UNL1        0.0439
     15 O          -5.6182  -11.8912   28.1567 O.3     1  UNL1       -0.4824
     16 C          -6.8423  -14.3952   26.9722 C.2     1  UNL1        0.2525
     17 O          -5.6524  -14.8001   27.0734 O.2     1  UNL1       -0.2697
     18 N          -7.6115  -14.6910   25.7920 N.am    1  UNL1       -0.2803
     19 H          -8.5832  -14.3174   25.7166 H       1  UNL1        0.1552
     20 C          -7.0989  -15.4093   24.6577 C.ar    1  UNL1        0.0517
     21 C          -5.8268  -15.1329   24.1297 C.ar    1  UNL1        0.0287
     22 C          -5.3442  -15.8525   23.0288 C.ar    1  UNL1        0.0427
     23 N          -4.0567  -15.5517   22.4831 N.pl3   1  UNL1       -0.3570
     24 C          -6.1261  -16.8705   22.4672 C.ar    1  UNL1        0.0180
     25 C          -7.3773  -17.1960   23.0175 C.ar    1  UNL1        0.0739
     26 C          -7.8609  -16.4482   24.1047 C.ar    1  UNL1        0.0186
     27 H          -3.4652  -14.7950   22.8932 H       1  UNL1        0.1424
     28 H          -3.6854  -16.0831   21.6641 H       1  UNL1        0.1424
     29 C          -8.2323  -18.2679   22.3888 C.3     1  UNL1        0.4187
     30 F          -8.7680  -17.7881   21.2084 F       1  UNL1       -0.1659
     31 F          -9.2639  -18.6311   23.2374 F       1  UNL1       -0.1659
     32 F          -7.4798  -19.3972   22.1163 F       1  UNL1       -0.1659
     33 N         -11.5043  -12.2215   32.1103 N.pl3   1  UNL1       -0.2814
     34 H         -11.9152  -11.2618   32.1507 H       1  UNL1        0.1551
     35 C         -12.0667  -13.2322   32.9630 C.ar    1  UNL1        0.0889
     36 C         -13.3085  -13.7933   32.6201 C.ar    1  UNL1        0.1543
     37 F         -13.9516  -13.3927   31.4944 F       1  UNL1       -0.2028
     38 C         -13.8801  -14.7879   33.4181 C.ar    1  UNL1        0.0310
     39 C         -13.2276  -15.2202   34.5732 C.ar    1  UNL1        0.0033
     40 C         -12.0076  -14.6503   34.9417 C.ar    1  UNL1        0.0128
     41 C         -11.4241  -13.6524   34.1513 C.ar    1  UNL1        0.0733
     42 CL         -9.9357  -12.9095   34.7271 Cl      1  UNL1       -0.0809
@<TRIPOS>BOND
     1     1     2    1
     2     2     3   ar
     3     3    33    1
     4    33    35    1
     5    35    36   ar
     6    36    37    1
     7    36    38   ar
     8    38    39   ar
     9    39    40   ar
    10    40    41   ar
    11    41    42    1
    12     3     4   ar
    13     4     5   ar
    14     5     6   ar
    15     6     7   ar
    16     7    16    1
    17    16    17    2
    18    16    18   am
    19    18    20    1
    20    20    21   ar
    21    21    22   ar
    22    22    23    1
    23    22    24   ar
    24    24    25   ar
    25    25    29    1
    26    29    30    1
    27    29    31    1
    28    29    32    1
    29    25    26   ar
    30     7     8   ar
    31     8     9   ar
    32     9    10   ar
    33     9    11    1
    34    11    12    1
    35    12    13    1
    36    12    14    1
    37    12    15    1
    38    10     2   ar
    39    41    35   ar
    40    10     5   ar
    41    26    20   ar
    42    15     8    1
    43    33    34    1
    44    18    19    1
    45    23    27    1
    46    23    28    1
@<TRIPOS>MOLECULE
*****
 42 46 0 0 0
SMALL
GASTEIGER

@<TRIPOS>ATOM
      1 C          -8.8518  -10.3867   32.2067 C.3     1  UNL1        0.1332
      2 N          -9.2158  -11.5564   31.4068 N.ar    1  UNL1       -0.2977
      3 C         -10.3133  -12.3583   31.5266 C.ar    1  UNL1        0.2018
      4 N         -10.3312  -13.3967   30.6518 N.ar    1  UNL1       -0.2135
      5 C          -9.2100  -13.2078   29.9351 C.ar    1  UNL1        0.0999
      6 C          -8.7552  -13.9780   28.8571 C.ar    1  UNL1        0.0282
      7 C          -7.5723  -13.5720   28.1892 C.ar    1  UNL1        0.0888
      8 C          -6.8980  -12.4228   28.6698 C.ar    1  UNL1        0.1401
      9 C          -7.3606  -11.6934   29.7413 C.ar    1  UNL1        0.0327
     10 C          -8.5393  -12.0976   30.3755 C.ar    1  UNL1        0.0789
     11 C          -6.4399  -10.5563   30.0185 C.3     1  UNL1        0.0709
     12 C          -5.3672  -10.7008   28.8896 C.3     1  UNL1        0.1375
     13 C          -3.9567  -10.8682   29.4699 C.3     1  UNL1        0.0439
     14 C          -5.4111   -9.5072   27.9257 C.3     1  UNL1        0.0439
     15 O          -5.7262  -11.8866   28.1783 O.3     1  UNL1       -0.4824
     16 C          -7.0683  -14.3504   27.0383 C.2     1  UNL1        0.2525
     17 O          -5.8399  -14.6298   26.9842 O.2     1  UNL1       -0.2697
     18 N          -7.9580  -14.7852   25.9937 N.am    1  UNL1       -0.2803
     19 H          -8.9648  -14.5140   26.0433 H       1  UNL1        0.1552
     20 C          -7.5346  -15.5108   24.8276 C.ar    1  UNL1        0.0517
     21 C          -8.3069  -16.5566   24.2954 C.ar    1  UNL1        0.0287
     22 C          -7.8785  -17.2438   23.1522 C.ar    1  UNL1        0.0427
     23 N          -8.6592  -18.3214   22.6277 N.pl3   1  UNL1       -0.3570
     24 C          -6.6843  -16.8687   22.5227 C.ar    1  UNL1        0.0180
     25 C          -5.9282  -15.7896   23.0106 C.ar    1  UNL1        0.0739
     26 C          -6.3555  -15.1264   24.1737 C.ar    1  UNL1        0.0186
     27 H          -9.5509  -18.6100   23.0886 H       1  UNL1        0.1424
     28 H          -8.3512  -18.8395   21.7746 H       1  UNL1        0.1424
     29 C          -4.6248  -15.4111   22.3523 C.3     1  UNL1        0.4187
     30 F          -4.3417  -14.0875   22.6321 F       1  UNL1       -0.1659
     31 F          -4.7042  -15.5752   20.9801 F       1  UNL1       -0.1659
     32 F          -3.5911  -16.2026   22.8224 F       1  UNL1       -0.1659
     33 N         -11.3847  -12.1426   32.4563 N.pl3   1  UNL1       -0.2814
     34 H         -11.6090  -11.1552   32.7137 H       1  UNL1        0.1551
     35 C         -12.1286  -13.1920   33.0968 C.ar    1  UNL1        0.0889
     36 C         -13.3815  -13.5516   32.5719 C.ar    1  UNL1        0.1543
     37 F         -13.8663  -12.9239   31.4708 F       1  UNL1       -0.2028
     38 C         -14.1275  -14.5763   33.1601 C.ar    1  UNL1        0.0310
     39 C         -13.6394  -15.2403   34.2861 C.ar    1  UNL1        0.0033
     40 C         -12.4098  -14.8732   34.8358 C.ar    1  UNL1        0.0128
     41 C         -11.6524  -13.8477   34.2565 C.ar    1  UNL1        0.0733
     42 CL        -10.1598  -13.3710   35.0586 Cl      1  UNL1       -0.0809
@<TRIPOS>BOND
     1     1     2    1
     2     2     3   ar
     3     3    33    1
     4    33    35    1
     5    35    36   ar
     6    36    37    1
     7    36    38   ar
     8    38    39   ar
     9    39    40   ar
    10    40    41   ar
    11    41    42    1
    12     3     4   ar
    13     4     5   ar
    14     5     6   ar
    15     6     7   ar
    16     7    16    1
    17    16    17    2
    18    16    18   am
    19    18    20    1
    20    20    21   ar
    21    21    22   ar
    22    22    23    1
    23    22    24   ar
    24    24    25   ar
    25    25    29    1
    26    29    30    1
    27    29    31    1
    28    29    32    1
    29    25    26   ar
    30     7     8   ar
    31     8     9   ar
    32     9    10   ar
    33     9    11    1
    34    11    12    1
    35    12    13    1
    36    12    14    1
    37    12    15    1
    38    10     2   ar
    39    41    35   ar
    40    10     5   ar
    41    26    20   ar
    42    15     8    1
    43    33    34    1
    44    18    19    1
    45    23    27    1
    46    23    28    1
@<TRIPOS>MOLECULE
*****
 42 46 0 0 0
SMALL
GASTEIGER

@<TRIPOS>ATOM
      1 C          -8.8942  -10.4356   32.2610 C.3     1  UNL1        0.1332
      2 N          -9.2303  -11.5844   31.4196 N.ar    1  UNL1       -0.2977
      3 C         -10.3217  -12.4002   31.4937 C.ar    1  UNL1        0.2018
      4 N         -10.3118  -13.4121   30.5884 N.ar    1  UNL1       -0.2135
      5 C          -9.1788  -13.1909   29.9000 C.ar    1  UNL1        0.0999
      6 C          -8.6951  -13.9241   28.8087 C.ar    1  UNL1        0.0282
      7 C          -7.5036  -13.4868   28.1769 C.ar    1  UNL1        0.0888
      8 C          -6.8507  -12.3460   28.7046 C.ar    1  UNL1        0.1401
      9 C          -7.3417  -11.6535   29.7880 C.ar    1  UNL1        0.0327
     10 C          -8.5283  -12.0879   30.3864 C.ar    1  UNL1        0.0789
     11 C          -6.4383  -10.5163   30.1170 C.3     1  UNL1        0.0709
     12 C          -5.3424  -10.6165   29.0058 C.3     1  UNL1        0.1375
     13 C          -3.9418  -10.7875   29.6087 C.3     1  UNL1        0.0439
     14 C          -5.3798   -9.3951   28.0771 C.3     1  UNL1        0.0439
     15 O          -5.6751  -11.7839   28.2526 O.3     1  UNL1       -0.4824
     16 C          -6.9693  -14.2255   27.0136 C.2     1  UNL1        0.2525
     17 O          -5.7306  -14.4539   26.9550 O.2     1  UNL1       -0.2697
     18 N          -7.8413  -14.6792   25.9620 N.am    1  UNL1       -0.2803
     19 H          -8.8582  -14.4499   26.0160 H       1  UNL1        0.1552
     20 C          -7.3896  -15.3681   24.7845 C.ar    1  UNL1        0.0517
     21 C          -8.2025  -15.4799   23.6442 C.ar    1  UNL1        0.0287
     22 C          -7.7373  -16.1483   22.5043 C.ar    1  UNL1        0.0427
     23 N          -8.5780  -16.2767   21.3542 N.pl3   1  UNL1       -0.3570
     24 C          -6.4440  -16.6870   22.4941 C.ar    1  UNL1        0.0180
     25 C          -5.5987  -16.5364   23.6063 C.ar    1  UNL1        0.0739
     26 C          -6.0876  -15.8873   24.7530 C.ar    1  UNL1        0.0186
     27 H          -9.5439  -15.8794   21.3504 H       1  UNL1        0.1424
     28 H          -8.2412  -16.7707   20.4978 H       1  UNL1        0.1424
     29 C          -4.2201  -17.1485   23.6061 C.3     1  UNL1        0.4187
     30 F          -4.2654  -18.3708   22.9622 F       1  UNL1       -0.1659
     31 F          -3.7686  -17.3373   24.9009 F       1  UNL1       -0.1659
     32 F          -3.3197  -16.3266   22.9506 F       1  UNL1       -0.1659
     33 N         -11.4132  -12.2228   32.4081 N.pl3   1  UNL1       -0.2814
     34 H         -11.6649  -11.2447   32.6753 H       1  UNL1        0.1551
     35 C         -12.1428  -13.2983   33.0211 C.ar    1  UNL1        0.0889
     36 C         -13.3763  -13.6816   32.4679 C.ar    1  UNL1        0.1543
     37 F         -13.8558  -13.0519   31.3657 F       1  UNL1       -0.2028
     38 C         -14.1077  -14.7318   33.0290 C.ar    1  UNL1        0.0310
     39 C         -13.6246  -15.3982   34.1558 C.ar    1  UNL1        0.0033
     40 C         -12.4149  -15.0081   34.7334 C.ar    1  UNL1        0.0128
     41 C         -11.6724  -13.9570   34.1815 C.ar    1  UNL1        0.0733
     42 CL        -10.2074  -13.4542   35.0178 Cl      1  UNL1       -0.0809
@<TRIPOS>BOND
     1     1     2    1
     2     2     3   ar
     3     3    33    1
     4    33    35    1
     5    35    36   ar
     6    36    37    1
     7    36    38   ar
     8    38    39   ar
     9    39    40   ar
    10    40    41   ar
    11    41    42    1
    12     3     4   ar
    13     4     5   ar
    14     5     6   ar
    15     6     7   ar
    16     7    16    1
    17    16    17    2
    18    16    18   am
    19    18    20    1
    20    20    21   ar
    21    21    22   ar
    22    22    23    1
    23    22    24   ar
    24    24    25   ar
    25    25    29    1
    26    29    30    1
    27    29    31    1
    28    29    32    1
    29    25    26   ar
    30     7     8   ar
    31     8     9   ar
    32     9    10   ar
    33     9    11    1
    34    11    12    1
    35    12    13    1
    36    12    14    1
    37    12    15    1
    38    10     2   ar
    39    41    35   ar
    40    10     5   ar
    41    26    20   ar
    42    15     8    1
    43    33    34    1
    44    18    19    1
    45    23    27    1
    46    23    28    1
@<TRIPOS>MOLECULE
*****
 42 46 0 0 0
SMALL
GASTEIGER

@<TRIPOS>ATOM
      1 C          -9.2331  -10.0158   34.2481 C.3     1  UNL1        0.1332
      2 N          -8.5250  -10.2961   32.9989 N.ar    1  UNL1       -0.2977
      3 C          -7.3514   -9.7634   32.5506 C.ar    1  UNL1        0.2018
      4 N          -6.9853  -10.2029   31.3191 N.ar    1  UNL1       -0.2135
      5 C          -7.9601  -11.0739   31.0067 C.ar    1  UNL1        0.0999
      6 C          -8.0567  -11.8560   29.8485 C.ar    1  UNL1        0.0282
      7 C          -9.1377  -12.7665   29.7372 C.ar    1  UNL1        0.0888
      8 C         -10.0794  -12.8135   30.7942 C.ar    1  UNL1        0.1401
      9 C          -9.9672  -12.0220   31.9145 C.ar    1  UNL1        0.0327
     10 C          -8.8839  -11.1438   32.0157 C.ar    1  UNL1        0.0789
     11 C         -11.1050  -12.2838   32.8388 C.3     1  UNL1        0.0709
     12 C         -11.8952  -13.4123   32.0986 C.3     1  UNL1        0.1375
     13 C         -13.3422  -12.9913   31.8096 C.3     1  UNL1        0.0439
     14 C         -11.8685  -14.7236   32.8956 C.3     1  UNL1        0.0439
     15 O         -11.2066  -13.6055   30.8619 O.3     1  UNL1       -0.4824
     16 C          -9.2660  -13.6193   28.5370 C.2     1  UNL1        0.2525
     17 O         -10.3332  -13.5700   27.8672 O.2     1  UNL1       -0.2697
     18 N          -8.1959  -14.4935   28.1336 N.am    1  UNL1       -0.2803
     19 H          -7.3351  -14.5417   28.7219 H       1  UNL1        0.1552
     20 C          -8.2634  -15.3778   27.0027 C.ar    1  UNL1        0.0517
     21 C          -9.0292  -16.5549   27.0383 C.ar    1  UNL1        0.0287
     22 C          -9.0875  -17.3972   25.9203 C.ar    1  UNL1        0.0427
     23 N          -9.8523  -18.6049   25.9704 N.pl3   1  UNL1       -0.3570
     24 C          -8.3968  -17.0497   24.7519 C.ar    1  UNL1        0.0180
     25 C          -7.6708  -15.8488   24.6817 C.ar    1  UNL1        0.0739
     26 C          -7.5986  -15.0266   25.8192 C.ar    1  UNL1        0.0186
     27 H         -10.3709  -18.8742   26.8360 H       1  UNL1        0.1424
     28 H          -9.9051  -19.2394   25.1424 H       1  UNL1        0.1424
     29 C          -6.8989  -15.4950   23.4350 C.3     1  UNL1        0.4187
     30 F          -5.7790  -14.7647   23.7855 F       1  UNL1       -0.1659
     31 F          -7.6782  -14.7407   22.5748 F       1  UNL1       -0.1659
     32 F          -6.5000  -16.6388   22.7651 F       1  UNL1       -0.1659
     33 N          -6.5357   -8.8449   33.2920 N.pl3   1  UNL1       -0.2814
     34 H          -6.6046   -8.8709   34.3341 H       1  UNL1        0.1551
     35 C          -5.6766   -7.8584   32.6974 C.ar    1  UNL1        0.0889
     36 C          -4.4666   -7.5401   33.3371 C.ar    1  UNL1        0.1543
     37 F          -4.1164   -8.1683   34.4877 F       1  UNL1       -0.2028
     38 C          -3.5997   -6.5954   32.7816 C.ar    1  UNL1        0.0310
     39 C          -3.9382   -5.9477   31.5929 C.ar    1  UNL1        0.0033
     40 C          -5.1508   -6.2325   30.9626 C.ar    1  UNL1        0.0128
     41 C          -6.0289   -7.1767   31.5088 C.ar    1  UNL1        0.0733
     42 CL         -7.5822   -7.4141   30.7155 Cl      1  UNL1       -0.0809
@<TRIPOS>BOND
     1     1     2    1
     2     2     3   ar
     3     3    33    1
     4    33    35    1
     5    35    36   ar
     6    36    37    1
     7    36    38   ar
     8    38    39   ar
     9    39    40   ar
    10    40    41   ar
    11    41    42    1
    12     3     4   ar
    13     4     5   ar
    14     5     6   ar
    15     6     7   ar
    16     7    16    1
    17    16    17    2
    18    16    18   am
    19    18    20    1
    20    20    21   ar
    21    21    22   ar
    22    22    23    1
    23    22    24   ar
    24    24    25   ar
    25    25    29    1
    26    29    30    1
    27    29    31    1
    28    29    32    1
    29    25    26   ar
    30     7     8   ar
    31     8     9   ar
    32     9    10   ar
    33     9    11    1
    34    11    12    1
    35    12    13    1
    36    12    14    1
    37    12    15    1
    38    10     2   ar
    39    41    35   ar
    40    10     5   ar
    41    26    20   ar
    42    15     8    1
    43    33    34    1
    44    18    19    1
    45    23    27    1
    46    23    28    1
@<TRIPOS>MOLECULE
*****
 42 46 0 0 0
SMALL
GASTEIGER

@<TRIPOS>ATOM
      1 C          -9.0902  -14.3624   28.1556 C.3     1  UNL1        0.1332
      2 N          -7.7412  -14.3503   27.5894 N.ar    1  UNL1       -0.2977
      3 C          -6.6289  -13.7153   28.0601 C.ar    1  UNL1        0.2018
      4 N          -5.5355  -13.8672   27.2694 N.ar    1  UNL1       -0.2135
      5 C          -5.9840  -14.6615   26.2824 C.ar    1  UNL1        0.0999
      6 C          -5.2473  -15.1703   25.2050 C.ar    1  UNL1        0.0282
      7 C          -5.8945  -16.0491   24.3000 C.ar    1  UNL1        0.0888
      8 C          -7.2628  -16.3413   24.5201 C.ar    1  UNL1        0.1401
      9 C          -7.9658  -15.8148   25.5797 C.ar    1  UNL1        0.0327
     10 C          -7.3060  -14.9653   26.4730 C.ar    1  UNL1        0.0789
     11 C          -9.3765  -16.2901   25.5410 C.3     1  UNL1        0.0709
     12 C          -9.3847  -17.2387   24.2977 C.3     1  UNL1        0.1375
     13 C         -10.4085  -16.7849   23.2487 C.3     1  UNL1        0.0439
     14 C          -9.6500  -18.6930   24.7102 C.3     1  UNL1        0.0439
     15 O          -8.0714  -17.1446   23.7434 O.3     1  UNL1       -0.4824
     16 C          -5.1469  -16.6179   23.1590 C.2     1  UNL1        0.2525
     17 O          -5.1328  -15.9882   22.0666 O.2     1  UNL1       -0.2697
     18 N          -4.4450  -17.8683   23.2849 N.am    1  UNL1       -0.2803
     19 H          -4.4981  -18.3877   24.1887 H       1  UNL1        0.1552
     20 C          -3.7303  -18.5005   22.2102 C.ar    1  UNL1        0.0517
     21 C          -4.3412  -19.4655   21.3923 C.ar    1  UNL1        0.0287
     22 C          -3.6275  -20.0618   20.3446 C.ar    1  UNL1        0.0427
     23 N          -4.2489  -21.0589   19.5287 N.pl3   1  UNL1       -0.3570
     24 C          -2.3039  -19.6746   20.0968 C.ar    1  UNL1        0.0180
     25 C          -1.6963  -18.6718   20.8710 C.ar    1  UNL1        0.0739
     26 C          -2.4145  -18.1014   21.9358 C.ar    1  UNL1        0.0186
     27 H          -5.2347  -21.3556   19.7042 H       1  UNL1        0.1424
     28 H          -3.7275  -21.5086   18.7433 H       1  UNL1        0.1424
     29 C          -0.2598  -18.2827   20.6252 C.3     1  UNL1        0.4187
     30 F           0.0886  -18.6233   19.3317 F       1  UNL1       -0.1659
     31 F           0.5823  -18.9385   21.5067 F       1  UNL1       -0.1659
     32 F          -0.0859  -16.9200   20.7951 F       1  UNL1       -0.1659
     33 N          -6.5704  -12.9714   29.2857 N.pl3   1  UNL1       -0.2814
     34 H          -6.2820  -13.4848   30.1487 H       1  UNL1        0.1551
     35 C          -6.9349  -11.5874   29.4146 C.ar    1  UNL1        0.0889
     36 C          -8.1714  -11.2642   29.9985 C.ar    1  UNL1        0.1543
     37 F          -8.9944  -12.2472   30.4434 F       1  UNL1       -0.2028
     38 C          -8.5539   -9.9291   30.1525 C.ar    1  UNL1        0.0310
     39 C          -7.7152   -8.9049   29.7111 C.ar    1  UNL1        0.0033
     40 C          -6.4972   -9.2124   29.1022 C.ar    1  UNL1        0.0128
     41 C          -6.1021  -10.5462   28.9412 C.ar    1  UNL1        0.0733
     42 CL         -4.6014  -10.8632   28.0777 Cl      1  UNL1       -0.0809
@<TRIPOS>BOND
     1     1     2    1
     2     2     3   ar
     3     3    33    1
     4    33    35    1
     5    35    36   ar
     6    36    37    1
     7    36    38   ar
     8    38    39   ar
     9    39    40   ar
    10    40    41   ar
    11    41    42    1
    12     3     4   ar
    13     4     5   ar
    14     5     6   ar
    15     6     7   ar
    16     7    16    1
    17    16    17    2
    18    16    18   am
    19    18    20    1
    20    20    21   ar
    21    21    22   ar
    22    22    23    1
    23    22    24   ar
    24    24    25   ar
    25    25    29    1
    26    29    30    1
    27    29    31    1
    28    29    32    1
    29    25    26   ar
    30     7     8   ar
    31     8     9   ar
    32     9    10   ar
    33     9    11    1
    34    11    12    1
    35    12    13    1
    36    12    14    1
    37    12    15    1
    38    10     2   ar
    39    41    35   ar
    40    10     5   ar
    41    26    20   ar
    42    15     8    1
    43    33    34    1
    44    18    19    1
    45    23    27    1
    46    23    28    1
@<TRIPOS>MOLECULE
*****
 42 46 0 0 0
SMALL
GASTEIGER

@<TRIPOS>ATOM
      1 C          -9.2913  -10.4190   32.9499 C.3     1  UNL1        0.1332
      2 N          -9.4781  -11.4499   31.9287 N.ar    1  UNL1       -0.2977
      3 C         -10.5457  -12.2798   31.7459 C.ar    1  UNL1        0.2018
      4 N         -10.3850  -13.1629   30.7270 N.ar    1  UNL1       -0.2135
      5 C          -9.1765  -12.8405   30.2352 C.ar    1  UNL1        0.0999
      6 C          -8.5294  -13.4177   29.1349 C.ar    1  UNL1        0.0282
      7 C          -7.2767  -12.8880   28.7346 C.ar    1  UNL1        0.0888
      8 C          -6.7337  -11.8202   29.4904 C.ar    1  UNL1        0.1401
      9 C          -7.3857  -11.2824   30.5766 C.ar    1  UNL1        0.0327
     10 C          -8.6292  -11.8048   30.9451 C.ar    1  UNL1        0.0789
     11 C          -6.5678  -10.1892   31.1711 C.3     1  UNL1        0.0709
     12 C          -5.3298  -10.1297   30.2174 C.3     1  UNL1        0.1375
     13 C          -4.0188  -10.3641   30.9795 C.3     1  UNL1        0.0439
     14 C          -5.2767   -8.7967   29.4585 C.3     1  UNL1        0.0439
     15 O          -5.5245  -11.1907   29.2807 O.3     1  UNL1       -0.4824
     16 C          -6.5697  -13.4606   27.5698 C.2     1  UNL1        0.2525
     17 O          -5.5253  -12.8907   27.1521 O.2     1  UNL1       -0.2697
     18 N          -7.0588  -14.6474   26.9184 N.am    1  UNL1       -0.2803
     19 H          -7.9432  -15.0828   27.2614 H       1  UNL1        0.1552
     20 C          -6.4473  -15.2383   25.7599 C.ar    1  UNL1        0.0517
     21 C          -5.3104  -16.0563   25.8688 C.ar    1  UNL1        0.0287
     22 C          -4.7368  -16.6292   24.7262 C.ar    1  UNL1        0.0427
     23 N          -3.5670  -17.4440   24.8418 N.pl3   1  UNL1       -0.3570
     24 C          -5.3160  -16.4038   23.4705 C.ar    1  UNL1        0.0180
     25 C          -6.4846  -15.6330   23.3510 C.ar    1  UNL1        0.0739
     26 C          -7.0340  -15.0420   24.5017 C.ar    1  UNL1        0.0186
     27 H          -3.1264  -17.6188   25.7725 H       1  UNL1        0.1424
     28 H          -3.1319  -17.8784   23.9974 H       1  UNL1        0.1424
     29 C          -7.0853  -15.3623   21.9940 C.3     1  UNL1        0.4187
     30 F          -7.5122  -16.5543   21.4398 F       1  UNL1       -0.1659
     31 F          -6.1514  -14.7825   21.1526 F       1  UNL1       -0.1659
     32 F          -8.1644  -14.5017   22.0993 F       1  UNL1       -0.1659
     33 N         -11.7550  -12.2366   32.5170 N.pl3   1  UNL1       -0.2814
     34 H         -12.1217  -11.2965   32.7874 H       1  UNL1        0.1551
     35 C         -12.4608  -13.3965   32.9874 C.ar    1  UNL1        0.0889
     36 C         -13.6562  -13.7672   32.3485 C.ar    1  UNL1        0.1543
     37 F         -14.1211  -13.0457   31.2975 F       1  UNL1       -0.2028
     38 C         -14.3629  -14.8967   32.7698 C.ar    1  UNL1        0.0310
     39 C         -13.8937  -15.6570   33.8417 C.ar    1  UNL1        0.0033
     40 C         -12.7233  -15.2831   34.5045 C.ar    1  UNL1        0.0128
     41 C         -12.0058  -14.1532   34.0929 C.ar    1  UNL1        0.0733
     42 CL        -10.5946  -13.6842   35.0347 Cl      1  UNL1       -0.0809
@<TRIPOS>BOND
     1     1     2    1
     2     2     3   ar
     3     3    33    1
     4    33    35    1
     5    35    36   ar
     6    36    37    1
     7    36    38   ar
     8    38    39   ar
     9    39    40   ar
    10    40    41   ar
    11    41    42    1
    12     3     4   ar
    13     4     5   ar
    14     5     6   ar
    15     6     7   ar
    16     7    16    1
    17    16    17    2
    18    16    18   am
    19    18    20    1
    20    20    21   ar
    21    21    22   ar
    22    22    23    1
    23    22    24   ar
    24    24    25   ar
    25    25    29    1
    26    29    30    1
    27    29    31    1
    28    29    32    1
    29    25    26   ar
    30     7     8   ar
    31     8     9   ar
    32     9    10   ar
    33     9    11    1
    34    11    12    1
    35    12    13    1
    36    12    14    1
    37    12    15    1
    38    10     2   ar
    39    41    35   ar
    40    10     5   ar
    41    26    20   ar
    42    15     8    1
    43    33    34    1
    44    18    19    1
    45    23    27    1
    46    23    28    1
@<TRIPOS>MOLECULE
*****
 42 46 0 0 0
SMALL
GASTEIGER

@<TRIPOS>ATOM
      1 C         -12.1998   -9.4791   33.1659 C.3     1  UNL1        0.1332
      2 N         -11.2689   -9.7008   32.0592 N.ar    1  UNL1       -0.2977
      3 C         -10.4990   -8.7860   31.4016 C.ar    1  UNL1        0.2018
      4 N          -9.7730   -9.3127   30.3821 N.ar    1  UNL1       -0.2135
      5 C         -10.0821  -10.6196   30.4343 C.ar    1  UNL1        0.0999
      6 C          -9.5740  -11.6422   29.6228 C.ar    1  UNL1        0.0282
      7 C          -9.9820  -12.9751   29.8820 C.ar    1  UNL1        0.0888
      8 C         -10.9067  -13.1954   30.9321 C.ar    1  UNL1        0.1401
      9 C         -11.4008  -12.1687   31.7041 C.ar    1  UNL1        0.0327
     10 C         -10.9724  -10.8630   31.4464 C.ar    1  UNL1        0.0789
     11 C         -12.3562  -12.7047   32.7128 C.3     1  UNL1        0.0709
     12 C         -12.3100  -14.2447   32.4444 C.3     1  UNL1        0.1375
     13 C         -13.6976  -14.7982   32.0942 C.3     1  UNL1        0.0439
     14 C         -11.7194  -15.0000   33.6429 C.3     1  UNL1        0.0439
     15 O         -11.4431  -14.4054   31.3203 O.3     1  UNL1       -0.4824
     16 C          -9.4568  -14.0831   29.0570 C.2     1  UNL1        0.2525
     17 O          -9.7390  -15.2688   29.3804 O.2     1  UNL1       -0.2697
     18 N          -8.6368  -13.8213   27.9033 N.am    1  UNL1       -0.2803
     19 H          -8.3893  -12.8335   27.6741 H       1  UNL1        0.1552
     20 C          -8.0601  -14.8466   27.0777 C.ar    1  UNL1        0.0517
     21 C          -6.6772  -15.0935   27.0755 C.ar    1  UNL1        0.0287
     22 C          -6.1386  -16.1046   26.2692 C.ar    1  UNL1        0.0427
     23 N          -4.7273  -16.3369   26.2559 N.pl3   1  UNL1       -0.3570
     24 C          -6.9884  -16.8898   25.4789 C.ar    1  UNL1        0.0180
     25 C          -8.3790  -16.6917   25.5112 C.ar    1  UNL1        0.0739
     26 C          -8.9035  -15.6563   26.3037 C.ar    1  UNL1        0.0186
     27 H          -4.0842  -15.7579   26.8405 H       1  UNL1        0.1424
     28 H          -4.3146  -17.0895   25.6607 H       1  UNL1        0.1424
     29 C          -9.2880  -17.5143   24.6323 C.3     1  UNL1        0.4187
     30 F          -9.8207  -18.5519   25.3740 F       1  UNL1       -0.1659
     31 F          -8.5876  -18.0394   23.5600 F       1  UNL1       -0.1659
     32 F         -10.3211  -16.7388   24.1349 F       1  UNL1       -0.1659
     33 N         -10.4135   -7.3948   31.7424 N.pl3   1  UNL1       -0.2814
     34 H         -11.1763   -6.9950   32.3338 H       1  UNL1        0.1551
     35 C          -9.3831   -6.5065   31.2798 C.ar    1  UNL1        0.0889
     36 C          -9.7056   -5.5419   30.3103 C.ar    1  UNL1        0.1543
     37 F         -10.9733   -5.4480   29.8355 F       1  UNL1       -0.2028
     38 C          -8.7330   -4.6523   29.8462 C.ar    1  UNL1        0.0310
     39 C          -7.4269   -4.7269   30.3317 C.ar    1  UNL1        0.0033
     40 C          -7.0856   -5.6997   31.2730 C.ar    1  UNL1        0.0128
     41 C          -8.0504   -6.5976   31.7460 C.ar    1  UNL1        0.0733
     42 CL         -7.5285   -7.8594   32.8569 Cl      1  UNL1       -0.0809
@<TRIPOS>BOND
     1     1     2    1
     2     2     3   ar
     3     3    33    1
     4    33    35    1
     5    35    36   ar
     6    36    37    1
     7    36    38   ar
     8    38    39   ar
     9    39    40   ar
    10    40    41   ar
    11    41    42    1
    12     3     4   ar
    13     4     5   ar
    14     5     6   ar
    15     6     7   ar
    16     7    16    1
    17    16    17    2
    18    16    18   am
    19    18    20    1
    20    20    21   ar
    21    21    22   ar
    22    22    23    1
    23    22    24   ar
    24    24    25   ar
    25    25    29    1
    26    29    30    1
    27    29    31    1
    28    29    32    1
    29    25    26   ar
    30     7     8   ar
    31     8     9   ar
    32     9    10   ar
    33     9    11    1
    34    11    12    1
    35    12    13    1
    36    12    14    1
    37    12    15    1
    38    10     2   ar
    39    41    35   ar
    40    10     5   ar
    41    26    20   ar
    42    15     8    1
    43    33    34    1
    44    18    19    1
    45    23    27    1
    46    23    28    1
@<TRIPOS>MOLECULE
*****
 42 46 0 0 0
SMALL
GASTEIGER

@<TRIPOS>ATOM
      1 C          -9.3060  -10.0508   34.0865 C.3     1  UNL1        0.1332
      2 N          -8.5091  -10.3306   32.8918 N.ar    1  UNL1       -0.2977
      3 C          -7.3161   -9.7825   32.5199 C.ar    1  UNL1        0.2018
      4 N          -6.8590  -10.2270   31.3210 N.ar    1  UNL1       -0.2135
      5 C          -7.7958  -11.1170   30.9513 C.ar    1  UNL1        0.0999
      6 C          -7.7998  -11.9111   29.7973 C.ar    1  UNL1        0.0282
      7 C          -8.8558  -12.8405   29.6213 C.ar    1  UNL1        0.0888
      8 C          -9.8672  -12.8936   30.6114 C.ar    1  UNL1        0.1401
      9 C          -9.8452  -12.0902   31.7287 C.ar    1  UNL1        0.0327
     10 C          -8.7857  -11.1931   31.8950 C.ar    1  UNL1        0.0789
     11 C         -11.0397  -12.3626   32.5751 C.3     1  UNL1        0.0709
     12 C         -11.7588  -13.5108   31.7939 C.3     1  UNL1        0.1375
     13 C         -13.1890  -13.1167   31.4019 C.3     1  UNL1        0.0439
     14 C         -11.7660  -14.8142   32.6043 C.3     1  UNL1        0.0439
     15 O         -10.9836  -13.7037   30.6095 O.3     1  UNL1       -0.4824
     16 C          -8.8874  -13.7062   28.4238 C.2     1  UNL1        0.2525
     17 O         -10.0047  -14.0471   27.9491 O.2     1  UNL1       -0.2697
     18 N          -7.6682  -14.1566   27.8050 N.am    1  UNL1       -0.2803
     19 H          -6.7556  -13.8887   28.2349 H       1  UNL1        0.1552
     20 C          -7.6207  -15.0292   26.6641 C.ar    1  UNL1        0.0517
     21 C          -6.5652  -14.9684   25.7391 C.ar    1  UNL1        0.0287
     22 C          -6.5353  -15.8355   24.6391 C.ar    1  UNL1        0.0427
     23 N          -5.4687  -15.7542   23.6897 N.pl3   1  UNL1       -0.3570
     24 C          -7.5523  -16.7852   24.4752 C.ar    1  UNL1        0.0180
     25 C          -8.5858  -16.8954   25.4207 C.ar    1  UNL1        0.0739
     26 C          -8.6183  -16.0015   26.5047 C.ar    1  UNL1        0.0186
     27 H          -4.7054  -15.0502   23.8014 H       1  UNL1        0.1424
     28 H          -5.4344  -16.3970   22.8671 H       1  UNL1        0.1424
     29 C          -9.6986  -17.8943   25.2226 C.3     1  UNL1        0.4187
     30 F         -10.7207  -17.3002   24.5066 F       1  UNL1       -0.1659
     31 F         -10.1927  -18.3242   26.4422 F       1  UNL1       -0.1659
     32 F          -9.2445  -19.0013   24.5266 F       1  UNL1       -0.1659
     33 N          -6.5682   -8.8438   33.3062 N.pl3   1  UNL1       -0.2814
     34 H          -6.7210   -8.8499   34.3397 H       1  UNL1        0.1551
     35 C          -5.6696   -7.8627   32.7633 C.ar    1  UNL1        0.0889
     36 C          -4.4642   -7.6021   33.4367 C.ar    1  UNL1        0.1543
     37 F          -4.1552   -8.2798   34.5710 F       1  UNL1       -0.2028
     38 C          -3.5597   -6.6644   32.9316 C.ar    1  UNL1        0.0310
     39 C          -3.8557   -5.9663   31.7602 C.ar    1  UNL1        0.0033
     40 C          -5.0630   -6.1937   31.0971 C.ar    1  UNL1        0.0128
     41 C          -5.9784   -7.1302   31.5929 C.ar    1  UNL1        0.0733
     42 CL         -7.5216   -7.2946   30.7621 Cl      1  UNL1       -0.0809
@<TRIPOS>BOND
     1     1     2    1
     2     2     3   ar
     3     3    33    1
     4    33    35    1
     5    35    36   ar
     6    36    37    1
     7    36    38   ar
     8    38    39   ar
     9    39    40   ar
    10    40    41   ar
    11    41    42    1
    12     3     4   ar
    13     4     5   ar
    14     5     6   ar
    15     6     7   ar
    16     7    16    1
    17    16    17    2
    18    16    18   am
    19    18    20    1
    20    20    21   ar
    21    21    22   ar
    22    22    23    1
    23    22    24   ar
    24    24    25   ar
    25    25    29    1
    26    29    30    1
    27    29    31    1
    28    29    32    1
    29    25    26   ar
    30     7     8   ar
    31     8     9   ar
    32     9    10   ar
    33     9    11    1
    34    11    12    1
    35    12    13    1
    36    12    14    1
    37    12    15    1
    38    10     2   ar
    39    41    35   ar
    40    10     5   ar
    41    26    20   ar
    42    15     8    1
    43    33    34    1
    44    18    19    1
    45    23    27    1
    46    23    28    1
