@<TRIPOS>MOLECULE
*****
 53 58 0 0 0
SMALL
GASTEIGER

@<TRIPOS>ATOM
      1 C          59.4479   85.4222   10.2241 C.ar    1  UNL1        0.0811
      2 C          58.9124   85.0569    8.9807 C.ar    1  UNL1        0.0080
      3 C          59.0313   85.9053    7.8813 C.ar    1  UNL1        0.0150
      4 C          59.6767   87.1429    8.0023 C.ar    1  UNL1        0.0564
      5 C          60.2052   87.5370    9.2523 C.ar    1  UNL1        0.1162
      6 C          60.0832   86.6727   10.3586 C.ar    1  UNL1        0.1518
      7 F          60.5826   87.0508   11.5629 F       1  UNL1       -0.2038
      8 N          59.7435   88.0180    6.8635 N.pl3   1  UNL1       -0.3038
      9 C          58.4965   88.5091    6.2703 C.3     1  UNL1        0.1123
     10 C          58.7022   89.9038    5.6746 C.3     1  UNL1        0.1136
     11 N          59.9270   89.9400    4.8625 N.pl3   1  UNL1       -0.2897
     12 C          61.1687   89.4394    5.4667 C.3     1  UNL1        0.1136
     13 C          60.9530   88.0387    6.0372 C.3     1  UNL1        0.1123
     14 C          59.9873   90.6978    3.6370 C.ar    1  UNL1        0.1318
     15 C          61.2135   90.9810    3.0134 C.ar    1  UNL1        0.0343
     16 C          61.2301   91.7152    1.8265 C.ar    1  UNL1        0.0083
     17 C          60.0313   92.1814    1.2668 C.ar    1  UNL1        0.0906
     18 C          58.8254   91.8478    1.9022 C.ar    1  UNL1        0.1041
     19 N          58.8339   91.1303    3.0566 N.ar    1  UNL1       -0.2292
     20 C          60.0318   92.9311   -0.0410 C.3     1  UNL1        0.4200
     21 F          58.8451   93.6240   -0.2068 F       1  UNL1       -0.1658
     22 F          60.1780   92.0323   -1.0809 F       1  UNL1       -0.1658
     23 F          61.0740   93.8412   -0.0812 F       1  UNL1       -0.1658
     24 O          58.2640   83.8332   11.5224 O.2     1  UNL1       -0.2701
     25 C          59.3309   84.4887   11.3679 C.2     1  UNL1        0.2483
     26 N          60.4304   84.2887   12.2712 N.am    1  UNL1       -0.2945
     27 H          61.3748   84.6110   11.9642 H       1  UNL1        0.1501
     28 C          60.3435   83.3758   13.4173 C.3     1  UNL1        0.1535
     29 C          60.1445   81.9565   12.9496 C.2     1  UNL1        0.2443
     30 O          61.1446   81.2041   12.7885 O.2     1  UNL1       -0.2730
     31 N          58.8140   81.4437   12.7781 N.am    1  UNL1       -0.2825
     32 H          58.0245   81.9925   13.1881 H       1  UNL1        0.1549
     33 C          58.5135   80.1675   12.1888 C.ar    1  UNL1        0.0535
     34 C          58.0403   80.1115   10.8707 C.ar    1  UNL1        0.0353
     35 C          57.7671   78.8726   10.2862 C.ar    1  UNL1        0.1002
     36 N          57.9754   77.7269   10.9873 N.ar    1  UNL1       -0.2422
     37 C          58.4521   77.7480   12.2600 C.ar    1  UNL1        0.1002
     38 C          58.7373   78.9660   12.8825 C.ar    1  UNL1        0.0353
     39 C          61.5775   83.5075   14.3342 C.3     1  UNL1        0.0569
     40 C          61.6438   84.8193   15.0697 C.ar    1  UNL1       -0.0017
     41 C          61.1969   85.0670   16.3650 C.ar    1  UNL1        0.0681
     42 N          61.4618   86.3448   16.7205 N.ar    1  UNL1       -0.3523
     43 C          62.0720   86.9061   15.6625 C.ar    1  UNL1        0.0563
     44 C          62.5472   88.2127   15.5569 C.ar    1  UNL1        0.0170
     45 C          63.1675   88.5916   14.3523 C.ar    1  UNL1        0.0015
     46 C          63.2950   87.6678   13.2915 C.ar    1  UNL1        0.0001
     47 C          62.8037   86.3568   13.4257 C.ar    1  UNL1        0.0012
     48 C          62.1990   86.0077   14.6338 C.ar    1  UNL1        0.0131
     49 H          61.2420   86.7970   17.6356 H       1  UNL1        0.1660
     50 C          60.9204   88.8258    9.3997 C.2     1  UNL1        0.3415
     51 O          60.3709   89.7834   10.0056 O.2     1  UNL1       -0.2450
     52 O          62.2017   89.0019    8.8820 O.3     1  UNL1       -0.4770
     53 H          62.7170   88.2370    8.4644 H       1  UNL1        0.2954
@<TRIPOS>BOND
     1    24    25    2
     2    25    26   am
     3    26    28    1
     4    28    39    1
     5    39    40    1
     6    40    41   ar
     7    41    42   ar
     8    42    43   ar
     9    43    44   ar
    10    44    45   ar
    11    45    46   ar
    12    46    47   ar
    13    47    48   ar
    14    28    29    1
    15    29    30    2
    16    29    31   am
    17    31    33    1
    18    33    34   ar
    19    34    35   ar
    20    35    36   ar
    21    36    37   ar
    22    37    38   ar
    23    25     1    1
    24     1     2   ar
    25     2     3   ar
    26     3     4   ar
    27     4     8    1
    28     8     9    1
    29     9    10    1
    30    10    11    1
    31    11    14    1
    32    14    15   ar
    33    15    16   ar
    34    16    17   ar
    35    17    20    1
    36    20    21    1
    37    20    22    1
    38    20    23    1
    39    17    18   ar
    40    18    19   ar
    41    11    12    1
    42    12    13    1
    43     4     5   ar
    44     5    50    1
    45    50    51    2
    46    50    52    1
    47     5     6   ar
    48     6     7    1
    49    48    40   ar
    50    38    33   ar
    51     6     1   ar
    52    48    43   ar
    53    13     8    1
    54    19    14   ar
    55    26    27    1
    56    42    49    1
    57    31    32    1
    58    52    53    1
@<TRIPOS>MOLECULE
*****
 53 58 0 0 0
SMALL
GASTEIGER

@<TRIPOS>ATOM
      1 C          59.0902   85.4585   10.0610 C.ar    1  UNL1        0.0811
      2 C          58.5625   85.1499    8.7990 C.ar    1  UNL1        0.0080
      3 C          58.7728   86.0013    7.7157 C.ar    1  UNL1        0.0150
      4 C          59.5041   87.1860    7.8715 C.ar    1  UNL1        0.0564
      5 C          60.0267   87.5238    9.1403 C.ar    1  UNL1        0.1162
      6 C          59.8120   86.6567   10.2302 C.ar    1  UNL1        0.1518
      7 F          60.3057   86.9812   11.4524 F       1  UNL1       -0.2038
      8 N          59.6653   88.0684    6.7479 N.pl3   1  UNL1       -0.3038
      9 C          58.4802   88.7109    6.1728 C.3     1  UNL1        0.1123
     10 C          58.8424   90.0833    5.6003 C.3     1  UNL1        0.1136
     11 N          60.0588   89.9930    4.7799 N.pl3   1  UNL1       -0.2897
     12 C          61.2376   89.3415    5.3658 C.3     1  UNL1        0.1136
     13 C          60.8647   87.9647    5.9131 C.3     1  UNL1        0.1123
     14 C          60.1996   90.7612    3.5675 C.ar    1  UNL1        0.1318
     15 C          61.4483   90.9192    2.9443 C.ar    1  UNL1        0.0343
     16 C          61.5432   91.6681    1.7704 C.ar    1  UNL1        0.0083
     17 C          60.4018   92.2729    1.2234 C.ar    1  UNL1        0.0906
     18 C          59.1677   92.0624    1.8575 C.ar    1  UNL1        0.1041
     19 N          59.0995   91.3278    2.9991 N.ar    1  UNL1       -0.2292
     20 C          60.4821   93.0410   -0.0711 C.3     1  UNL1        0.4200
     21 F          59.3685   93.8476   -0.2299 F       1  UNL1       -0.1658
     22 F          60.5474   92.1501   -1.1259 F       1  UNL1       -0.1658
     23 F          61.6072   93.8472   -0.0910 F       1  UNL1       -0.1658
     24 O          57.8732   83.7539   11.1681 O.2     1  UNL1       -0.2701
     25 C          58.8744   84.5215   11.1874 C.2     1  UNL1        0.2483
     26 N          59.8130   84.4457   12.2729 N.am    1  UNL1       -0.2945
     27 H          60.7567   84.8682   12.1282 H       1  UNL1        0.1501
     28 C          59.6240   83.5325   13.4064 C.3     1  UNL1        0.1535
     29 C          58.8779   82.2967   12.9718 C.2     1  UNL1        0.2443
     30 O          57.7966   81.9847   13.5426 O.2     1  UNL1       -0.2730
     31 N          59.3550   81.5343   11.8521 N.am    1  UNL1       -0.2825
     32 H          60.0765   81.9737   11.2363 H       1  UNL1        0.1549
     33 C          58.8155   80.2620   11.4567 C.ar    1  UNL1        0.0535
     34 C          58.9540   79.1594   12.3109 C.ar    1  UNL1        0.0353
     35 C          58.4129   77.9259   11.9410 C.ar    1  UNL1        0.1002
     36 N          57.7411   77.8007   10.7661 N.ar    1  UNL1       -0.2422
     37 C          57.5732   78.8561    9.9262 C.ar    1  UNL1        0.1002
     38 C          58.0995   80.1073   10.2574 C.ar    1  UNL1        0.0353
     39 C          60.9699   83.1820   14.0746 C.3     1  UNL1        0.0569
     40 C          61.8436   82.2877   13.2362 C.ar    1  UNL1       -0.0017
     41 C          62.1912   80.9688   13.5167 C.ar    1  UNL1        0.0681
     42 N          62.9484   80.4570   12.5197 N.ar    1  UNL1       -0.3523
     43 C          63.0820   81.4397   11.6123 C.ar    1  UNL1        0.0563
     44 C          63.7706   81.3831   10.4013 C.ar    1  UNL1        0.0170
     45 C          63.7746   82.5341    9.5924 C.ar    1  UNL1        0.0015
     46 C          63.1004   83.7035   10.0085 C.ar    1  UNL1        0.0001
     47 C          62.4160   83.7323   11.2368 C.ar    1  UNL1        0.0012
     48 C          62.4241   82.5740   12.0149 C.ar    1  UNL1        0.0131
     49 H          63.3410   79.4909   12.4663 H       1  UNL1        0.1660
     50 C          60.8306   88.7541    9.3251 C.2     1  UNL1        0.3415
     51 O          61.9535   88.8608    8.7649 O.2     1  UNL1       -0.2450
     52 O          60.3654   89.8077   10.1088 O.3     1  UNL1       -0.4770
     53 H          59.4346   89.8044   10.5073 H       1  UNL1        0.2954
@<TRIPOS>BOND
     1    24    25    2
     2    25    26   am
     3    26    28    1
     4    28    39    1
     5    39    40    1
     6    40    41   ar
     7    41    42   ar
     8    42    43   ar
     9    43    44   ar
    10    44    45   ar
    11    45    46   ar
    12    46    47   ar
    13    47    48   ar
    14    28    29    1
    15    29    30    2
    16    29    31   am
    17    31    33    1
    18    33    34   ar
    19    34    35   ar
    20    35    36   ar
    21    36    37   ar
    22    37    38   ar
    23    25     1    1
    24     1     2   ar
    25     2     3   ar
    26     3     4   ar
    27     4     8    1
    28     8     9    1
    29     9    10    1
    30    10    11    1
    31    11    14    1
    32    14    15   ar
    33    15    16   ar
    34    16    17   ar
    35    17    20    1
    36    20    21    1
    37    20    22    1
    38    20    23    1
    39    17    18   ar
    40    18    19   ar
    41    11    12    1
    42    12    13    1
    43     4     5   ar
    44     5    50    1
    45    50    51    2
    46    50    52    1
    47     5     6   ar
    48     6     7    1
    49    48    40   ar
    50    38    33   ar
    51     6     1   ar
    52    48    43   ar
    53    13     8    1
    54    19    14   ar
    55    26    27    1
    56    42    49    1
    57    31    32    1
    58    52    53    1
@<TRIPOS>MOLECULE
*****
 53 58 0 0 0
SMALL
GASTEIGER

@<TRIPOS>ATOM
      1 C          60.2631   86.6415   10.9700 C.ar    1  UNL1        0.0811
      2 C          60.7025   87.9615   10.7943 C.ar    1  UNL1        0.0080
      3 C          60.5882   88.5871    9.5540 C.ar    1  UNL1        0.0150
      4 C          60.0440   87.9041    8.4585 C.ar    1  UNL1        0.0564
      5 C          59.6141   86.5667    8.6113 C.ar    1  UNL1        0.1162
      6 C          59.7306   85.9418    9.8690 C.ar    1  UNL1        0.1518
      7 F          59.3260   84.6546   10.0180 F       1  UNL1       -0.2038
      8 N          59.9815   88.5582    7.1797 N.pl3   1  UNL1       -0.3038
      9 C          58.6749   88.7575    6.5463 C.3     1  UNL1        0.1123
     10 C          58.6797   90.0354    5.7041 C.3     1  UNL1        0.1136
     11 N          59.8832   90.0910    4.8618 N.pl3   1  UNL1       -0.2897
     12 C          61.1858   89.8838    5.5078 C.3     1  UNL1        0.1136
     13 C          61.1719   88.5940    6.3267 C.3     1  UNL1        0.1123
     14 C          59.8303   90.6143    3.5190 C.ar    1  UNL1        0.1318
     15 C          60.9892   90.7283    2.7337 C.ar    1  UNL1        0.0343
     16 C          60.8964   91.2372    1.4374 C.ar    1  UNL1        0.0083
     17 C          59.6563   91.6471    0.9259 C.ar    1  UNL1        0.0906
     18 C          58.5175   91.4848    1.7298 C.ar    1  UNL1        0.1041
     19 N          58.6321   90.9854    2.9888 N.ar    1  UNL1       -0.2292
     20 C          59.5349   92.1503   -0.4899 C.3     1  UNL1        0.4200
     21 F          58.7707   91.2836   -1.2520 F       1  UNL1       -0.1658
     22 F          60.7958   92.2487   -1.0477 F       1  UNL1       -0.1658
     23 F          58.9318   93.3959   -0.5149 F       1  UNL1       -0.1658
     24 O          59.6374   86.4259   13.2446 O.2     1  UNL1       -0.2701
     25 C          60.3716   86.0116   12.3060 C.2     1  UNL1        0.2483
     26 N          61.2660   84.9096   12.5305 N.am    1  UNL1       -0.2945
     27 H          61.6377   84.4085   11.6933 H       1  UNL1        0.1501
     28 C          61.4010   84.2684   13.8440 C.3     1  UNL1        0.1535
     29 C          61.1796   82.7814   13.7324 C.2     1  UNL1        0.2443
     30 O          61.7611   81.9996   14.5342 O.2     1  UNL1       -0.2730
     31 N          60.2391   82.2719   12.7739 N.am    1  UNL1       -0.2825
     32 H          59.5773   82.9507   12.3335 H       1  UNL1        0.1549
     33 C          60.0702   80.8758   12.4764 C.ar    1  UNL1        0.0535
     34 C          58.8229   80.2724   12.6876 C.ar    1  UNL1        0.0353
     35 C          58.6475   78.9211   12.3801 C.ar    1  UNL1        0.1002
     36 N          59.6773   78.2001   11.8630 N.ar    1  UNL1       -0.2422
     37 C          60.8925   78.7621   11.6286 C.ar    1  UNL1        0.1002
     38 C          61.1108   80.1104   11.9231 C.ar    1  UNL1        0.0353
     39 C          62.7629   84.5963   14.4909 C.3     1  UNL1        0.0569
     40 C          62.8055   85.9481   15.1520 C.ar    1  UNL1       -0.0017
     41 C          62.5546   86.2230   16.4937 C.ar    1  UNL1        0.0681
     42 N          62.7327   87.5394   16.7481 N.ar    1  UNL1       -0.3523
     43 C          63.0941   88.0982   15.5803 C.ar    1  UNL1        0.0563
     44 C          63.3989   89.4380   15.3437 C.ar    1  UNL1        0.0170
     45 C          63.7659   89.8083   14.0370 C.ar    1  UNL1        0.0015
     46 C          63.8169   88.8428   13.0072 C.ar    1  UNL1        0.0001
     47 C          63.5015   87.4986   13.2748 C.ar    1  UNL1        0.0012
     48 C          63.1470   87.1598   14.5812 C.ar    1  UNL1        0.0131
     49 H          62.6190   88.0187   17.6688 H       1  UNL1        0.1660
     50 C          59.0055   85.8327    7.4776 C.2     1  UNL1        0.3415
     51 O          59.7239   85.4595    6.5128 O.2     1  UNL1       -0.2450
     52 O          57.6439   85.5392    7.4573 O.3     1  UNL1       -0.4770
     53 H          57.0437   85.7416    8.2473 H       1  UNL1        0.2954
@<TRIPOS>BOND
     1    24    25    2
     2    25    26   am
     3    26    28    1
     4    28    39    1
     5    39    40    1
     6    40    41   ar
     7    41    42   ar
     8    42    43   ar
     9    43    44   ar
    10    44    45   ar
    11    45    46   ar
    12    46    47   ar
    13    47    48   ar
    14    28    29    1
    15    29    30    2
    16    29    31   am
    17    31    33    1
    18    33    34   ar
    19    34    35   ar
    20    35    36   ar
    21    36    37   ar
    22    37    38   ar
    23    25     1    1
    24     1     2   ar
    25     2     3   ar
    26     3     4   ar
    27     4     8    1
    28     8     9    1
    29     9    10    1
    30    10    11    1
    31    11    14    1
    32    14    15   ar
    33    15    16   ar
    34    16    17   ar
    35    17    20    1
    36    20    21    1
    37    20    22    1
    38    20    23    1
    39    17    18   ar
    40    18    19   ar
    41    11    12    1
    42    12    13    1
    43     4     5   ar
    44     5    50    1
    45    50    51    2
    46    50    52    1
    47     5     6   ar
    48     6     7    1
    49    48    40   ar
    50    38    33   ar
    51     6     1   ar
    52    48    43   ar
    53    13     8    1
    54    19    14   ar
    55    26    27    1
    56    42    49    1
    57    31    32    1
    58    52    53    1
@<TRIPOS>MOLECULE
*****
 53 58 0 0 0
SMALL
GASTEIGER

@<TRIPOS>ATOM
      1 C          60.2531   84.8059   11.4587 C.ar    1  UNL1        0.0811
      2 C          59.9682   86.1735   11.5811 C.ar    1  UNL1        0.0080
      3 C          59.9341   86.9936   10.4547 C.ar    1  UNL1        0.0150
      4 C          60.1962   86.4688    9.1824 C.ar    1  UNL1        0.0564
      5 C          60.5049   85.0970    9.0416 C.ar    1  UNL1        0.1162
      6 C          60.5349   84.2736   10.1849 C.ar    1  UNL1        0.1518
      7 F          60.8386   82.9569   10.0550 F       1  UNL1       -0.2038
      8 N          60.2004   87.3471    8.0442 N.pl3   1  UNL1       -0.3038
      9 C          59.2311   87.1210    6.9683 C.3     1  UNL1        0.1123
     10 C          58.8452   88.4479    6.3104 C.3     1  UNL1        0.1136
     11 N          60.0456   89.2441    6.0171 N.pl3   1  UNL1       -0.2897
     12 C          61.0118   89.4583    7.1023 C.3     1  UNL1        0.1136
     13 C          61.4033   88.1235    7.7342 C.3     1  UNL1        0.1123
     14 C          60.1426   90.0313    4.8126 C.ar    1  UNL1        0.1318
     15 C          59.0287   90.7106    4.2927 C.ar    1  UNL1        0.0343
     16 C          59.1637   91.4646    3.1260 C.ar    1  UNL1        0.0083
     17 C          60.4000   91.5318    2.4668 C.ar    1  UNL1        0.0906
     18 C          61.4962   90.8668    3.0373 C.ar    1  UNL1        0.1041
     19 N          61.3411   90.1398    4.1753 N.ar    1  UNL1       -0.2292
     20 C          60.5712   92.3836    1.2349 C.3     1  UNL1        0.4200
     21 F          61.4380   93.4336    1.4842 F       1  UNL1       -0.1658
     22 F          59.3424   92.8931    0.8594 F       1  UNL1       -0.1658
     23 F          61.0871   91.6344    0.1916 F       1  UNL1       -0.1658
     24 O          59.1871   83.8119   13.3262 O.2     1  UNL1       -0.2701
     25 C          60.2551   83.9532   12.6696 C.2     1  UNL1        0.2483
     26 N          61.4424   83.2527   13.0754 N.am    1  UNL1       -0.2945
     27 H          62.2105   83.1544   12.3751 H       1  UNL1        0.1501
     28 C          61.4782   82.4055   14.2735 C.3     1  UNL1        0.1535
     29 C          60.9175   81.0389   13.9725 C.2     1  UNL1        0.2443
     30 O          61.5062   80.0107   14.4068 O.2     1  UNL1       -0.2730
     31 N          59.6696   80.9203   13.2716 N.am    1  UNL1       -0.2825
     32 H          59.0787   81.7779   13.1817 H       1  UNL1        0.1549
     33 C          59.1287   79.6760   12.7968 C.ar    1  UNL1        0.0535
     34 C          58.6757   79.5818   11.4738 C.ar    1  UNL1        0.0353
     35 C          58.1690   78.3690   11.0011 C.ar    1  UNL1        0.1002
     36 N          58.1313   77.2817   11.8159 N.ar    1  UNL1       -0.2422
     37 C          58.5814   77.3366   13.0973 C.ar    1  UNL1        0.1002
     38 C          59.0951   78.5305   13.6102 C.ar    1  UNL1        0.0353
     39 C          62.9033   82.3221   14.8590 C.3     1  UNL1        0.0569
     40 C          63.6242   83.6435   14.8794 C.ar    1  UNL1       -0.0017
     41 C          64.9609   83.8637   14.5574 C.ar    1  UNL1        0.0681
     42 N          65.2559   85.1812   14.6374 N.ar    1  UNL1       -0.3523
     43 C          64.1184   85.7951   15.0064 C.ar    1  UNL1        0.0563
     44 C          63.9227   87.1608   15.2074 C.ar    1  UNL1        0.0170
     45 C          62.6381   87.5927   15.5848 C.ar    1  UNL1        0.0015
     46 C          61.5905   86.6604   15.7536 C.ar    1  UNL1        0.0001
     47 C          61.8180   85.2881   15.5465 C.ar    1  UNL1        0.0012
     48 C          63.1004   84.8899   15.1668 C.ar    1  UNL1        0.0131
     49 H          66.1797   85.6275   14.4433 H       1  UNL1        0.1660
     50 C          60.7542   84.5102    7.7045 C.2     1  UNL1        0.3415
     51 O          59.8381   83.8781    7.1152 O.2     1  UNL1       -0.2450
     52 O          61.9902   84.6474    7.0768 O.3     1  UNL1       -0.4770
     53 H          62.7274   85.2185    7.4713 H       1  UNL1        0.2954
@<TRIPOS>BOND
     1    24    25    2
     2    25    26   am
     3    26    28    1
     4    28    39    1
     5    39    40    1
     6    40    41   ar
     7    41    42   ar
     8    42    43   ar
     9    43    44   ar
    10    44    45   ar
    11    45    46   ar
    12    46    47   ar
    13    47    48   ar
    14    28    29    1
    15    29    30    2
    16    29    31   am
    17    31    33    1
    18    33    34   ar
    19    34    35   ar
    20    35    36   ar
    21    36    37   ar
    22    37    38   ar
    23    25     1    1
    24     1     2   ar
    25     2     3   ar
    26     3     4   ar
    27     4     8    1
    28     8     9    1
    29     9    10    1
    30    10    11    1
    31    11    14    1
    32    14    15   ar
    33    15    16   ar
    34    16    17   ar
    35    17    20    1
    36    20    21    1
    37    20    22    1
    38    20    23    1
    39    17    18   ar
    40    18    19   ar
    41    11    12    1
    42    12    13    1
    43     4     5   ar
    44     5    50    1
    45    50    51    2
    46    50    52    1
    47     5     6   ar
    48     6     7    1
    49    48    40   ar
    50    38    33   ar
    51     6     1   ar
    52    48    43   ar
    53    13     8    1
    54    19    14   ar
    55    26    27    1
    56    42    49    1
    57    31    32    1
    58    52    53    1
@<TRIPOS>MOLECULE
*****
 53 58 0 0 0
SMALL
GASTEIGER

@<TRIPOS>ATOM
      1 C          61.1407   87.2684   10.1876 C.ar    1  UNL1        0.0811
      2 C          61.8097   88.4331    9.7851 C.ar    1  UNL1        0.0080
      3 C          61.5189   89.0295    8.5594 C.ar    1  UNL1        0.0150
      4 C          60.5625   88.4690    7.7029 C.ar    1  UNL1        0.0564
      5 C          59.8922   87.2842    8.0825 C.ar    1  UNL1        0.1162
      6 C          60.1899   86.6885    9.3244 C.ar    1  UNL1        0.1518
      7 F          59.5539   85.5461    9.6895 F       1  UNL1       -0.2038
      8 N          60.3166   89.0790    6.4244 N.pl3   1  UNL1       -0.3038
      9 C          58.9432   89.4398    6.0613 C.3     1  UNL1        0.1123
     10 C          58.9375   90.6729    5.1547 C.3     1  UNL1        0.1136
     11 N          59.9312   90.5260    4.0814 N.pl3   1  UNL1       -0.2897
     12 C          61.3024   90.1584    4.4582 C.3     1  UNL1        0.1136
     13 C          61.2927   88.9140    5.3445 C.3     1  UNL1        0.1123
     14 C          59.6637   91.0030    2.7470 C.ar    1  UNL1        0.1318
     15 C          60.7073   91.3069    1.8575 C.ar    1  UNL1        0.0343
     16 C          60.4076   91.7635    0.5731 C.ar    1  UNL1        0.0083
     17 C          59.0728   91.9331    0.1767 C.ar    1  UNL1        0.0906
     18 C          58.0594   91.5858    1.0831 C.ar    1  UNL1        0.1041
     19 N          58.3754   91.1416    2.3282 N.ar    1  UNL1       -0.2292
     20 C          58.7354   92.3765   -1.2240 C.3     1  UNL1        0.4200
     21 F          57.7980   93.3947   -1.2012 F       1  UNL1       -0.1658
     22 F          58.2199   91.3050   -1.9290 F       1  UNL1       -0.1658
     23 F          59.8653   92.8425   -1.8737 F       1  UNL1       -0.1658
     24 O          62.0106   85.5429   11.5580 O.2     1  UNL1       -0.2701
     25 C          61.4503   86.6722   11.5074 C.2     1  UNL1        0.2483
     26 N          61.1627   87.3831   12.7227 N.am    1  UNL1       -0.2945
     27 H          60.9737   88.4074   12.6520 H       1  UNL1        0.1501
     28 C          61.4516   86.8168   14.0458 C.3     1  UNL1        0.1535
     29 C          62.4654   87.6624   14.7736 C.2     1  UNL1        0.2443
     30 O          62.6300   87.5126   16.0157 O.2     1  UNL1       -0.2730
     31 N          63.2997   88.5675   14.0338 N.am    1  UNL1       -0.2825
     32 H          63.3340   88.4586   12.9947 H       1  UNL1        0.1549
     33 C          64.1805   89.5279   14.6405 C.ar    1  UNL1        0.0535
     34 C          65.4196   89.7993   14.0444 C.ar    1  UNL1        0.0353
     35 C          66.2702   90.7473   14.6181 C.ar    1  UNL1        0.1002
     36 N          65.8898   91.4147   15.7395 N.ar    1  UNL1       -0.2422
     37 C          64.6864   91.1878   16.3291 C.ar    1  UNL1        0.1002
     38 C          63.8061   90.2471   15.7883 C.ar    1  UNL1        0.0353
     39 C          60.1611   86.6343   14.8717 C.3     1  UNL1        0.0569
     40 C          58.9896   86.1508   14.0594 C.ar    1  UNL1       -0.0017
     41 C          57.8088   86.8461   13.8120 C.ar    1  UNL1        0.0681
     42 N          56.9979   86.1280   13.0022 N.ar    1  UNL1       -0.3523
     43 C          57.6551   84.9862   12.7356 C.ar    1  UNL1        0.0563
     44 C          57.2247   83.9322   11.9307 C.ar    1  UNL1        0.0170
     45 C          58.0826   82.8274   11.7792 C.ar    1  UNL1        0.0015
     46 C          59.3357   82.7999   12.4303 C.ar    1  UNL1        0.0001
     47 C          59.7424   83.8767   13.2384 C.ar    1  UNL1        0.0012
     48 C          58.8736   84.9613   13.3651 C.ar    1  UNL1        0.0131
     49 H          56.0559   86.4107   12.6514 H       1  UNL1        0.1660
     50 C          58.8536   86.6889    7.2100 C.2     1  UNL1        0.3415
     51 O          59.0682   85.5863    6.6405 O.2     1  UNL1       -0.2450
     52 O          57.6314   87.3257    7.0074 O.3     1  UNL1       -0.4770
     53 H          57.3798   88.1678    7.5103 H       1  UNL1        0.2954
@<TRIPOS>BOND
     1    24    25    2
     2    25    26   am
     3    26    28    1
     4    28    39    1
     5    39    40    1
     6    40    41   ar
     7    41    42   ar
     8    42    43   ar
     9    43    44   ar
    10    44    45   ar
    11    45    46   ar
    12    46    47   ar
    13    47    48   ar
    14    28    29    1
    15    29    30    2
    16    29    31   am
    17    31    33    1
    18    33    34   ar
    19    34    35   ar
    20    35    36   ar
    21    36    37   ar
    22    37    38   ar
    23    25     1    1
    24     1     2   ar
    25     2     3   ar
    26     3     4   ar
    27     4     8    1
    28     8     9    1
    29     9    10    1
    30    10    11    1
    31    11    14    1
    32    14    15   ar
    33    15    16   ar
    34    16    17   ar
    35    17    20    1
    36    20    21    1
    37    20    22    1
    38    20    23    1
    39    17    18   ar
    40    18    19   ar
    41    11    12    1
    42    12    13    1
    43     4     5   ar
    44     5    50    1
    45    50    51    2
    46    50    52    1
    47     5     6   ar
    48     6     7    1
    49    48    40   ar
    50    38    33   ar
    51     6     1   ar
    52    48    43   ar
    53    13     8    1
    54    19    14   ar
    55    26    27    1
    56    42    49    1
    57    31    32    1
    58    52    53    1
