@<TRIPOS>MOLECULE
*****
 37 40 0 0 0
SMALL
GASTEIGER

@<TRIPOS>ATOM
      1 C         -28.8718   47.8271   -8.5286 C.2     1  UNL1        0.2670
      2 O         -29.1037   47.1892   -9.5891 O.2     1  UNL1       -0.2682
      3 N         -29.7800   47.7205   -7.4114 N.am    1  UNL1       -0.2685
      4 C         -27.4096   49.6782   -9.4461 C.ar    1  UNL1        0.0295
      5 C         -27.6813   48.6885   -8.4674 C.ar    1  UNL1        0.1330
      6 N         -26.8154   48.4927   -7.4391 N.ar    1  UNL1       -0.2395
      7 C         -25.6431   49.1636   -7.3365 C.ar    1  UNL1        0.0989
      8 C         -25.2659   50.0717   -8.3282 C.ar    1  UNL1        0.0190
      9 C         -24.0196   50.7130   -8.2616 C.ar    1  UNL1        0.0015
     10 C         -23.6365   51.6069   -9.2614 C.ar    1  UNL1        0.0000
     11 C         -24.4918   51.8679  -10.3312 C.ar    1  UNL1       -0.0000
     12 C         -25.7388   51.2424  -10.4066 C.ar    1  UNL1       -0.0001
     13 C         -26.1508   50.3359   -9.4040 C.ar    1  UNL1        0.0015
     14 C         -28.4561   50.0568  -10.4763 C.3     1  UNL1        0.1703
     15 C         -29.5555   51.8948  -11.3235 C.3     1  UNL1        0.1746
     16 O         -28.9772   51.3303  -10.1690 O.3     1  UNL1       -0.3463
     17 C         -30.4437   48.9173   -6.8461 C.3     1  UNL1        0.1007
     18 C         -31.4335   49.5177   -7.8576 C.3     1  UNL1        0.0265
     19 C         -29.4350   49.9116   -6.2836 C.ar    1  UNL1        0.0234
     20 C         -29.1185   51.1204   -6.9408 C.ar    1  UNL1        0.0019
     21 C         -28.1439   51.9782   -6.4240 C.ar    1  UNL1        0.0295
     22 C         -27.4796   51.6532   -5.2414 C.ar    1  UNL1        0.1424
     23 F         -26.5261   52.4818   -4.7493 F       1  UNL1       -0.2041
     24 C         -27.7996   50.4758   -4.5643 C.ar    1  UNL1        0.0590
     25 C         -28.7727   49.6110   -5.0755 C.ar    1  UNL1        0.1399
     26 F         -29.0563   48.4709   -4.3960 F       1  UNL1       -0.2044
     27 C         -30.2051   46.3827   -6.9706 C.3     1  UNL1        0.1207
     28 C         -29.4276   45.9362   -5.7572 C.ar    1  UNL1       -0.0021
     29 C         -30.0947   45.3825   -4.6536 C.ar    1  UNL1       -0.0026
     30 C         -29.3722   44.9248   -3.5513 C.ar    1  UNL1       -0.0001
     31 C         -27.9794   45.0213   -3.5351 C.ar    1  UNL1        0.0064
     32 C         -27.2910   45.5907   -4.6208 C.ar    1  UNL1        0.0752
     33 C         -28.0266   46.0394   -5.7336 C.ar    1  UNL1        0.0038
     34 C         -25.8113   45.6879   -4.5890 C.2     1  UNL1        0.3380
     35 O         -25.1778   45.9232   -5.6524 O.2     1  UNL1       -0.2451
     36 O         -25.0880   45.5102   -3.4101 O.3     1  UNL1       -0.4771
     37 H         -25.5196   45.2151   -2.5441 H       1  UNL1        0.2954
@<TRIPOS>BOND
     1    15    16    1
     2    16    14    1
     3    14     4    1
     4     4     5   ar
     5     5     1    1
     6     1     2    2
     7     1     3   am
     8     3    27    1
     9    27    28    1
    10    28    29   ar
    11    29    30   ar
    12    30    31   ar
    13    31    32   ar
    14    32    34    1
    15    34    35    2
    16    34    36    1
    17    32    33   ar
    18     3    17    1
    19    17    18    1
    20    17    19    1
    21    19    20   ar
    22    20    21   ar
    23    21    22   ar
    24    22    23    1
    25    22    24   ar
    26    24    25   ar
    27    25    26    1
    28     5     6   ar
    29     6     7   ar
    30     7     8   ar
    31     8     9   ar
    32     9    10   ar
    33    10    11   ar
    34    11    12   ar
    35    12    13   ar
    36    13     4   ar
    37    33    28   ar
    38    25    19   ar
    39    13     8   ar
    40    36    37    1
@<TRIPOS>MOLECULE
*****
 37 40 0 0 0
SMALL
GASTEIGER

@<TRIPOS>ATOM
      1 C         -30.0999   48.2512   -7.7668 C.2     1  UNL1        0.2670
      2 O         -30.9356   47.8107   -8.5993 O.2     1  UNL1       -0.2682
      3 N         -30.2046   47.8785   -6.3759 N.am    1  UNL1       -0.2685
      4 C         -27.6653   48.8566   -8.1023 C.ar    1  UNL1        0.0295
      5 C         -29.0439   49.1600   -8.2381 C.ar    1  UNL1        0.1330
      6 N         -29.4298   50.3357   -8.7988 N.ar    1  UNL1       -0.2395
      7 C         -28.5433   51.2858   -9.1810 C.ar    1  UNL1        0.0989
      8 C         -27.1759   51.0938   -8.9715 C.ar    1  UNL1        0.0190
      9 C         -26.2620   52.1067   -9.2995 C.ar    1  UNL1        0.0015
     10 C         -24.8981   51.9208   -9.0740 C.ar    1  UNL1        0.0000
     11 C         -24.4372   50.7260   -8.5226 C.ar    1  UNL1       -0.0000
     12 C         -25.3350   49.7058   -8.1982 C.ar    1  UNL1       -0.0001
     13 C         -26.7208   49.8691   -8.4208 C.ar    1  UNL1        0.0015
     14 C         -27.2150   47.4723   -7.6771 C.3     1  UNL1        0.1703
     15 C         -27.6697   46.1478   -9.5057 C.3     1  UNL1        0.1746
     16 O         -26.6524   46.8022   -8.7827 O.3     1  UNL1       -0.3463
     17 C         -30.3527   48.9026   -5.3169 C.3     1  UNL1        0.1007
     18 C         -31.5840   49.7839   -5.5824 C.3     1  UNL1        0.0265
     19 C         -29.0591   49.6765   -5.0927 C.ar    1  UNL1        0.0234
     20 C         -27.9434   49.1101   -4.4386 C.ar    1  UNL1        0.0019
     21 C         -26.7963   49.8713   -4.1985 C.ar    1  UNL1        0.0295
     22 C         -26.7372   51.2010   -4.6156 C.ar    1  UNL1        0.1424
     23 F         -25.6274   51.9401   -4.3703 F       1  UNL1       -0.2041
     24 C         -27.8203   51.7684   -5.2879 C.ar    1  UNL1        0.0590
     25 C         -28.9726   51.0140   -5.5310 C.ar    1  UNL1        0.1399
     26 F         -30.0109   51.5973   -6.1819 F       1  UNL1       -0.2044
     27 C         -30.3746   46.4572   -6.0354 C.3     1  UNL1        0.1207
     28 C         -29.4767   46.0603   -4.8898 C.ar    1  UNL1       -0.0021
     29 C         -30.0231   45.7704   -3.6301 C.ar    1  UNL1       -0.0026
     30 C         -29.1986   45.3563   -2.5835 C.ar    1  UNL1       -0.0001
     31 C         -27.8216   45.2346   -2.7800 C.ar    1  UNL1        0.0064
     32 C         -27.2494   45.5389   -4.0277 C.ar    1  UNL1        0.0752
     33 C         -28.0896   45.9448   -5.0814 C.ar    1  UNL1        0.0038
     34 C         -25.7848   45.4062   -4.2215 C.2     1  UNL1        0.3380
     35 O         -25.2974   45.4957   -5.3799 O.2     1  UNL1       -0.2451
     36 O         -24.9205   45.1677   -3.1534 O.3     1  UNL1       -0.4771
     37 H         -25.2505   44.9797   -2.2158 H       1  UNL1        0.2954
@<TRIPOS>BOND
     1    15    16    1
     2    16    14    1
     3    14     4    1
     4     4     5   ar
     5     5     1    1
     6     1     2    2
     7     1     3   am
     8     3    27    1
     9    27    28    1
    10    28    29   ar
    11    29    30   ar
    12    30    31   ar
    13    31    32   ar
    14    32    34    1
    15    34    35    2
    16    34    36    1
    17    32    33   ar
    18     3    17    1
    19    17    18    1
    20    17    19    1
    21    19    20   ar
    22    20    21   ar
    23    21    22   ar
    24    22    23    1
    25    22    24   ar
    26    24    25   ar
    27    25    26    1
    28     5     6   ar
    29     6     7   ar
    30     7     8   ar
    31     8     9   ar
    32     9    10   ar
    33    10    11   ar
    34    11    12   ar
    35    12    13   ar
    36    13     4   ar
    37    33    28   ar
    38    25    19   ar
    39    13     8   ar
    40    36    37    1
@<TRIPOS>MOLECULE
*****
 37 40 0 0 0
SMALL
GASTEIGER

@<TRIPOS>ATOM
      1 C         -29.7297   47.6668   -7.2972 C.2     1  UNL1        0.2670
      2 O         -30.6369   46.8291   -7.0511 O.2     1  UNL1       -0.2682
      3 N         -28.4973   47.6347   -6.5458 N.am    1  UNL1       -0.2685
      4 C         -29.1179   48.8147   -9.4685 C.ar    1  UNL1        0.0295
      5 C         -29.9645   48.6779   -8.3391 C.ar    1  UNL1        0.1330
      6 N         -31.0238   49.5131   -8.1778 N.ar    1  UNL1       -0.2395
      7 C         -31.2782   50.5386   -9.0253 C.ar    1  UNL1        0.0989
      8 C         -30.4173   50.7944  -10.0948 C.ar    1  UNL1        0.0190
      9 C         -30.6380   51.8997  -10.9306 C.ar    1  UNL1        0.0015
     10 C         -29.7679   52.1642  -11.9881 C.ar    1  UNL1        0.0000
     11 C         -28.6751   51.3298  -12.2199 C.ar    1  UNL1       -0.0000
     12 C         -28.4474   50.2213  -11.4005 C.ar    1  UNL1       -0.0001
     13 C         -29.3168   49.9305  -10.3253 C.ar    1  UNL1        0.0015
     14 C         -28.0636   47.7692   -9.7774 C.3     1  UNL1        0.1703
     15 C         -28.1995   45.5096  -10.2024 C.3     1  UNL1        0.1746
     16 O         -28.6117   46.7880  -10.6287 O.3     1  UNL1       -0.3463
     17 C         -28.0407   48.8110   -5.7712 C.3     1  UNL1        0.1007
     18 C         -29.1550   49.3123   -4.8382 C.3     1  UNL1        0.0265
     19 C         -27.4414   49.8843   -6.6720 C.ar    1  UNL1        0.0234
     20 C         -28.0634   51.1356   -6.8734 C.ar    1  UNL1        0.0019
     21 C         -27.5136   52.0710   -7.7541 C.ar    1  UNL1        0.0295
     22 C         -26.3324   51.7811   -8.4371 C.ar    1  UNL1        0.1424
     23 F         -25.8083   52.6860   -9.2999 F       1  UNL1       -0.2041
     24 C         -25.6898   50.5602   -8.2290 C.ar    1  UNL1        0.0590
     25 C         -26.2341   49.6179   -7.3504 C.ar    1  UNL1        0.1399
     26 F         -25.5877   48.4375   -7.1748 F       1  UNL1       -0.2044
     27 C         -27.8004   46.3488   -6.3848 C.3     1  UNL1        0.1207
     28 C         -27.7558   45.9311   -4.9358 C.ar    1  UNL1       -0.0021
     29 C         -28.9454   45.7710   -4.2086 C.ar    1  UNL1       -0.0026
     30 C         -28.9071   45.3378   -2.8829 C.ar    1  UNL1       -0.0001
     31 C         -27.6835   45.0674   -2.2673 C.ar    1  UNL1        0.0064
     32 C         -26.4779   45.2398   -2.9699 C.ar    1  UNL1        0.0752
     33 C         -26.5260   45.6661   -4.3103 C.ar    1  UNL1        0.0038
     34 C         -25.1853   44.9498   -2.3026 C.2     1  UNL1        0.3380
     35 O         -25.1433   44.1183   -1.3569 O.2     1  UNL1       -0.2451
     36 O         -24.0034   45.5857   -2.6813 O.3     1  UNL1       -0.4771
     37 H         -23.9808   46.3382   -3.3572 H       1  UNL1        0.2954
@<TRIPOS>BOND
     1    15    16    1
     2    16    14    1
     3    14     4    1
     4     4     5   ar
     5     5     1    1
     6     1     2    2
     7     1     3   am
     8     3    27    1
     9    27    28    1
    10    28    29   ar
    11    29    30   ar
    12    30    31   ar
    13    31    32   ar
    14    32    34    1
    15    34    35    2
    16    34    36    1
    17    32    33   ar
    18     3    17    1
    19    17    18    1
    20    17    19    1
    21    19    20   ar
    22    20    21   ar
    23    21    22   ar
    24    22    23    1
    25    22    24   ar
    26    24    25   ar
    27    25    26    1
    28     5     6   ar
    29     6     7   ar
    30     7     8   ar
    31     8     9   ar
    32     9    10   ar
    33    10    11   ar
    34    11    12   ar
    35    12    13   ar
    36    13     4   ar
    37    33    28   ar
    38    25    19   ar
    39    13     8   ar
    40    36    37    1
@<TRIPOS>MOLECULE
*****
 37 40 0 0 0
SMALL
GASTEIGER

@<TRIPOS>ATOM
      1 C         -30.0275   50.0835   -4.5232 C.2     1  UNL1        0.2670
      2 O         -30.6277   50.8328   -3.7085 O.2     1  UNL1       -0.2682
      3 N         -30.1036   48.6496   -4.3728 N.am    1  UNL1       -0.2685
      4 C         -29.6536   50.6648   -6.9581 C.ar    1  UNL1        0.0295
      5 C         -29.2400   50.6990   -5.6021 C.ar    1  UNL1        0.1330
      6 N         -28.0671   51.2952   -5.2634 N.ar    1  UNL1       -0.2395
      7 C         -27.2191   51.8101   -6.1856 C.ar    1  UNL1        0.0989
      8 C         -27.5170   51.7082   -7.5462 C.ar    1  UNL1        0.0190
      9 C         -26.6059   52.1754   -8.5057 C.ar    1  UNL1        0.0015
     10 C         -26.8967   52.0578   -9.8648 C.ar    1  UNL1        0.0000
     11 C         -28.0955   51.4762  -10.2756 C.ar    1  UNL1       -0.0000
     12 C         -29.0154   51.0136   -9.3312 C.ar    1  UNL1       -0.0001
     13 C         -28.7451   51.1251   -7.9488 C.ar    1  UNL1        0.0015
     14 C         -31.0469   50.1963   -7.3313 C.3     1  UNL1        0.1703
     15 C         -31.5840   48.5490   -8.8488 C.3     1  UNL1        0.1746
     16 O         -31.0235   48.8091   -7.5823 O.3     1  UNL1       -0.3463
     17 C         -28.8818   47.8306   -4.2034 C.3     1  UNL1        0.1007
     18 C         -28.0578   48.3268   -3.0041 C.3     1  UNL1        0.0265
     19 C         -28.0955   47.7110   -5.5033 C.ar    1  UNL1        0.0234
     20 C         -26.8191   48.2910   -5.6705 C.ar    1  UNL1        0.0019
     21 C         -26.1554   48.2107   -6.8976 C.ar    1  UNL1        0.0295
     22 C         -26.7446   47.5430   -7.9712 C.ar    1  UNL1        0.1424
     23 F         -26.1032   47.4774   -9.1637 F       1  UNL1       -0.2041
     24 C         -27.9935   46.9404   -7.8152 C.ar    1  UNL1        0.0590
     25 C         -28.6652   47.0173   -6.5908 C.ar    1  UNL1        0.1399
     26 F         -29.8811   46.4258   -6.4737 F       1  UNL1       -0.2044
     27 C         -31.4229   48.0279   -4.1782 C.3     1  UNL1        0.1207
     28 C         -31.3191   46.7834   -3.3318 C.ar    1  UNL1       -0.0021
     29 C         -31.5088   45.5179   -3.9080 C.ar    1  UNL1       -0.0026
     30 C         -31.3651   44.3643   -3.1364 C.ar    1  UNL1       -0.0001
     31 C         -31.0387   44.4612   -1.7823 C.ar    1  UNL1        0.0064
     32 C         -30.8637   45.7189   -1.1788 C.ar    1  UNL1        0.0752
     33 C         -30.9991   46.8771   -1.9670 C.ar    1  UNL1        0.0038
     34 C         -30.5184   45.8065    0.2611 C.2     1  UNL1        0.3380
     35 O         -29.7574   46.7253    0.6661 O.2     1  UNL1       -0.2451
     36 O         -31.0015   44.8857    1.1903 O.3     1  UNL1       -0.4771
     37 H         -31.5280   44.0646    0.9220 H       1  UNL1        0.2954
@<TRIPOS>BOND
     1    15    16    1
     2    16    14    1
     3    14     4    1
     4     4     5   ar
     5     5     1    1
     6     1     2    2
     7     1     3   am
     8     3    27    1
     9    27    28    1
    10    28    29   ar
    11    29    30   ar
    12    30    31   ar
    13    31    32   ar
    14    32    34    1
    15    34    35    2
    16    34    36    1
    17    32    33   ar
    18     3    17    1
    19    17    18    1
    20    17    19    1
    21    19    20   ar
    22    20    21   ar
    23    21    22   ar
    24    22    23    1
    25    22    24   ar
    26    24    25   ar
    27    25    26    1
    28     5     6   ar
    29     6     7   ar
    30     7     8   ar
    31     8     9   ar
    32     9    10   ar
    33    10    11   ar
    34    11    12   ar
    35    12    13   ar
    36    13     4   ar
    37    33    28   ar
    38    25    19   ar
    39    13     8   ar
    40    36    37    1
@<TRIPOS>MOLECULE
*****
 37 40 0 0 0
SMALL
GASTEIGER

@<TRIPOS>ATOM
      1 C         -29.0046   47.9884   -8.5646 C.2     1  UNL1        0.2670
      2 O         -29.3959   47.1270   -9.3955 O.2     1  UNL1       -0.2682
      3 N         -29.3410   49.3791   -8.7575 N.am    1  UNL1       -0.2685
      4 C         -28.6873   47.5367   -6.0945 C.ar    1  UNL1        0.0295
      5 C         -28.1890   47.5497   -7.4221 C.ar    1  UNL1        0.1330
      6 N         -26.9087   47.1702   -7.6720 N.ar    1  UNL1       -0.2395
      7 C         -26.0420   46.8381   -6.6856 C.ar    1  UNL1        0.0989
      8 C         -26.4391   46.9127   -5.3487 C.ar    1  UNL1        0.0190
      9 C         -25.5214   46.6399   -4.3229 C.ar    1  UNL1        0.0015
     10 C         -25.9143   46.7313   -2.9877 C.ar    1  UNL1        0.0000
     11 C         -27.2221   47.0931   -2.6669 C.ar    1  UNL1       -0.0000
     12 C         -28.1485   47.3602   -3.6780 C.ar    1  UNL1       -0.0001
     13 C         -27.7754   47.2707   -5.0379 C.ar    1  UNL1        0.0015
     14 C         -30.1631   47.7512   -5.8188 C.3     1  UNL1        0.1703
     15 C         -31.3419   49.2376   -4.5128 C.3     1  UNL1        0.1746
     16 O         -30.3964   49.1155   -5.5506 O.3     1  UNL1       -0.3463
     17 C         -28.2880   50.4139   -8.8709 C.3     1  UNL1        0.1007
     18 C         -27.2967   50.0589   -9.9910 C.3     1  UNL1        0.0265
     19 C         -27.6390   50.7113   -7.5245 C.ar    1  UNL1        0.0234
     20 C         -26.2983   50.3719   -7.2405 C.ar    1  UNL1        0.0019
     21 C         -25.7570   50.6067   -5.9737 C.ar    1  UNL1        0.0295
     22 C         -26.5360   51.1928   -4.9760 C.ar    1  UNL1        0.1424
     23 F         -26.0113   51.4080   -3.7446 F       1  UNL1       -0.2041
     24 C         -27.8545   51.5597   -5.2479 C.ar    1  UNL1        0.0590
     25 C         -28.4044   51.3269   -6.5127 C.ar    1  UNL1        0.1399
     26 F         -29.6917   51.6900   -6.7430 F       1  UNL1       -0.2044
     27 C         -30.7381   49.7348   -9.0516 C.3     1  UNL1        0.1207
     28 C         -30.8995   50.1663  -10.4882 C.ar    1  UNL1       -0.0021
     29 C         -31.2648   49.2330  -11.4706 C.ar    1  UNL1       -0.0026
     30 C         -31.4616   49.6406  -12.7903 C.ar    1  UNL1       -0.0001
     31 C         -31.2892   50.9800  -13.1449 C.ar    1  UNL1        0.0064
     32 C         -30.9040   51.9291  -12.1817 C.ar    1  UNL1        0.0752
     33 C         -30.7187   51.5116  -10.8505 C.ar    1  UNL1        0.0038
     34 C         -30.7233   53.3483  -12.5733 C.2     1  UNL1        0.3380
     35 O         -31.4390   53.8405  -13.4860 O.2     1  UNL1       -0.2451
     36 O         -29.7658   54.1618  -11.9681 O.3     1  UNL1       -0.4771
     37 H         -29.0879   53.8071  -11.3062 H       1  UNL1        0.2954
@<TRIPOS>BOND
     1    15    16    1
     2    16    14    1
     3    14     4    1
     4     4     5   ar
     5     5     1    1
     6     1     2    2
     7     1     3   am
     8     3    27    1
     9    27    28    1
    10    28    29   ar
    11    29    30   ar
    12    30    31   ar
    13    31    32   ar
    14    32    34    1
    15    34    35    2
    16    34    36    1
    17    32    33   ar
    18     3    17    1
    19    17    18    1
    20    17    19    1
    21    19    20   ar
    22    20    21   ar
    23    21    22   ar
    24    22    23    1
    25    22    24   ar
    26    24    25   ar
    27    25    26    1
    28     5     6   ar
    29     6     7   ar
    30     7     8   ar
    31     8     9   ar
    32     9    10   ar
    33    10    11   ar
    34    11    12   ar
    35    12    13   ar
    36    13     4   ar
    37    33    28   ar
    38    25    19   ar
    39    13     8   ar
    40    36    37    1
@<TRIPOS>MOLECULE
*****
 37 40 0 0 0
SMALL
GASTEIGER

@<TRIPOS>ATOM
      1 C         -28.9353   49.7479   -7.5787 C.2     1  UNL1        0.2670
      2 O         -29.5494   49.9610   -8.6570 O.2     1  UNL1       -0.2682
      3 N         -27.5426   50.1097   -7.4599 N.am    1  UNL1       -0.2685
      4 C         -29.9821   49.8040   -5.2748 C.ar    1  UNL1        0.0295
      5 C         -29.6574   49.1094   -6.4679 C.ar    1  UNL1        0.1330
      6 N         -29.9935   47.8004   -6.6059 N.ar    1  UNL1       -0.2395
      7 C         -30.5754   47.0892   -5.6108 C.ar    1  UNL1        0.0989
      8 C         -30.8196   47.6865   -4.3723 C.ar    1  UNL1        0.0190
      9 C         -31.3549   46.9319   -3.3173 C.ar    1  UNL1        0.0015
     10 C         -31.5825   47.5251   -2.0756 C.ar    1  UNL1        0.0000
     11 C         -31.2801   48.8718   -1.8781 C.ar    1  UNL1       -0.0000
     12 C         -30.7538   49.6373   -2.9217 C.ar    1  UNL1       -0.0001
     13 C         -30.5179   49.0598   -4.1896 C.ar    1  UNL1        0.0015
     14 C         -29.8077   51.3076   -5.1820 C.3     1  UNL1        0.1703
     15 C         -31.5825   52.6769   -4.6529 C.3     1  UNL1        0.1746
     16 O         -30.9606   51.9452   -5.6842 O.3     1  UNL1       -0.3463
     17 C         -26.5140   49.0990   -7.1243 C.3     1  UNL1        0.1007
     18 C         -26.4204   48.0327   -8.2278 C.3     1  UNL1        0.0265
     19 C         -26.7072   48.5389   -5.7202 C.ar    1  UNL1        0.0234
     20 C         -26.9576   47.1703   -5.4804 C.ar    1  UNL1        0.0019
     21 C         -27.1890   46.7051   -4.1831 C.ar    1  UNL1        0.0295
     22 C         -27.1629   47.5904   -3.1056 C.ar    1  UNL1        0.1424
     23 F         -27.3999   47.1377   -1.8499 F       1  UNL1       -0.2041
     24 C         -26.8898   48.9417   -3.3215 C.ar    1  UNL1        0.0590
     25 C         -26.6584   49.4158   -4.6169 C.ar    1  UNL1        0.1399
     26 F         -26.4016   50.7367   -4.7936 F       1  UNL1       -0.2044
     27 C         -27.1228   51.4550   -7.8825 C.3     1  UNL1        0.1207
     28 C         -26.1819   51.3875   -9.0598 C.ar    1  UNL1       -0.0021
     29 C         -26.6550   50.9975  -10.3222 C.ar    1  UNL1       -0.0026
     30 C         -25.7962   50.9815  -11.4217 C.ar    1  UNL1       -0.0001
     31 C         -24.4568   51.3466  -11.2722 C.ar    1  UNL1        0.0064
     32 C         -23.9558   51.7215  -10.0132 C.ar    1  UNL1        0.0752
     33 C         -24.8316   51.7460   -8.9116 C.ar    1  UNL1        0.0038
     34 C         -22.5304   52.1056   -9.8692 C.2     1  UNL1        0.3380
     35 O         -22.0045   52.1367   -8.7247 O.2     1  UNL1       -0.2451
     36 O         -21.7476   52.4523  -10.9699 O.3     1  UNL1       -0.4771
     37 H         -22.1293   52.5520  -11.9015 H       1  UNL1        0.2954
@<TRIPOS>BOND
     1    15    16    1
     2    16    14    1
     3    14     4    1
     4     4     5   ar
     5     5     1    1
     6     1     2    2
     7     1     3   am
     8     3    27    1
     9    27    28    1
    10    28    29   ar
    11    29    30   ar
    12    30    31   ar
    13    31    32   ar
    14    32    34    1
    15    34    35    2
    16    34    36    1
    17    32    33   ar
    18     3    17    1
    19    17    18    1
    20    17    19    1
    21    19    20   ar
    22    20    21   ar
    23    21    22   ar
    24    22    23    1
    25    22    24   ar
    26    24    25   ar
    27    25    26    1
    28     5     6   ar
    29     6     7   ar
    30     7     8   ar
    31     8     9   ar
    32     9    10   ar
    33    10    11   ar
    34    11    12   ar
    35    12    13   ar
    36    13     4   ar
    37    33    28   ar
    38    25    19   ar
    39    13     8   ar
    40    36    37    1
@<TRIPOS>MOLECULE
*****
 37 40 0 0 0
SMALL
GASTEIGER

@<TRIPOS>ATOM
      1 C         -29.2585   50.0199   -4.9942 C.2     1  UNL1        0.2670
      2 O         -29.9793   50.6585   -4.1829 O.2     1  UNL1       -0.2682
      3 N         -28.4998   48.8790   -4.5390 N.am    1  UNL1       -0.2685
      4 C         -29.8905   49.8162   -7.4367 C.ar    1  UNL1        0.0295
      5 C         -29.1934   50.4741   -6.3915 C.ar    1  UNL1        0.1330
      6 N         -28.4121   51.5507   -6.6672 N.ar    1  UNL1       -0.2395
      7 C         -28.2053   51.9963   -7.9295 C.ar    1  UNL1        0.0989
      8 C         -28.7747   51.3232   -9.0127 C.ar    1  UNL1        0.0190
      9 C         -28.5026   51.7390  -10.3249 C.ar    1  UNL1        0.0015
     10 C         -29.0581   51.0558  -11.4066 C.ar    1  UNL1        0.0000
     11 C         -29.8877   49.9567  -11.1879 C.ar    1  UNL1       -0.0000
     12 C         -30.1734   49.5361   -9.8866 C.ar    1  UNL1       -0.0001
     13 C         -29.6257   50.2144   -8.7746 C.ar    1  UNL1        0.0015
     14 C         -30.9263   48.7526   -7.1273 C.3     1  UNL1        0.1703
     15 C         -31.3377   46.5172   -7.4998 C.3     1  UNL1        0.1746
     16 O         -30.3377   47.4768   -7.2447 O.3     1  UNL1       -0.3463
     17 C         -27.0269   48.8310   -4.6830 C.3     1  UNL1        0.1007
     18 C         -26.3567   49.8516   -3.7489 C.3     1  UNL1        0.0265
     19 C         -26.5969   48.9327   -6.1415 C.ar    1  UNL1        0.0234
     20 C         -25.8199   50.0069   -6.6270 C.ar    1  UNL1        0.0019
     21 C         -25.4962   50.0959   -7.9835 C.ar    1  UNL1        0.0295
     22 C         -25.9292   49.1131   -8.8737 C.ar    1  UNL1        0.1424
     23 F         -25.6237   49.2090  -10.1910 F       1  UNL1       -0.2041
     24 C         -26.6747   48.0302   -8.4061 C.ar    1  UNL1        0.0590
     25 C         -27.0042   47.9343   -7.0502 C.ar    1  UNL1        0.1399
     26 F         -27.7356   46.8716   -6.6286 F       1  UNL1       -0.2044
     27 C         -29.1813   47.8504   -3.7375 C.3     1  UNL1        0.1207
     28 C         -28.4445   46.5353   -3.7986 C.ar    1  UNL1       -0.0021
     29 C         -28.9357   45.4851   -4.5893 C.ar    1  UNL1       -0.0026
     30 C         -28.2293   44.2857   -4.6845 C.ar    1  UNL1       -0.0001
     31 C         -27.0312   44.1189   -3.9871 C.ar    1  UNL1        0.0064
     32 C         -26.5301   45.1498   -3.1730 C.ar    1  UNL1        0.0752
     33 C         -27.2430   46.3607   -3.0917 C.ar    1  UNL1        0.0038
     34 C         -25.2567   44.9579   -2.4370 C.2     1  UNL1        0.3380
     35 O         -25.2043   44.1364   -1.4831 O.2     1  UNL1       -0.2451
     36 O         -24.1057   45.6761   -2.7596 O.3     1  UNL1       -0.4771
     37 H         -24.1021   46.4247   -3.4399 H       1  UNL1        0.2954
@<TRIPOS>BOND
     1    15    16    1
     2    16    14    1
     3    14     4    1
     4     4     5   ar
     5     5     1    1
     6     1     2    2
     7     1     3   am
     8     3    27    1
     9    27    28    1
    10    28    29   ar
    11    29    30   ar
    12    30    31   ar
    13    31    32   ar
    14    32    34    1
    15    34    35    2
    16    34    36    1
    17    32    33   ar
    18     3    17    1
    19    17    18    1
    20    17    19    1
    21    19    20   ar
    22    20    21   ar
    23    21    22   ar
    24    22    23    1
    25    22    24   ar
    26    24    25   ar
    27    25    26    1
    28     5     6   ar
    29     6     7   ar
    30     7     8   ar
    31     8     9   ar
    32     9    10   ar
    33    10    11   ar
    34    11    12   ar
    35    12    13   ar
    36    13     4   ar
    37    33    28   ar
    38    25    19   ar
    39    13     8   ar
    40    36    37    1
@<TRIPOS>MOLECULE
*****
 37 40 0 0 0
SMALL
GASTEIGER

@<TRIPOS>ATOM
      1 C         -27.4911   51.5736   -7.0480 C.2     1  UNL1        0.2670
      2 O         -27.2665   52.7509   -6.6621 O.2     1  UNL1       -0.2682
      3 N         -27.0251   50.4569   -6.2606 N.am    1  UNL1       -0.2685
      4 C         -29.4297   50.6496   -8.3877 C.ar    1  UNL1        0.0295
      5 C         -28.2101   51.3696   -8.3147 C.ar    1  UNL1        0.1330
      6 N         -27.6525   51.8796   -9.4437 N.ar    1  UNL1       -0.2395
      7 C         -28.1791   51.6712  -10.6741 C.ar    1  UNL1        0.0989
      8 C         -29.3179   50.8768  -10.8240 C.ar    1  UNL1        0.0190
      9 C         -29.8224   50.5995  -12.1037 C.ar    1  UNL1        0.0015
     10 C         -30.9498   49.7920  -12.2535 C.ar    1  UNL1        0.0000
     11 C         -31.5812   49.2578  -11.1310 C.ar    1  UNL1       -0.0000
     12 C         -31.0945   49.5316   -9.8503 C.ar    1  UNL1       -0.0001
     13 C         -29.9563   50.3499   -9.6728 C.ar    1  UNL1        0.0015
     14 C         -30.1738   50.2565   -7.1261 C.3     1  UNL1        0.1703
     15 C         -31.4046   51.0765   -5.3604 C.3     1  UNL1        0.1746
     16 O         -30.8944   51.3672   -6.6414 O.3     1  UNL1       -0.3463
     17 C         -26.1105   49.4433   -6.8337 C.3     1  UNL1        0.1007
     18 C         -24.8928   50.1180   -7.4859 C.3     1  UNL1        0.0265
     19 C         -26.8475   48.4620   -7.7372 C.ar    1  UNL1        0.0234
     20 C         -27.7094   47.4666   -7.2276 C.ar    1  UNL1        0.0019
     21 C         -28.3205   46.5469   -8.0840 C.ar    1  UNL1        0.0295
     22 C         -28.0936   46.6108   -9.4588 C.ar    1  UNL1        0.1424
     23 F         -28.6784   45.7094  -10.2854 F       1  UNL1       -0.2041
     24 C         -27.2664   47.6052   -9.9821 C.ar    1  UNL1        0.0590
     25 C         -26.6498   48.5288   -9.1319 C.ar    1  UNL1        0.1399
     26 F         -25.8462   49.4799   -9.6720 F       1  UNL1       -0.2044
     27 C         -27.2997   50.4471   -4.8151 C.3     1  UNL1        0.1207
     28 C         -27.5760   49.0482   -4.3225 C.ar    1  UNL1       -0.0021
     29 C         -28.8971   48.5998   -4.1697 C.ar    1  UNL1       -0.0026
     30 C         -29.1534   47.2907   -3.7607 C.ar    1  UNL1       -0.0001
     31 C         -28.0963   46.4188   -3.4931 C.ar    1  UNL1        0.0064
     32 C         -26.7647   46.8518   -3.6199 C.ar    1  UNL1        0.0752
     33 C         -26.5150   48.1704   -4.0441 C.ar    1  UNL1        0.0038
     34 C         -25.6518   45.9147   -3.3310 C.2     1  UNL1        0.3380
     35 O         -25.1787   45.2025   -4.2564 O.2     1  UNL1       -0.2451
     36 O         -25.1153   45.7830   -2.0505 O.3     1  UNL1       -0.4771
     37 H         -25.5137   46.2422   -1.2419 H       1  UNL1        0.2954
@<TRIPOS>BOND
     1    15    16    1
     2    16    14    1
     3    14     4    1
     4     4     5   ar
     5     5     1    1
     6     1     2    2
     7     1     3   am
     8     3    27    1
     9    27    28    1
    10    28    29   ar
    11    29    30   ar
    12    30    31   ar
    13    31    32   ar
    14    32    34    1
    15    34    35    2
    16    34    36    1
    17    32    33   ar
    18     3    17    1
    19    17    18    1
    20    17    19    1
    21    19    20   ar
    22    20    21   ar
    23    21    22   ar
    24    22    23    1
    25    22    24   ar
    26    24    25   ar
    27    25    26    1
    28     5     6   ar
    29     6     7   ar
    30     7     8   ar
    31     8     9   ar
    32     9    10   ar
    33    10    11   ar
    34    11    12   ar
    35    12    13   ar
    36    13     4   ar
    37    33    28   ar
    38    25    19   ar
    39    13     8   ar
    40    36    37    1
@<TRIPOS>MOLECULE
*****
 37 40 0 0 0
SMALL
GASTEIGER

@<TRIPOS>ATOM
      1 C         -28.8130   46.8989   -8.1739 C.2     1  UNL1        0.2670
      2 O         -29.0410   45.7528   -8.6428 O.2     1  UNL1       -0.2682
      3 N         -29.1019   48.0710   -8.9658 N.am    1  UNL1       -0.2685
      4 C         -28.9746   47.4861   -5.7172 C.ar    1  UNL1        0.0295
      5 C         -28.2321   47.0094   -6.8273 C.ar    1  UNL1        0.1330
      6 N         -26.9290   46.6574   -6.6735 N.ar    1  UNL1       -0.2395
      7 C         -26.2676   46.8075   -5.5010 C.ar    1  UNL1        0.0989
      8 C         -26.9124   47.3755   -4.4001 C.ar    1  UNL1        0.0190
      9 C         -26.2084   47.5991   -3.2071 C.ar    1  UNL1        0.0015
     10 C         -26.8486   48.1822   -2.1136 C.ar    1  UNL1        0.0000
     11 C         -28.1922   48.5441   -2.2014 C.ar    1  UNL1       -0.0000
     12 C         -28.9077   48.3204   -3.3805 C.ar    1  UNL1       -0.0001
     13 C         -28.2821   47.7278   -4.5003 C.ar    1  UNL1        0.0015
     14 C         -30.4751   47.6830   -5.8159 C.3     1  UNL1        0.1703
     15 C         -31.5840   49.6422   -5.3296 C.3     1  UNL1        0.1746
     16 O         -30.7479   48.9930   -6.2598 O.3     1  UNL1       -0.3463
     17 C         -28.0434   49.0514   -9.2985 C.3     1  UNL1        0.1007
     18 C         -26.8517   48.3549   -9.9752 C.3     1  UNL1        0.0265
     19 C         -27.6721   49.9132   -8.0976 C.ar    1  UNL1        0.0234
     20 C         -26.4217   49.8085   -7.4502 C.ar    1  UNL1        0.0019
     21 C         -26.1411   50.5736   -6.3150 C.ar    1  UNL1        0.0295
     22 C         -27.0935   51.4616   -5.8149 C.ar    1  UNL1        0.1424
     23 F         -26.8224   52.1934   -4.7063 F       1  UNL1       -0.2041
     24 C         -28.3240   51.5977   -6.4586 C.ar    1  UNL1        0.0590
     25 C         -28.6134   50.8347   -7.5945 C.ar    1  UNL1        0.1399
     26 F         -29.8218   50.9862   -8.1936 F       1  UNL1       -0.2044
     27 C         -30.4160   48.1769   -9.6192 C.3     1  UNL1        0.1207
     28 C         -30.3113   47.9079  -11.1000 C.ar    1  UNL1       -0.0021
     29 C         -30.1541   46.5954  -11.5713 C.ar    1  UNL1       -0.0026
     30 C         -30.1061   46.3407  -12.9423 C.ar    1  UNL1       -0.0001
     31 C         -30.2066   47.3918  -13.8559 C.ar    1  UNL1        0.0064
     32 C         -30.3445   48.7169  -13.4065 C.ar    1  UNL1        0.0752
     33 C         -30.4037   48.9637  -12.0222 C.ar    1  UNL1        0.0038
     34 C         -30.4489   49.8235  -14.3887 C.2     1  UNL1        0.3380
     35 O         -29.7478   49.7980  -15.4352 O.2     1  UNL1       -0.2451
     36 O         -31.2961   50.9118  -14.1827 O.3     1  UNL1       -0.4771
     37 H         -31.8063   51.0508  -13.3203 H       1  UNL1        0.2954
@<TRIPOS>BOND
     1    15    16    1
     2    16    14    1
     3    14     4    1
     4     4     5   ar
     5     5     1    1
     6     1     2    2
     7     1     3   am
     8     3    27    1
     9    27    28    1
    10    28    29   ar
    11    29    30   ar
    12    30    31   ar
    13    31    32   ar
    14    32    34    1
    15    34    35    2
    16    34    36    1
    17    32    33   ar
    18     3    17    1
    19    17    18    1
    20    17    19    1
    21    19    20   ar
    22    20    21   ar
    23    21    22   ar
    24    22    23    1
    25    22    24   ar
    26    24    25   ar
    27    25    26    1
    28     5     6   ar
    29     6     7   ar
    30     7     8   ar
    31     8     9   ar
    32     9    10   ar
    33    10    11   ar
    34    11    12   ar
    35    12    13   ar
    36    13     4   ar
    37    33    28   ar
    38    25    19   ar
    39    13     8   ar
    40    36    37    1
