@<TRIPOS>MOLECULE
*****
 51 56 0 0 0
SMALL
GASTEIGER

@<TRIPOS>ATOM
      1 N          58.8801   83.2147   11.4788 N.am    1  UNL1       -0.2945
      2 C          58.4985   84.5979   11.5581 C.2     1  UNL1        0.2483
      3 O          57.3671   84.9549   11.1301 O.2     1  UNL1       -0.2701
      4 H          59.5805   82.8454   12.1597 H       1  UNL1        0.1501
      5 C          59.4107   85.6194   12.1338 C.ar    1  UNL1        0.0808
      6 C          59.3722   86.9344   11.6377 C.ar    1  UNL1        0.0080
      7 C          60.2607   87.9030   12.1096 C.ar    1  UNL1        0.0148
      8 C          61.2191   87.5797   13.0831 C.ar    1  UNL1        0.0502
      9 C          61.2571   86.2682   13.5852 C.ar    1  UNL1        0.0443
     10 C          60.3668   85.2966   13.1199 C.ar    1  UNL1        0.1457
     11 F          60.4852   84.0371   13.6076 F       1  UNL1       -0.2040
     12 N          62.1507   88.5772   13.5567 N.pl3   1  UNL1       -0.3040
     13 C          62.9177   89.3742   12.5868 C.3     1  UNL1        0.1123
     14 C          63.4926   90.6418   13.2264 C.3     1  UNL1        0.1136
     15 N          64.2114   90.3141   14.4661 N.pl3   1  UNL1       -0.2897
     16 C          63.6756   89.2810   15.3688 C.3     1  UNL1        0.1136
     17 C          62.2457   88.8788   14.9920 C.3     1  UNL1        0.1123
     18 C          65.3577   91.1032   14.8574 C.ar    1  UNL1        0.1318
     19 C          65.3060   91.9729   15.9608 C.ar    1  UNL1        0.0343
     20 C          66.4338   92.7190   16.3065 C.ar    1  UNL1        0.0083
     21 C          67.6090   92.6174   15.5481 C.ar    1  UNL1        0.0906
     22 C          67.6315   91.7166   14.4730 C.ar    1  UNL1        0.1041
     23 N          66.5217   90.9991   14.1560 N.ar    1  UNL1       -0.2292
     24 C          68.8487   93.3794   15.9418 C.3     1  UNL1        0.4200
     25 F          68.5267   94.6693   16.3275 F       1  UNL1       -0.1658
     26 F          69.7115   93.4336   14.8633 F       1  UNL1       -0.1658
     27 F          69.4879   92.7576   17.0004 F       1  UNL1       -0.1658
     28 C          58.3194   82.2710   10.5043 C.3     1  UNL1        0.1535
     29 C          58.9414   82.4863    9.1466 C.2     1  UNL1        0.2443
     30 O          58.3593   82.0703    8.1071 O.2     1  UNL1       -0.2730
     31 N          60.2407   83.0917    9.0564 N.am    1  UNL1       -0.2825
     32 H          60.8082   83.1542    9.9321 H       1  UNL1        0.1549
     33 C          60.8534   83.5077    7.8240 C.ar    1  UNL1        0.0535
     34 C          62.0343   84.2616    7.8621 C.ar    1  UNL1        0.0353
     35 C          62.6220   84.6875    6.6686 C.ar    1  UNL1        0.1002
     36 N          62.0414   84.3861    5.4771 N.ar    1  UNL1       -0.2422
     37 C          60.8858   83.6739    5.4086 C.ar    1  UNL1        0.1002
     38 C          60.2658   83.2277    6.5785 C.ar    1  UNL1        0.0353
     39 C          58.4392   80.8102   10.9941 C.3     1  UNL1        0.0570
     40 C          61.6871   80.9598   11.5618 C.ar    1  UNL1        0.1398
     41 C          62.9837   81.0932   12.1166 C.ar    1  UNL1        0.0370
     42 C          63.1749   81.0775   13.5127 C.ar    1  UNL1        0.0046
     43 C          62.0827   80.9251   14.3793 C.ar    1  UNL1        0.0172
     44 C          60.8146   80.7993   13.8181 C.ar    1  UNL1        0.0593
     45 N          59.6541   80.6766   14.4829 N.ar    1  UNL1       -0.3522
     46 C          58.6868   80.6308   13.5432 C.ar    1  UNL1        0.0682
     47 C          59.2371   80.7209   12.2682 C.ar    1  UNL1        0.0013
     48 C          60.6125   80.8245   12.4567 C.ar    1  UNL1        0.0471
     49 H          59.5202   80.6459   15.5181 H       1  UNL1        0.1660
     50 C          61.7502   79.8591    9.3194 C.3     1  UNL1        0.2525
     51 O          61.4634   80.9573   10.1785 O.3     1  UNL1       -0.4714
@<TRIPOS>BOND
     1    50    51    1
     2    51    40    1
     3    40    41   ar
     4    41    42   ar
     5    42    43   ar
     6    43    44   ar
     7    44    45   ar
     8    45    46   ar
     9    46    47   ar
    10    47    39    1
    11    39    28    1
    12    28     1    1
    13     1     2   am
    14     2     3    2
    15     2     5    1
    16     5     6   ar
    17     6     7   ar
    18     7     8   ar
    19     8    12    1
    20    12    13    1
    21    13    14    1
    22    14    15    1
    23    15    18    1
    24    18    19   ar
    25    19    20   ar
    26    20    21   ar
    27    21    24    1
    28    24    25    1
    29    24    26    1
    30    24    27    1
    31    21    22   ar
    32    22    23   ar
    33    15    16    1
    34    16    17    1
    35     8     9   ar
    36     9    10   ar
    37    10    11    1
    38    28    29    1
    39    29    30    2
    40    29    31   am
    41    31    33    1
    42    33    34   ar
    43    34    35   ar
    44    35    36   ar
    45    36    37   ar
    46    37    38   ar
    47    47    48   ar
    48    48    40   ar
    49    48    44   ar
    50    10     5   ar
    51    38    33   ar
    52    17    12    1
    53    23    18   ar
    54    45    49    1
    55     1     4    1
    56    31    32    1
@<TRIPOS>MOLECULE
*****
 51 56 0 0 0
SMALL
GASTEIGER

@<TRIPOS>ATOM
      1 N          59.0612   85.6883    9.2268 N.am    1  UNL1       -0.2945
      2 C          60.1380   86.4987    8.7278 C.2     1  UNL1        0.2483
      3 O          60.4099   86.4795    7.4964 O.2     1  UNL1       -0.2701
      4 H          58.5726   85.9827   10.1015 H       1  UNL1        0.1501
      5 C          60.9409   87.3600    9.6336 C.ar    1  UNL1        0.0808
      6 C          61.1092   88.7201    9.3201 C.ar    1  UNL1        0.0080
      7 C          61.9116   89.5430   10.1135 C.ar    1  UNL1        0.0148
      8 C          62.5763   89.0248   11.2362 C.ar    1  UNL1        0.0502
      9 C          62.4063   87.6674   11.5559 C.ar    1  UNL1        0.0443
     10 C          61.6003   86.8411   10.7680 C.ar    1  UNL1        0.1457
     11 F          61.5148   85.5293   11.0999 F       1  UNL1       -0.2040
     12 N          63.4218   89.8719   12.0453 N.pl3   1  UNL1       -0.3040
     13 C          64.2711   90.8831   11.3970 C.3     1  UNL1        0.1123
     14 C          64.7365   91.9514   12.3912 C.3     1  UNL1        0.1136
     15 N          65.3202   91.3251   13.5863 N.pl3   1  UNL1       -0.2897
     16 C          64.7143   90.1016   14.1384 C.3     1  UNL1        0.1136
     17 C          63.3470   89.8080   13.5117 C.3     1  UNL1        0.1123
     18 C          66.3938   91.9904   14.2896 C.ar    1  UNL1        0.1318
     19 C          66.1763   92.6288   15.5231 C.ar    1  UNL1        0.0343
     20 C          67.2385   93.2614   16.1710 C.ar    1  UNL1        0.0083
     21 C          68.5141   93.2773   15.5883 C.ar    1  UNL1        0.0906
     22 C          68.6985   92.6037   14.3717 C.ar    1  UNL1        0.1041
     23 N          67.6496   91.9932   13.7600 N.ar    1  UNL1       -0.2292
     24 C          69.6796   93.9130   16.3023 C.3     1  UNL1        0.4200
     25 F          69.2405   94.8874   17.1820 F       1  UNL1       -0.1658
     26 F          70.5223   94.4922   15.3721 F       1  UNL1       -0.1658
     27 F          70.3859   92.9655   17.0228 F       1  UNL1       -0.1658
     28 C          58.5827   84.4714    8.5599 C.3     1  UNL1        0.1535
     29 C          59.6936   83.4553    8.4606 C.2     1  UNL1        0.2443
     30 O          60.1335   83.1021    7.3318 O.2     1  UNL1       -0.2730
     31 N          60.1851   82.8317    9.6574 N.am    1  UNL1       -0.2825
     32 H          59.6107   82.9282   10.5254 H       1  UNL1        0.1549
     33 C          61.3497   81.9899    9.7090 C.ar    1  UNL1        0.0535
     34 C          61.2163   80.6146    9.4743 C.ar    1  UNL1        0.0353
     35 C          62.3405   79.7886    9.5450 C.ar    1  UNL1        0.1002
     36 N          63.5545   80.3143    9.8567 N.ar    1  UNL1       -0.2422
     37 C          63.7121   81.6406   10.1090 C.ar    1  UNL1        0.1002
     38 C          62.6138   82.5021   10.0477 C.ar    1  UNL1        0.0353
     39 C          57.3154   83.9099    9.2433 C.3     1  UNL1        0.0570
     40 C          57.7964   80.7410   10.0307 C.ar    1  UNL1        0.1398
     41 C          58.1550   79.5111   10.6351 C.ar    1  UNL1        0.0370
     42 C          58.5594   79.4624   11.9842 C.ar    1  UNL1        0.0046
     43 C          58.6102   80.6330   12.7550 C.ar    1  UNL1        0.0172
     44 C          58.2585   81.8341   12.1448 C.ar    1  UNL1        0.0593
     45 N          58.2750   83.0529   12.7088 N.ar    1  UNL1       -0.3522
     46 C          57.9047   83.9184   11.7420 C.ar    1  UNL1        0.0682
     47 C          57.6459   83.2437   10.5528 C.ar    1  UNL1        0.0013
     48 C          57.8728   81.8974   10.8249 C.ar    1  UNL1        0.0471
     49 H          58.5421   83.2905   13.6899 H       1  UNL1        0.1660
     50 C          58.2413   80.6997    7.5722 C.3     1  UNL1        0.2525
     51 O          57.3766   80.8229    8.6963 O.3     1  UNL1       -0.4714
@<TRIPOS>BOND
     1    50    51    1
     2    51    40    1
     3    40    41   ar
     4    41    42   ar
     5    42    43   ar
     6    43    44   ar
     7    44    45   ar
     8    45    46   ar
     9    46    47   ar
    10    47    39    1
    11    39    28    1
    12    28     1    1
    13     1     2   am
    14     2     3    2
    15     2     5    1
    16     5     6   ar
    17     6     7   ar
    18     7     8   ar
    19     8    12    1
    20    12    13    1
    21    13    14    1
    22    14    15    1
    23    15    18    1
    24    18    19   ar
    25    19    20   ar
    26    20    21   ar
    27    21    24    1
    28    24    25    1
    29    24    26    1
    30    24    27    1
    31    21    22   ar
    32    22    23   ar
    33    15    16    1
    34    16    17    1
    35     8     9   ar
    36     9    10   ar
    37    10    11    1
    38    28    29    1
    39    29    30    2
    40    29    31   am
    41    31    33    1
    42    33    34   ar
    43    34    35   ar
    44    35    36   ar
    45    36    37   ar
    46    37    38   ar
    47    47    48   ar
    48    48    40   ar
    49    48    44   ar
    50    10     5   ar
    51    38    33   ar
    52    17    12    1
    53    23    18   ar
    54    45    49    1
    55     1     4    1
    56    31    32    1
@<TRIPOS>MOLECULE
*****
 51 56 0 0 0
SMALL
GASTEIGER

@<TRIPOS>ATOM
      1 N          58.4829   84.6159   11.0884 N.am    1  UNL1       -0.2945
      2 C          58.6736   85.9230   10.5226 C.2     1  UNL1        0.2483
      3 O          58.0310   86.2512    9.4881 O.2     1  UNL1       -0.2701
      4 H          58.6630   84.4769   12.1076 H       1  UNL1        0.1501
      5 C          59.6149   86.8985   11.1304 C.ar    1  UNL1        0.0808
      6 C          60.9022   87.0449   10.5845 C.ar    1  UNL1        0.0080
      7 C          61.8343   87.9038   11.1708 C.ar    1  UNL1        0.0148
      8 C          61.5073   88.6316   12.3259 C.ar    1  UNL1        0.0502
      9 C          60.2202   88.4922   12.8713 C.ar    1  UNL1        0.0443
     10 C          59.2822   87.6378   12.2853 C.ar    1  UNL1        0.1457
     11 F          58.0737   87.5090   12.8862 F       1  UNL1       -0.2040
     12 N          62.4784   89.5051   12.9433 N.pl3   1  UNL1       -0.3040
     13 C          63.2736   90.4157   12.1052 C.3     1  UNL1        0.1123
     14 C          63.8992   91.5431   12.9322 C.3     1  UNL1        0.1136
     15 N          64.6076   90.9960   14.0984 N.pl3   1  UNL1       -0.2897
     16 C          64.0339   89.8543   14.8309 C.3     1  UNL1        0.1136
     17 C          62.5884   89.5718   14.4074 C.3     1  UNL1        0.1123
     18 C          65.7849   91.6687   14.5997 C.ar    1  UNL1        0.1318
     19 C          65.7917   92.2910   15.8604 C.ar    1  UNL1        0.0343
     20 C          66.9478   92.9315   16.3089 C.ar    1  UNL1        0.0083
     21 C          68.0934   92.9713   15.5010 C.ar    1  UNL1        0.0906
     22 C          68.0576   92.3131   14.2627 C.ar    1  UNL1        0.1041
     23 N          66.9210   91.6944   13.8474 N.ar    1  UNL1       -0.2292
     24 C          69.3634   93.6156   15.9955 C.3     1  UNL1        0.4200
     25 F          69.1108   94.8914   16.4694 F       1  UNL1       -0.1658
     26 F          70.2699   93.6925   14.9548 F       1  UNL1       -0.1658
     27 F          69.9185   92.8736   17.0237 F       1  UNL1       -0.1658
     28 C          58.0192   83.4559   10.3177 C.3     1  UNL1        0.1535
     29 C          58.8176   83.3176    9.0449 C.2     1  UNL1        0.2443
     30 O          58.3776   82.6185    8.0909 O.2     1  UNL1       -0.2730
     31 N          60.1199   83.9178    8.9630 N.am    1  UNL1       -0.2825
     32 H          60.5658   84.2320    9.8548 H       1  UNL1        0.1549
     33 C          60.8933   84.0061    7.7542 C.ar    1  UNL1        0.0535
     34 C          62.1423   84.6414    7.7805 C.ar    1  UNL1        0.0353
     35 C          62.8882   84.7499    6.6044 C.ar    1  UNL1        0.1002
     36 N          62.3967   84.2562    5.4373 N.ar    1  UNL1       -0.2422
     37 C          61.1804   83.6527    5.3760 C.ar    1  UNL1        0.1002
     38 C          60.4025   83.5224    6.5293 C.ar    1  UNL1        0.0353
     39 C          58.0237   82.1678   11.1716 C.3     1  UNL1        0.0570
     40 C          61.0207   82.5006   12.5135 C.ar    1  UNL1        0.1398
     41 C          62.3437   82.3277   12.9893 C.ar    1  UNL1        0.0370
     42 C          63.1321   81.2460   12.5484 C.ar    1  UNL1        0.0046
     43 C          62.6209   80.3219   11.6255 C.ar    1  UNL1        0.0172
     44 C          61.3174   80.5038   11.1709 C.ar    1  UNL1        0.0593
     45 N          60.6501   79.7111   10.3164 N.ar    1  UNL1       -0.3522
     46 C          59.4154   80.2424   10.1984 C.ar    1  UNL1        0.0682
     47 C          59.2970   81.3864   10.9817 C.ar    1  UNL1        0.0013
     48 C          60.5326   81.5493   11.6021 C.ar    1  UNL1        0.0471
     49 H          61.0034   78.8446    9.8527 H       1  UNL1        0.1660
     50 C          60.6421   84.6145   13.7909 C.3     1  UNL1        0.2525
     51 O          60.2149   83.5723   12.9205 O.3     1  UNL1       -0.4714
@<TRIPOS>BOND
     1    50    51    1
     2    51    40    1
     3    40    41   ar
     4    41    42   ar
     5    42    43   ar
     6    43    44   ar
     7    44    45   ar
     8    45    46   ar
     9    46    47   ar
    10    47    39    1
    11    39    28    1
    12    28     1    1
    13     1     2   am
    14     2     3    2
    15     2     5    1
    16     5     6   ar
    17     6     7   ar
    18     7     8   ar
    19     8    12    1
    20    12    13    1
    21    13    14    1
    22    14    15    1
    23    15    18    1
    24    18    19   ar
    25    19    20   ar
    26    20    21   ar
    27    21    24    1
    28    24    25    1
    29    24    26    1
    30    24    27    1
    31    21    22   ar
    32    22    23   ar
    33    15    16    1
    34    16    17    1
    35     8     9   ar
    36     9    10   ar
    37    10    11    1
    38    28    29    1
    39    29    30    2
    40    29    31   am
    41    31    33    1
    42    33    34   ar
    43    34    35   ar
    44    35    36   ar
    45    36    37   ar
    46    37    38   ar
    47    47    48   ar
    48    48    40   ar
    49    48    44   ar
    50    10     5   ar
    51    38    33   ar
    52    17    12    1
    53    23    18   ar
    54    45    49    1
    55     1     4    1
    56    31    32    1
