@<TRIPOS>MOLECULE
*****
 47 52 0 0 0
SMALL
GASTEIGER

@<TRIPOS>ATOM
      1 C         -63.3414  -51.0914  -24.4284 C.ar    1  UNL1        0.0702
      2 C         -62.8500  -51.7925  -23.3164 C.ar    1  UNL1        0.0191
      3 C         -63.5976  -52.8280  -22.7533 C.ar    1  UNL1        0.0356
      4 C         -64.8522  -53.1556  -23.2962 C.ar    1  UNL1        0.1318
      5 N         -65.3123  -52.4488  -24.3667 N.ar    1  UNL1       -0.2279
      6 C         -64.6017  -51.4371  -24.9312 C.ar    1  UNL1        0.1149
      7 N         -65.6559  -54.2210  -22.7428 N.pl3   1  UNL1       -0.2932
      8 C         -67.1169  -54.0676  -22.6658 C.3     1  UNL1        0.0923
      9 C         -67.8000  -55.4251  -22.8575 C.3     1  UNL1        0.0252
     10 C         -67.3131  -56.4940  -21.8411 C.3     1  UNL1        0.0472
     11 C         -65.9621  -56.1252  -21.1822 C.3     1  UNL1        0.0252
     12 C         -65.0204  -55.4160  -22.1613 C.3     1  UNL1        0.0923
     13 C         -68.3817  -56.7617  -20.7684 C.3     1  UNL1        0.2054
     14 O         -68.5024  -55.6312  -19.9068 O.3     1  UNL1       -0.4755
     15 C         -68.5431  -55.7008  -18.5066 C.ar    1  UNL1        0.1388
     16 C         -69.7272  -55.9798  -17.7995 C.ar    1  UNL1        0.0369
     17 C         -69.7143  -56.0373  -16.4045 C.ar    1  UNL1        0.0033
     18 C         -68.5273  -55.8185  -15.7019 C.ar    1  UNL1        0.0066
     19 C         -67.3345  -55.5387  -16.3915 C.ar    1  UNL1        0.0785
     20 C         -67.3557  -55.4826  -17.7966 C.ar    1  UNL1        0.0433
     21 C         -66.0733  -55.3058  -15.6535 C.2     1  UNL1        0.3381
     22 O         -66.0376  -54.4927  -14.6904 O.2     1  UNL1       -0.2451
     23 O         -64.9121  -55.9835  -16.0163 O.3     1  UNL1       -0.4771
     24 H         -64.0435  -55.8314  -15.5178 H       1  UNL1        0.2954
     25 C         -63.1556  -48.6889  -25.2137 C.2     1  UNL1        0.2839
     26 O         -64.0864  -48.2768  -24.4703 O.2     1  UNL1       -0.2665
     27 N         -62.6115  -50.0030  -25.0203 N.am    1  UNL1       -0.2766
     28 H         -61.5962  -50.1437  -25.2211 H       1  UNL1        0.1553
     29 C         -63.7457  -48.6387  -28.3937 C.3     1  UNL1        0.0345
     30 C         -62.8383  -47.7516  -27.5959 C.ar    1  UNL1        0.0202
     31 C         -62.5907  -47.7698  -26.2174 C.ar    1  UNL1        0.1946
     32 O         -61.7505  -46.8014  -25.8964 O.2     1  UNL1       -0.4492
     33 C         -61.4233  -46.1702  -26.9973 C.ar    1  UNL1        0.1452
     34 C         -60.5552  -45.0904  -27.1278 C.ar    1  UNL1        0.0375
     35 C         -60.3437  -44.5664  -28.4155 C.ar    1  UNL1        0.0032
     36 C         -61.0062  -45.1219  -29.5402 C.ar    1  UNL1        0.0014
     37 C         -61.8722  -46.2254  -29.3695 C.ar    1  UNL1        0.0029
     38 C         -62.0600  -46.7186  -28.0782 C.ar    1  UNL1        0.0337
     39 C         -60.7556  -44.5754  -30.8920 C.ar    1  UNL1        0.0129
     40 C         -61.7416  -43.7689  -31.4872 C.ar    1  UNL1        0.0012
     41 C         -61.5267  -43.1935  -32.7409 C.ar    1  UNL1        0.0001
     42 C         -60.3270  -43.4165  -33.4161 C.ar    1  UNL1        0.0013
     43 C         -59.3425  -44.2254  -32.8451 C.ar    1  UNL1        0.0141
     44 C         -59.5460  -44.8195  -31.5893 C.ar    1  UNL1        0.0415
     45 N         -58.5390  -45.6959  -31.0650 N.pl3   1  UNL1       -0.3570
     46 H         -58.7047  -46.2874  -30.2220 H       1  UNL1        0.1424
     47 H         -57.6304  -45.8179  -31.5656 H       1  UNL1        0.1424
@<TRIPOS>BOND
     1    29    30    1
     2    30    31   ar
     3    31    25    1
     4    25    26    2
     5    25    27   am
     6    27     1    1
     7     1     2   ar
     8     2     3   ar
     9     3     4   ar
    10     4     7    1
    11     7     8    1
    12     8     9    1
    13     9    10    1
    14    10    13    1
    15    13    14    1
    16    14    15    1
    17    15    16   ar
    18    16    17   ar
    19    17    18   ar
    20    18    19   ar
    21    19    21    1
    22    21    22    2
    23    21    23    1
    24    19    20   ar
    25    10    11    1
    26    11    12    1
    27     4     5   ar
    28     5     6   ar
    29    31    32   ar
    30    32    33   ar
    31    33    34   ar
    32    34    35   ar
    33    35    36   ar
    34    36    39    1
    35    39    40   ar
    36    40    41   ar
    37    41    42   ar
    38    42    43   ar
    39    43    44   ar
    40    44    45    1
    41    36    37   ar
    42    37    38   ar
    43    38    30   ar
    44     6     1   ar
    45    38    33   ar
    46    12     7    1
    47    44    39   ar
    48    20    15   ar
    49    27    28    1
    50    23    24    1
    51    45    46    1
    52    45    47    1
@<TRIPOS>MOLECULE
*****
 47 52 0 0 0
SMALL
GASTEIGER

@<TRIPOS>ATOM
      1 C         -63.4074  -51.2481  -24.4444 C.ar    1  UNL1        0.0702
      2 C         -62.9257  -51.9502  -23.3288 C.ar    1  UNL1        0.0191
      3 C         -63.6491  -53.0254  -22.8103 C.ar    1  UNL1        0.0356
      4 C         -64.8705  -53.3923  -23.4019 C.ar    1  UNL1        0.1318
      5 N         -65.3224  -52.6841  -24.4749 N.ar    1  UNL1       -0.2279
      6 C         -64.6349  -51.6342  -24.9964 C.ar    1  UNL1        0.1149
      7 N         -65.6484  -54.4994  -22.8956 N.pl3   1  UNL1       -0.2932
      8 C         -66.9828  -54.7681  -23.4532 C.3     1  UNL1        0.0923
      9 C         -67.2636  -56.2740  -23.4456 C.3     1  UNL1        0.0252
     10 C         -67.1296  -56.9052  -22.0328 C.3     1  UNL1        0.0472
     11 C         -66.3174  -56.0224  -21.0548 C.3     1  UNL1        0.0252
     12 C         -65.1635  -55.2991  -21.7574 C.3     1  UNL1        0.0923
     13 C         -68.5110  -57.2343  -21.4429 C.3     1  UNL1        0.2054
     14 O         -69.4648  -56.2590  -21.8600 O.3     1  UNL1       -0.4755
     15 C         -70.1619  -55.4076  -20.9905 C.ar    1  UNL1        0.1388
     16 C         -69.5918  -54.2321  -20.4679 C.ar    1  UNL1        0.0369
     17 C         -70.3286  -53.4184  -19.6050 C.ar    1  UNL1        0.0033
     18 C         -71.6353  -53.7652  -19.2549 C.ar    1  UNL1        0.0066
     19 C         -72.2216  -54.9358  -19.7675 C.ar    1  UNL1        0.0785
     20 C         -71.4729  -55.7500  -20.6360 C.ar    1  UNL1        0.0433
     21 C         -73.6056  -55.3093  -19.4006 C.2     1  UNL1        0.3381
     22 O         -74.5820  -54.6252  -19.8111 O.2     1  UNL1       -0.2451
     23 O         -73.8431  -56.4218  -18.5972 O.3     1  UNL1       -0.4771
     24 H         -74.7866  -56.6861  -18.3402 H       1  UNL1        0.2954
     25 C         -63.3106  -48.8443  -25.2418 C.2     1  UNL1        0.2839
     26 O         -64.3200  -48.4862  -24.5772 O.2     1  UNL1       -0.2665
     27 N         -62.7027  -50.1203  -24.9914 N.am    1  UNL1       -0.2766
     28 H         -61.6681  -50.1984  -25.1117 H       1  UNL1        0.1553
     29 C         -63.7890  -48.7518  -28.4395 C.3     1  UNL1        0.0345
     30 C         -62.9268  -47.8621  -27.5959 C.ar    1  UNL1        0.0202
     31 C         -62.7277  -47.8987  -26.2099 C.ar    1  UNL1        0.1946
     32 O         -61.9173  -46.9210  -25.8438 O.2     1  UNL1       -0.4492
     33 C         -61.5631  -46.2659  -26.9222 C.ar    1  UNL1        0.1452
     34 C         -60.7110  -45.1687  -27.0045 C.ar    1  UNL1        0.0375
     35 C         -60.4639  -44.6198  -28.2752 C.ar    1  UNL1        0.0032
     36 C         -61.0759  -45.1682  -29.4316 C.ar    1  UNL1        0.0014
     37 C         -61.9270  -46.2896  -29.3094 C.ar    1  UNL1        0.0029
     38 C         -62.1511  -46.8075  -28.0336 C.ar    1  UNL1        0.0337
     39 C         -60.7879  -44.5949  -30.7646 C.ar    1  UNL1        0.0129
     40 C         -61.7354  -43.7357  -31.3487 C.ar    1  UNL1        0.0012
     41 C         -61.4832  -43.1349  -32.5834 C.ar    1  UNL1        0.0001
     42 C         -60.2843  -43.3847  -33.2506 C.ar    1  UNL1        0.0013
     43 C         -59.3381  -44.2456  -32.6908 C.ar    1  UNL1        0.0141
     44 C         -59.5796  -44.8656  -31.4544 C.ar    1  UNL1        0.0415
     45 N         -58.6129  -45.7935  -30.9430 N.pl3   1  UNL1       -0.3570
     46 H         -58.8114  -46.4010  -30.1186 H       1  UNL1        0.1424
     47 H         -57.7033  -45.9361  -31.4361 H       1  UNL1        0.1424
@<TRIPOS>BOND
     1    29    30    1
     2    30    31   ar
     3    31    25    1
     4    25    26    2
     5    25    27   am
     6    27     1    1
     7     1     2   ar
     8     2     3   ar
     9     3     4   ar
    10     4     7    1
    11     7     8    1
    12     8     9    1
    13     9    10    1
    14    10    13    1
    15    13    14    1
    16    14    15    1
    17    15    16   ar
    18    16    17   ar
    19    17    18   ar
    20    18    19   ar
    21    19    21    1
    22    21    22    2
    23    21    23    1
    24    19    20   ar
    25    10    11    1
    26    11    12    1
    27     4     5   ar
    28     5     6   ar
    29    31    32   ar
    30    32    33   ar
    31    33    34   ar
    32    34    35   ar
    33    35    36   ar
    34    36    39    1
    35    39    40   ar
    36    40    41   ar
    37    41    42   ar
    38    42    43   ar
    39    43    44   ar
    40    44    45    1
    41    36    37   ar
    42    37    38   ar
    43    38    30   ar
    44     6     1   ar
    45    38    33   ar
    46    12     7    1
    47    44    39   ar
    48    20    15   ar
    49    27    28    1
    50    23    24    1
    51    45    46    1
    52    45    47    1
