@<TRIPOS>MOLECULE
*****
 32 35 0 0 0
SMALL
GASTEIGER

@<TRIPOS>ATOM
      1 C          50.5270   11.1859  -25.0418 C.ar    1  UNL1        0.0149
      2 C          49.1885   11.4751  -25.3917 C.ar    1  UNL1        0.0158
      3 C          48.8611   12.7763  -25.7781 C.ar    1  UNL1        0.0598
      4 C          49.8168   13.7681  -25.7978 C.ar    1  UNL1        0.0177
      5 C          51.1456   13.5255  -25.4676 C.ar    1  UNL1        0.0079
      6 C          51.5100   12.2200  -25.0917 C.ar    1  UNL1        0.0330
      7 BR         53.3551   11.9129  -24.6633 Br      1  UNL1       -0.0492
      8 C          49.1772   14.9177  -26.1973 C.ar    1  UNL1        0.0177
      9 C          49.6555   16.2096  -26.4072 C.ar    1  UNL1        0.0082
     10 C          48.7400   17.1857  -26.8364 C.ar    1  UNL1        0.0347
     11 BR         49.3407   18.9650  -27.1768 Br      1  UNL1       -0.0490
     12 C          47.3812   16.8548  -27.0282 C.ar    1  UNL1        0.0082
     13 C          46.9249   15.5428  -26.8086 C.ar    1  UNL1        0.0177
     14 C          47.8552   14.5767  -26.4047 C.ar    1  UNL1        0.0600
     15 N          47.6502   13.2528  -26.1690 N.ar    1  UNL1       -0.3243
     16 C          50.8715    9.7661  -24.6576 C.3     1  UNL1        0.1692
     17 C          49.8346    8.9976  -22.7322 C.3     1  UNL1        0.1746
     18 O          50.9778    9.6401  -23.2527 O.3     1  UNL1       -0.3463
     19 C          46.4157   12.4813  -26.3776 C.3     1  UNL1        0.1429
     20 C          45.4910   12.5041  -25.1421 C.3     1  UNL1        0.2027
     21 F          44.2834   11.9111  -25.4700 F       1  UNL1       -0.2334
     22 C          46.0787   11.8159  -23.9006 C.3     1  UNL1        0.1259
     23 N          46.1863   12.7420  -22.7721 N.pl3   1  UNL1       -0.3157
     24 H          45.4140   12.7533  -22.0676 H       1  UNL1        0.1483
     25 C          47.2094   13.7468  -22.6910 C.ar    1  UNL1        0.1317
     26 C          48.4876   13.4129  -22.2237 C.ar    1  UNL1        0.0343
     27 C          49.4880   14.3868  -22.2073 C.ar    1  UNL1        0.0077
     28 C          49.2097   15.6791  -22.6553 C.ar    1  UNL1        0.0578
     29 C          47.9255   15.9836  -23.1133 C.ar    1  UNL1        0.2261
     30 N          46.9653   15.0175  -23.1184 N.ar    1  UNL1       -0.1969
     31 O          47.6439   17.2742  -23.5701 O.3     1  UNL1       -0.4561
     32 C          46.4453   17.9635  -23.2340 C.3     1  UNL1        0.2542
@<TRIPOS>BOND
     1    17    18    1
     2    18    16    1
     3    16     1    1
     4     1     2   ar
     5     2     3   ar
     6     3     4   ar
     7     4     5   ar
     8     5     6   ar
     9     6     7    1
    10     4     8   ar
    11     8     9   ar
    12     9    10   ar
    13    10    11    1
    14    10    12   ar
    15    12    13   ar
    16    13    14   ar
    17    14    15   ar
    18    15    19    1
    19    19    20    1
    20    20    21    1
    21    20    22    1
    22    22    23    1
    23    23    25    1
    24    25    26   ar
    25    26    27   ar
    26    27    28   ar
    27    28    29   ar
    28    29    31    1
    29    31    32    1
    30    29    30   ar
    31     6     1   ar
    32    14     8   ar
    33    30    25   ar
    34    15     3   ar
    35    23    24    1
@<TRIPOS>MOLECULE
*****
 32 35 0 0 0
SMALL
GASTEIGER

@<TRIPOS>ATOM
      1 C          46.1596   12.6878  -29.8909 C.ar    1  UNL1        0.0149
      2 C          45.9840   13.8275  -29.0737 C.ar    1  UNL1        0.0158
      3 C          46.1576   13.6983  -27.6941 C.ar    1  UNL1        0.0598
      4 C          46.4721   12.4800  -27.1336 C.ar    1  UNL1        0.0177
      5 C          46.6600   11.3358  -27.9010 C.ar    1  UNL1        0.0079
      6 C          46.5099   11.4383  -29.2959 C.ar    1  UNL1        0.0330
      7 BR         46.7974    9.8468  -30.3286 Br      1  UNL1       -0.0492
      8 C          46.5523   12.6847  -25.7764 C.ar    1  UNL1        0.0177
      9 C          46.8547   11.8129  -24.7322 C.ar    1  UNL1        0.0082
     10 C          46.8712   12.3343  -23.4272 C.ar    1  UNL1        0.0347
     11 BR         47.3146   11.1995  -21.9580 Br      1  UNL1       -0.0490
     12 C          46.5731   13.6949  -23.1982 C.ar    1  UNL1        0.0082
     13 C          46.2706   14.5529  -24.2705 C.ar    1  UNL1        0.0177
     14 C          46.2825   14.0227  -25.5669 C.ar    1  UNL1        0.0600
     15 N          46.0569   14.6650  -26.7446 N.ar    1  UNL1       -0.3243
     16 C          46.0004   12.8514  -31.3842 C.3     1  UNL1        0.1692
     17 C          44.5283   12.7410  -33.1714 C.3     1  UNL1        0.1746
     18 O          44.6810   12.5348  -31.7840 O.3     1  UNL1       -0.3463
     19 C          45.8422   16.1039  -26.9592 C.3     1  UNL1        0.1429
     20 C          47.1299   16.9290  -26.7518 C.3     1  UNL1        0.2027
     21 F          47.2659   17.2245  -25.4059 F       1  UNL1       -0.2334
     22 C          48.4081   16.2424  -27.2568 C.3     1  UNL1        0.1259
     23 N          49.4818   16.3066  -26.2639 N.pl3   1  UNL1       -0.3157
     24 H          50.0987   17.1504  -26.2580 H       1  UNL1        0.1483
     25 C          49.8279   15.1926  -25.4258 C.ar    1  UNL1        0.1317
     26 C          50.0212   15.3804  -24.0507 C.ar    1  UNL1        0.0343
     27 C          50.2982   14.2778  -23.2400 C.ar    1  UNL1        0.0077
     28 C          50.3791   13.0026  -23.8021 C.ar    1  UNL1        0.0578
     29 C          50.1843   12.8463  -25.1766 C.ar    1  UNL1        0.2261
     30 N          49.9169   13.9369  -25.9475 N.ar    1  UNL1       -0.1969
     31 O          50.2567   11.5705  -25.7428 O.3     1  UNL1       -0.4561
     32 C          50.4034   10.3904  -24.9613 C.3     1  UNL1        0.2542
@<TRIPOS>BOND
     1    17    18    1
     2    18    16    1
     3    16     1    1
     4     1     2   ar
     5     2     3   ar
     6     3     4   ar
     7     4     5   ar
     8     5     6   ar
     9     6     7    1
    10     4     8   ar
    11     8     9   ar
    12     9    10   ar
    13    10    11    1
    14    10    12   ar
    15    12    13   ar
    16    13    14   ar
    17    14    15   ar
    18    15    19    1
    19    19    20    1
    20    20    21    1
    21    20    22    1
    22    22    23    1
    23    23    25    1
    24    25    26   ar
    25    26    27   ar
    26    27    28   ar
    27    28    29   ar
    28    29    31    1
    29    31    32    1
    30    29    30   ar
    31     6     1   ar
    32    14     8   ar
    33    30    25   ar
    34    15     3   ar
    35    23    24    1
@<TRIPOS>MOLECULE
*****
 32 35 0 0 0
SMALL
GASTEIGER

@<TRIPOS>ATOM
      1 C          46.1635   12.6509  -29.9114 C.ar    1  UNL1        0.0149
      2 C          45.9659   13.7869  -29.0941 C.ar    1  UNL1        0.0158
      3 C          46.1269   13.6574  -27.7131 C.ar    1  UNL1        0.0598
      4 C          46.4502   12.4420  -27.1513 C.ar    1  UNL1        0.0177
      5 C          46.6596   11.3015  -27.9187 C.ar    1  UNL1        0.0079
      6 C          46.5226   11.4046  -29.3149 C.ar    1  UNL1        0.0330
      7 BR         46.8396    9.8185  -30.3473 Br      1  UNL1       -0.0492
      8 C          46.5140   12.6451  -25.7931 C.ar    1  UNL1        0.0177
      9 C          46.8162   11.7752  -24.7473 C.ar    1  UNL1        0.0082
     10 C          46.8131   12.2944  -23.4413 C.ar    1  UNL1        0.0347
     11 BR         47.2549   11.1624  -21.9696 Br      1  UNL1       -0.0490
     12 C          46.4964   13.6510  -23.2131 C.ar    1  UNL1        0.0082
     13 C          46.1947   14.5072  -24.2871 C.ar    1  UNL1        0.0177
     14 C          46.2261   13.9795  -25.5841 C.ar    1  UNL1        0.0600
     15 N          46.0049   14.6211  -26.7630 N.ar    1  UNL1       -0.3243
     16 C          46.0177   12.8152  -31.4060 C.3     1  UNL1        0.1692
     17 C          44.5537   12.7454  -33.2019 C.3     1  UNL1        0.1746
     18 O          44.6854   12.5628  -31.8091 O.3     1  UNL1       -0.3463
     19 C          45.7752   16.0577  -26.9774 C.3     1  UNL1        0.1429
     20 C          47.0604   16.8931  -26.7975 C.3     1  UNL1        0.2027
     21 F          47.1867   17.2475  -25.4649 F       1  UNL1       -0.2334
     22 C          48.3430   16.1869  -27.2630 C.3     1  UNL1        0.1259
     23 N          49.4090   16.2945  -26.2656 N.pl3   1  UNL1       -0.3157
     24 H          50.0854   17.0871  -26.3497 H       1  UNL1        0.1483
     25 C          49.6656   15.2683  -25.2939 C.ar    1  UNL1        0.1317
     26 C          50.0014   13.9732  -25.7108 C.ar    1  UNL1        0.0343
     27 C          50.3064   13.0023  -24.7548 C.ar    1  UNL1        0.0077
     28 C          50.2760   13.3272  -23.3977 C.ar    1  UNL1        0.0578
     29 C          49.9352   14.6258  -23.0116 C.ar    1  UNL1        0.2261
     30 N          49.6400   15.5557  -23.9621 N.ar    1  UNL1       -0.1969
     31 O          49.9108   14.9580  -21.6542 O.3     1  UNL1       -0.4561
     32 C          49.5940   14.0138  -20.6379 C.3     1  UNL1        0.2542
@<TRIPOS>BOND
     1    17    18    1
     2    18    16    1
     3    16     1    1
     4     1     2   ar
     5     2     3   ar
     6     3     4   ar
     7     4     5   ar
     8     5     6   ar
     9     6     7    1
    10     4     8   ar
    11     8     9   ar
    12     9    10   ar
    13    10    11    1
    14    10    12   ar
    15    12    13   ar
    16    13    14   ar
    17    14    15   ar
    18    15    19    1
    19    19    20    1
    20    20    21    1
    21    20    22    1
    22    22    23    1
    23    23    25    1
    24    25    26   ar
    25    26    27   ar
    26    27    28   ar
    27    28    29   ar
    28    29    31    1
    29    31    32    1
    30    29    30   ar
    31     6     1   ar
    32    14     8   ar
    33    30    25   ar
    34    15     3   ar
    35    23    24    1
@<TRIPOS>MOLECULE
*****
 32 35 0 0 0
SMALL
GASTEIGER

@<TRIPOS>ATOM
      1 C          50.1202   11.2177  -25.1030 C.ar    1  UNL1        0.0149
      2 C          48.8759   11.5934  -24.5479 C.ar    1  UNL1        0.0158
      3 C          48.5033   12.9387  -24.5825 C.ar    1  UNL1        0.0598
      4 C          49.3395   13.8886  -25.1265 C.ar    1  UNL1        0.0177
      5 C          50.5685   13.5616  -25.6887 C.ar    1  UNL1        0.0079
      6 C          50.9636   12.2116  -25.6852 C.ar    1  UNL1        0.0330
      7 BR         52.6547   11.7901  -26.4881 Br      1  UNL1       -0.0492
      8 C          48.6978   15.0968  -24.9895 C.ar    1  UNL1        0.0177
      9 C          49.0689   16.3831  -25.3763 C.ar    1  UNL1        0.0082
     10 C          48.1749   17.4328  -25.1040 C.ar    1  UNL1        0.0347
     11 BR         48.6090   19.2118  -25.6420 Br      1  UNL1       -0.0490
     12 C          46.9528   17.1770  -24.4454 C.ar    1  UNL1        0.0082
     13 C          46.6032   15.8689  -24.0655 C.ar    1  UNL1        0.0177
     14 C          47.4945   14.8312  -24.3661 C.ar    1  UNL1        0.0600
     15 N          47.3525   13.4996  -24.1273 N.ar    1  UNL1       -0.3243
     16 C          50.4940    9.7541  -25.0871 C.3     1  UNL1        0.1692
     17 C          50.1211    8.4359  -23.2171 C.3     1  UNL1        0.1746
     18 O          50.9852    9.3774  -23.8151 O.3     1  UNL1       -0.3463
     19 C          46.1781   12.8024  -23.5819 C.3     1  UNL1        0.1429
     20 C          45.0570   12.6296  -24.6284 C.3     1  UNL1        0.2027
     21 F          44.6192   13.8795  -25.0328 F       1  UNL1       -0.2334
     22 C          45.4643   11.8067  -25.8602 C.3     1  UNL1        0.1259
     23 N          46.0653   12.6491  -26.8955 N.pl3   1  UNL1       -0.3157
     24 H          46.2546   13.6515  -26.6677 H       1  UNL1        0.1483
     25 C          46.2384   12.2044  -28.2503 C.ar    1  UNL1        0.1317
     26 C          46.6532   10.8917  -28.5120 C.ar    1  UNL1        0.0343
     27 C          46.7590   10.4566  -29.8345 C.ar    1  UNL1        0.0077
     28 C          46.4515   11.3274  -30.8812 C.ar    1  UNL1        0.0578
     29 C          46.0431   12.6312  -30.5899 C.ar    1  UNL1        0.2261
     30 N          45.9487   13.0337  -29.2921 N.ar    1  UNL1       -0.1969
     31 O          45.7266   13.5045  -31.6343 O.3     1  UNL1       -0.4561
     32 C          45.3433   13.0492  -32.9268 C.3     1  UNL1        0.2542
@<TRIPOS>BOND
     1    17    18    1
     2    18    16    1
     3    16     1    1
     4     1     2   ar
     5     2     3   ar
     6     3     4   ar
     7     4     5   ar
     8     5     6   ar
     9     6     7    1
    10     4     8   ar
    11     8     9   ar
    12     9    10   ar
    13    10    11    1
    14    10    12   ar
    15    12    13   ar
    16    13    14   ar
    17    14    15   ar
    18    15    19    1
    19    19    20    1
    20    20    21    1
    21    20    22    1
    22    22    23    1
    23    23    25    1
    24    25    26   ar
    25    26    27   ar
    26    27    28   ar
    27    28    29   ar
    28    29    31    1
    29    31    32    1
    30    29    30   ar
    31     6     1   ar
    32    14     8   ar
    33    30    25   ar
    34    15     3   ar
    35    23    24    1
@<TRIPOS>MOLECULE
*****
 32 35 0 0 0
SMALL
GASTEIGER

@<TRIPOS>ATOM
      1 C          46.4975   11.5767  -29.0257 C.ar    1  UNL1        0.0149
      2 C          46.8227   11.4870  -27.6532 C.ar    1  UNL1        0.0158
      3 C          46.7926   12.6482  -26.8782 C.ar    1  UNL1        0.0598
      4 C          46.4743   13.8643  -27.4414 C.ar    1  UNL1        0.0177
      5 C          46.1420   13.9961  -28.7851 C.ar    1  UNL1        0.0079
      6 C          46.1456   12.8410  -29.5877 C.ar    1  UNL1        0.0330
      7 BR         45.6613   13.0526  -31.4324 Br      1  UNL1       -0.0492
      8 C          46.5529   14.7939  -26.4314 C.ar    1  UNL1        0.0177
      9 C          46.3179   16.1675  -26.4268 C.ar    1  UNL1        0.0082
     10 C          46.4713   16.8544  -25.2104 C.ar    1  UNL1        0.0347
     11 BR         46.1281   18.7302  -25.1307 Br      1  UNL1       -0.0490
     12 C          46.8667   16.1630  -24.0449 C.ar    1  UNL1        0.0082
     13 C          47.0979   14.7762  -24.0777 C.ar    1  UNL1        0.0177
     14 C          46.9167   14.1029  -25.2925 C.ar    1  UNL1        0.0600
     15 N          47.0484   12.7737  -25.5496 N.ar    1  UNL1       -0.3243
     16 C          46.5028   10.3062  -29.8429 C.3     1  UNL1        0.1692
     17 C          48.2119    8.7505  -30.0223 C.3     1  UNL1        0.1746
     18 O          47.2184    9.2851  -29.1750 O.3     1  UNL1       -0.3463
     19 C          47.3172   11.6927  -24.5895 C.3     1  UNL1        0.1429
     20 C          48.8252   11.5060  -24.3196 C.3     1  UNL1        0.2027
     21 F          49.0209   10.3067  -23.6557 F       1  UNL1       -0.2334
     22 C          49.7017   11.5416  -25.5810 C.3     1  UNL1        0.1259
     23 N          50.8055   12.4930  -25.4428 N.pl3   1  UNL1       -0.3157
     24 H          51.7799   12.1164  -25.4053 H       1  UNL1        0.1483
     25 C          50.5947   13.8895  -25.1814 C.ar    1  UNL1        0.1317
     26 C          50.8262   14.4079  -23.9002 C.ar    1  UNL1        0.0343
     27 C          50.6745   15.7779  -23.6768 C.ar    1  UNL1        0.0077
     28 C          50.2964   16.6172  -24.7261 C.ar    1  UNL1        0.0578
     29 C          50.0699   16.0717  -25.9921 C.ar    1  UNL1        0.2261
     30 N          50.2226   14.7321  -26.1856 N.ar    1  UNL1       -0.1969
     31 O          49.6986   16.9091  -27.0477 O.3     1  UNL1       -0.4561
     32 C          49.6245   18.3240  -26.9162 C.3     1  UNL1        0.2542
@<TRIPOS>BOND
     1    17    18    1
     2    18    16    1
     3    16     1    1
     4     1     2   ar
     5     2     3   ar
     6     3     4   ar
     7     4     5   ar
     8     5     6   ar
     9     6     7    1
    10     4     8   ar
    11     8     9   ar
    12     9    10   ar
    13    10    11    1
    14    10    12   ar
    15    12    13   ar
    16    13    14   ar
    17    14    15   ar
    18    15    19    1
    19    19    20    1
    20    20    21    1
    21    20    22    1
    22    22    23    1
    23    23    25    1
    24    25    26   ar
    25    26    27   ar
    26    27    28   ar
    27    28    29   ar
    28    29    31    1
    29    31    32    1
    30    29    30   ar
    31     6     1   ar
    32    14     8   ar
    33    30    25   ar
    34    15     3   ar
    35    23    24    1
@<TRIPOS>MOLECULE
*****
 32 35 0 0 0
SMALL
GASTEIGER

@<TRIPOS>ATOM
      1 C          47.4964   12.5780  -20.7514 C.ar    1  UNL1        0.0149
      2 C          46.8180   12.8552  -21.9599 C.ar    1  UNL1        0.0158
      3 C          47.3745   13.7797  -22.8462 C.ar    1  UNL1        0.0598
      4 C          48.5510   14.4285  -22.5423 C.ar    1  UNL1        0.0177
      5 C          49.2536   14.1810  -21.3682 C.ar    1  UNL1        0.0079
      6 C          48.7275   13.2410  -20.4636 C.ar    1  UNL1        0.0330
      7 BR         49.7319   12.9057  -18.8633 Br      1  UNL1       -0.0492
      8 C          48.8133   15.2731  -23.5949 C.ar    1  UNL1        0.0177
      9 C          49.8718   16.1488  -23.8284 C.ar    1  UNL1        0.0082
     10 C          49.8645   16.8805  -25.0283 C.ar    1  UNL1        0.0347
     11 BR         51.3049   18.0688  -25.4233 Br      1  UNL1       -0.0490
     12 C          48.8039   16.7329  -25.9480 C.ar    1  UNL1        0.0082
     13 C          47.7475   15.8421  -25.6872 C.ar    1  UNL1        0.0177
     14 C          47.7826   15.1027  -24.4981 C.ar    1  UNL1        0.0600
     15 N          46.8976   14.1684  -24.0577 N.ar    1  UNL1       -0.3243
     16 C          46.8982   11.5513  -19.8186 C.3     1  UNL1        0.1692
     17 C          44.7752   12.0485  -19.0317 C.3     1  UNL1        0.1746
     18 O          46.1590   12.1810  -18.7900 O.3     1  UNL1       -0.3463
     19 C          45.7308   13.6264  -24.7700 C.3     1  UNL1        0.1429
     20 C          46.0188   12.2533  -25.4132 C.3     1  UNL1        0.2027
     21 F          44.8269   11.6983  -25.8475 F       1  UNL1       -0.2334
     22 C          47.0171   12.2994  -26.5801 C.3     1  UNL1        0.1259
     23 N          48.1319   11.3740  -26.3716 N.pl3   1  UNL1       -0.3157
     24 H          48.0623   10.4164  -26.7850 H       1  UNL1        0.1483
     25 C          49.2232   11.6652  -25.4843 C.ar    1  UNL1        0.1317
     26 C          50.1727   12.6354  -25.8320 C.ar    1  UNL1        0.0343
     27 C          51.1934   12.9496  -24.9325 C.ar    1  UNL1        0.0077
     28 C          51.2598   12.2992  -23.6992 C.ar    1  UNL1        0.0578
     29 C          50.3008   11.3345  -23.3810 C.ar    1  UNL1        0.2261
     30 N          49.3153   11.0436  -24.2751 N.ar    1  UNL1       -0.1969
     31 O          50.3586   10.6860  -22.1442 O.3     1  UNL1       -0.4561
     32 C          49.5988    9.5187  -21.8528 C.3     1  UNL1        0.2542
@<TRIPOS>BOND
     1    17    18    1
     2    18    16    1
     3    16     1    1
     4     1     2   ar
     5     2     3   ar
     6     3     4   ar
     7     4     5   ar
     8     5     6   ar
     9     6     7    1
    10     4     8   ar
    11     8     9   ar
    12     9    10   ar
    13    10    11    1
    14    10    12   ar
    15    12    13   ar
    16    13    14   ar
    17    14    15   ar
    18    15    19    1
    19    19    20    1
    20    20    21    1
    21    20    22    1
    22    22    23    1
    23    23    25    1
    24    25    26   ar
    25    26    27   ar
    26    27    28   ar
    27    28    29   ar
    28    29    31    1
    29    31    32    1
    30    29    30   ar
    31     6     1   ar
    32    14     8   ar
    33    30    25   ar
    34    15     3   ar
    35    23    24    1
@<TRIPOS>MOLECULE
*****
 32 35 0 0 0
SMALL
GASTEIGER

@<TRIPOS>ATOM
      1 C          48.0148   12.3674  -21.7698 C.ar    1  UNL1        0.0149
      2 C          47.5622   13.5547  -22.3885 C.ar    1  UNL1        0.0158
      3 C          47.2561   13.5280  -23.7507 C.ar    1  UNL1        0.0598
      4 C          47.4123   12.3740  -24.4865 C.ar    1  UNL1        0.0177
      5 C          47.8484   11.1832  -23.9163 C.ar    1  UNL1        0.0079
      6 C          48.1472   11.1739  -22.5418 C.ar    1  UNL1        0.0330
      7 BR         48.7254    9.5100  -21.7807 Br      1  UNL1       -0.0492
      8 C          47.0503   12.6824  -25.7764 C.ar    1  UNL1        0.0177
      9 C          46.9967   11.8992  -26.9278 C.ar    1  UNL1        0.0082
     10 C          46.5640   12.5108  -28.1168 C.ar    1  UNL1        0.0347
     11 BR         46.4336   11.4824  -29.7193 Br      1  UNL1       -0.0490
     12 C          46.2143   13.8784  -28.1300 C.ar    1  UNL1        0.0082
     13 C          46.2779   14.6460  -26.9534 C.ar    1  UNL1        0.0177
     14 C          46.6879   14.0150  -25.7721 C.ar    1  UNL1        0.0600
     15 N          46.7909   14.5443  -24.5233 N.ar    1  UNL1       -0.3243
     16 C          48.3104   12.4046  -20.2887 C.3     1  UNL1        0.1692
     17 C          50.1024   11.8123  -18.9430 C.3     1  UNL1        0.1746
     18 O          49.6960   12.5731  -20.0595 O.3     1  UNL1       -0.3463
     19 C          46.3997   15.8911  -24.0806 C.3     1  UNL1        0.1429
     20 C          47.6127   16.8293  -23.9060 C.3     1  UNL1        0.2027
     21 F          48.2717   16.5030  -22.7327 F       1  UNL1       -0.2334
     22 C          48.6073   16.8001  -25.0767 C.3     1  UNL1        0.1259
     23 N          49.9575   16.4567  -24.6274 N.pl3   1  UNL1       -0.3157
     24 H          50.6513   17.2303  -24.5134 H       1  UNL1        0.1483
     25 C          50.4117   15.0992  -24.5101 C.ar    1  UNL1        0.1317
     26 C          50.3813   14.2487  -25.6234 C.ar    1  UNL1        0.0343
     27 C          50.8818   12.9503  -25.5087 C.ar    1  UNL1        0.0077
     28 C          51.4074   12.5112  -24.2923 C.ar    1  UNL1        0.0578
     29 C          51.4222   13.3805  -23.1988 C.ar    1  UNL1        0.2261
     30 N          50.9269   14.6421  -23.3342 N.ar    1  UNL1       -0.1969
     31 O          51.9544   12.9480  -21.9809 O.3     1  UNL1       -0.4561
     32 C          52.7047   13.8014  -21.1243 C.3     1  UNL1        0.2542
@<TRIPOS>BOND
     1    17    18    1
     2    18    16    1
     3    16     1    1
     4     1     2   ar
     5     2     3   ar
     6     3     4   ar
     7     4     5   ar
     8     5     6   ar
     9     6     7    1
    10     4     8   ar
    11     8     9   ar
    12     9    10   ar
    13    10    11    1
    14    10    12   ar
    15    12    13   ar
    16    13    14   ar
    17    14    15   ar
    18    15    19    1
    19    19    20    1
    20    20    21    1
    21    20    22    1
    22    22    23    1
    23    23    25    1
    24    25    26   ar
    25    26    27   ar
    26    27    28   ar
    27    28    29   ar
    28    29    31    1
    29    31    32    1
    30    29    30   ar
    31     6     1   ar
    32    14     8   ar
    33    30    25   ar
    34    15     3   ar
    35    23    24    1
@<TRIPOS>MOLECULE
*****
 32 35 0 0 0
SMALL
GASTEIGER

@<TRIPOS>ATOM
      1 C          47.0658   12.0706  -25.6798 C.ar    1  UNL1        0.0149
      2 C          48.1177   11.2002  -25.3147 C.ar    1  UNL1        0.0158
      3 C          48.3687   10.9812  -23.9587 C.ar    1  UNL1        0.0598
      4 C          47.6220   11.6168  -22.9913 C.ar    1  UNL1        0.0177
      5 C          46.5746   12.4753  -23.3065 C.ar    1  UNL1        0.0079
      6 C          46.2857   12.7017  -24.6643 C.ar    1  UNL1        0.0330
      7 BR         44.8206   13.8741  -25.0662 Br      1  UNL1       -0.0492
      8 C          48.1263   11.2086  -21.7791 C.ar    1  UNL1        0.0177
      9 C          47.7459   11.5181  -20.4747 C.ar    1  UNL1        0.0082
     10 C          48.4616   10.9192  -19.4239 C.ar    1  UNL1        0.0347
     11 BR         47.9654   11.2740  -17.6154 Br      1  UNL1       -0.0490
     12 C          49.5378   10.0480  -19.6985 C.ar    1  UNL1        0.0082
     13 C          49.9010    9.7531  -21.0247 C.ar    1  UNL1        0.0177
     14 C          49.1618   10.3392  -22.0600 C.ar    1  UNL1        0.0600
     15 N          49.3093   10.1739  -23.4021 N.ar    1  UNL1       -0.3243
     16 C          46.7861   12.2714  -27.1507 C.3     1  UNL1        0.1692
     17 C          46.7751   10.7626  -28.9105 C.3     1  UNL1        0.1746
     18 O          46.1526   11.1317  -27.6993 O.3     1  UNL1       -0.3463
     19 C          50.2210    9.2564  -24.1019 C.3     1  UNL1        0.1429
     20 C          51.6738    9.7766  -24.1291 C.3     1  UNL1        0.2027
     21 F          52.4691    8.8624  -24.7993 F       1  UNL1       -0.2334
     22 C          51.8362   11.1633  -24.7704 C.3     1  UNL1        0.1259
     23 N          52.3860   12.1337  -23.8224 N.pl3   1  UNL1       -0.3157
     24 H          53.4203   12.1446  -23.6713 H       1  UNL1        0.1483
     25 C          51.5555   12.9395  -22.9715 C.ar    1  UNL1        0.1317
     26 C          50.6203   13.8203  -23.5312 C.ar    1  UNL1        0.0343
     27 C          49.7790   14.5523  -22.6909 C.ar    1  UNL1        0.0077
     28 C          49.8743   14.4016  -21.3065 C.ar    1  UNL1        0.0578
     29 C          50.8179   13.5180  -20.7770 C.ar    1  UNL1        0.2261
     30 N          51.6289   12.8157  -21.6164 N.ar    1  UNL1       -0.1969
     31 O          50.9119   13.3578  -19.3917 O.3     1  UNL1       -0.4561
     32 C          52.0054   12.6946  -18.7676 C.3     1  UNL1        0.2542
@<TRIPOS>BOND
     1    17    18    1
     2    18    16    1
     3    16     1    1
     4     1     2   ar
     5     2     3   ar
     6     3     4   ar
     7     4     5   ar
     8     5     6   ar
     9     6     7    1
    10     4     8   ar
    11     8     9   ar
    12     9    10   ar
    13    10    11    1
    14    10    12   ar
    15    12    13   ar
    16    13    14   ar
    17    14    15   ar
    18    15    19    1
    19    19    20    1
    20    20    21    1
    21    20    22    1
    22    22    23    1
    23    23    25    1
    24    25    26   ar
    25    26    27   ar
    26    27    28   ar
    27    28    29   ar
    28    29    31    1
    29    31    32    1
    30    29    30   ar
    31     6     1   ar
    32    14     8   ar
    33    30    25   ar
    34    15     3   ar
    35    23    24    1
@<TRIPOS>MOLECULE
*****
 32 35 0 0 0
SMALL
GASTEIGER

@<TRIPOS>ATOM
      1 C          49.0032   15.4876  -23.9202 C.ar    1  UNL1        0.0149
      2 C          48.8701   14.2120  -23.3263 C.ar    1  UNL1        0.0158
      3 C          49.4161   13.1059  -23.9807 C.ar    1  UNL1        0.0598
      4 C          50.0537   13.2474  -25.1935 C.ar    1  UNL1        0.0177
      5 C          50.2122   14.4839  -25.8093 C.ar    1  UNL1        0.0079
      6 C          49.6888   15.6197  -25.1654 C.ar    1  UNL1        0.0330
      7 BR         49.9432   17.3139  -26.0299 Br      1  UNL1       -0.0492
      8 C          50.4523   11.9876  -25.5734 C.ar    1  UNL1        0.0177
      9 C          51.1503   11.5441  -26.6951 C.ar    1  UNL1        0.0082
     10 C          51.4248   10.1694  -26.7948 C.ar    1  UNL1        0.0347
     11 BR         52.4093    9.5049  -28.2888 Br      1  UNL1       -0.0490
     12 C          50.9866    9.2792  -25.7908 C.ar    1  UNL1        0.0082
     13 C          50.2835    9.7536  -24.6691 C.ar    1  UNL1        0.0177
     14 C          50.0396   11.1295  -24.5733 C.ar    1  UNL1        0.0600
     15 N          49.4161   11.8095  -23.5737 N.ar    1  UNL1       -0.3243
     16 C          48.4358   16.6784  -23.1837 C.3     1  UNL1        0.1692
     17 C          46.4514   17.8754  -23.1362 C.3     1  UNL1        0.1746
     18 O          47.0268   16.5878  -23.0973 O.3     1  UNL1       -0.3463
     19 C          48.9292   11.2798  -22.2912 C.3     1  UNL1        0.1429
     20 C          47.4558   10.8260  -22.3625 C.3     1  UNL1        0.2027
     21 F          47.2552    9.7967  -21.4583 F       1  UNL1       -0.2334
     22 C          46.4368   11.9451  -22.0983 C.3     1  UNL1        0.1259
     23 N          45.4799   12.0726  -23.1986 N.pl3   1  UNL1       -0.3157
     24 H          44.5252   11.6660  -23.0719 H       1  UNL1        0.1483
     25 C          45.8522   12.5698  -24.4937 C.ar    1  UNL1        0.1317
     26 C          45.6596   13.9213  -24.8100 C.ar    1  UNL1        0.0343
     27 C          46.0816   14.4022  -26.0511 C.ar    1  UNL1        0.0077
     28 C          46.6902   13.5380  -26.9628 C.ar    1  UNL1        0.0578
     29 C          46.8667   12.1950  -26.6208 C.ar    1  UNL1        0.2261
     30 N          46.4455   11.7485  -25.4049 N.ar    1  UNL1       -0.1969
     31 O          47.4825   11.3275  -27.5272 O.3     1  UNL1       -0.4561
     32 C          46.8136   10.8117  -28.6724 C.3     1  UNL1        0.2542
@<TRIPOS>BOND
     1    17    18    1
     2    18    16    1
     3    16     1    1
     4     1     2   ar
     5     2     3   ar
     6     3     4   ar
     7     4     5   ar
     8     5     6   ar
     9     6     7    1
    10     4     8   ar
    11     8     9   ar
    12     9    10   ar
    13    10    11    1
    14    10    12   ar
    15    12    13   ar
    16    13    14   ar
    17    14    15   ar
    18    15    19    1
    19    19    20    1
    20    20    21    1
    21    20    22    1
    22    22    23    1
    23    23    25    1
    24    25    26   ar
    25    26    27   ar
    26    27    28   ar
    27    28    29   ar
    28    29    31    1
    29    31    32    1
    30    29    30   ar
    31     6     1   ar
    32    14     8   ar
    33    30    25   ar
    34    15     3   ar
    35    23    24    1
