@<TRIPOS>MOLECULE
*****
 46 51 0 0 0
SMALL
GASTEIGER

@<TRIPOS>ATOM
      1 C          10.8328   79.9192   23.9777 C.ar    1  UNL1        0.0702
      2 C           9.6621   79.9376   23.2117 C.ar    1  UNL1        0.0191
      3 C           8.7806   78.8561   23.2463 C.ar    1  UNL1        0.0356
      4 C           9.0862   77.7361   24.0389 C.ar    1  UNL1        0.1318
      5 N          10.2446   77.7326   24.7570 N.ar    1  UNL1       -0.2279
      6 C          11.1146   78.7767   24.7426 C.ar    1  UNL1        0.1149
      7 N           8.2002   76.5974   24.1045 N.pl3   1  UNL1       -0.2932
      8 C           6.8584   76.6845   23.5079 C.3     1  UNL1        0.0923
      9 C           6.4314   75.3136   22.9777 C.3     1  UNL1        0.0252
     10 C           6.4260   74.2279   24.0857 C.3     1  UNL1        0.0472
     11 C           7.3651   74.5713   25.2692 C.3     1  UNL1        0.0252
     12 C           8.5940   75.3783   24.8323 C.3     1  UNL1        0.0923
     13 C           6.7609   72.8458   23.5002 C.3     1  UNL1        0.2054
     14 O           7.4542   72.9974   22.2628 O.3     1  UNL1       -0.4755
     15 C           8.8501   72.9860   22.1282 C.ar    1  UNL1        0.1388
     16 C           9.6182   71.8252   22.3350 C.ar    1  UNL1        0.0369
     17 C          11.0062   71.8670   22.1890 C.ar    1  UNL1        0.0033
     18 C          11.6413   73.0600   21.8368 C.ar    1  UNL1        0.0066
     19 C          10.8902   74.2297   21.6260 C.ar    1  UNL1        0.0785
     20 C           9.4927   74.1793   21.7750 C.ar    1  UNL1        0.0433
     21 C          11.5565   75.4971   21.2529 C.2     1  UNL1        0.3381
     22 O          11.4563   76.5133   21.9927 O.2     1  UNL1       -0.2451
     23 O          12.3017   75.5796   20.0794 O.3     1  UNL1       -0.4771
     24 H          12.7618   76.4425   19.8147 H       1  UNL1        0.2954
     25 C          11.7861   82.0939   24.8804 C.2     1  UNL1        0.2839
     26 O          11.0550   82.0553   25.9058 O.2     1  UNL1       -0.2665
     27 N          11.7404   81.0316   23.9115 N.am    1  UNL1       -0.2766
     28 H          12.3610   81.0875   23.0751 H       1  UNL1        0.1553
     29 C          15.6161   86.7105   24.5166 C.ar    1  UNL1        0.0003
     30 C          14.9930   86.8022   23.2424 C.ar    1  UNL1        0.0031
     31 C          13.9925   85.8904   22.8618 C.ar    1  UNL1        0.0375
     32 C          13.6329   84.9001   23.7694 C.ar    1  UNL1        0.1452
     33 O          12.7318   83.9616   23.6101 O.2     1  UNL1       -0.4492
     34 C          12.6994   83.2379   24.7154 C.ar    1  UNL1        0.1946
     35 C          13.6464   83.7171   25.6292 C.ar    1  UNL1        0.0202
     36 C          14.0062   83.1705   26.9775 C.3     1  UNL1        0.0345
     37 C          14.2243   84.8006   24.9991 C.ar    1  UNL1        0.0337
     38 C          15.2209   85.6858   25.4097 C.ar    1  UNL1        0.0028
     39 C          18.7515   88.8693   24.4110 C.ar    1  UNL1        0.1387
     40 C          18.6710   89.5076   25.6530 C.ar    1  UNL1        0.0369
     41 C          17.6081   89.2421   26.5181 C.ar    1  UNL1        0.0031
     42 C          16.6134   88.3340   26.1502 C.ar    1  UNL1        0.0002
     43 C          16.6720   87.6787   24.9076 C.ar    1  UNL1        0.0030
     44 C          17.7471   87.9531   24.0409 C.ar    1  UNL1        0.0369
     45 C          19.8150   89.0758   22.1568 C.3     1  UNL1        0.2525
     46 O          19.8386   89.1721   23.5773 O.3     1  UNL1       -0.4714
@<TRIPOS>BOND
     1    45    46    1
     2    46    39    1
     3    39    40   ar
     4    40    41   ar
     5    41    42   ar
     6    42    43   ar
     7    43    29    1
     8    29    30   ar
     9    30    31   ar
    10    31    32   ar
    11    32    33   ar
    12    33    34   ar
    13    34    25    1
    14    25    26    2
    15    25    27   am
    16    27     1    1
    17     1     2   ar
    18     2     3   ar
    19     3     4   ar
    20     4     7    1
    21     7     8    1
    22     8     9    1
    23     9    10    1
    24    10    13    1
    25    13    14    1
    26    14    15    1
    27    15    16   ar
    28    16    17   ar
    29    17    18   ar
    30    18    19   ar
    31    19    21    1
    32    21    22    2
    33    21    23    1
    34    19    20   ar
    35    10    11    1
    36    11    12    1
    37     4     5   ar
    38     5     6   ar
    39    34    35   ar
    40    35    36    1
    41    35    37   ar
    42    37    38   ar
    43    43    44   ar
    44    44    39   ar
    45    38    29   ar
    46    37    32   ar
    47     6     1   ar
    48    12     7    1
    49    20    15   ar
    50    27    28    1
    51    23    24    1
@<TRIPOS>MOLECULE
*****
 46 51 0 0 0
SMALL
GASTEIGER

@<TRIPOS>ATOM
      1 C          10.0335   79.9459   23.8027 C.ar    1  UNL1        0.0702
      2 C           9.8064   79.0480   24.8516 C.ar    1  UNL1        0.0191
      3 C           9.1023   77.8645   24.6256 C.ar    1  UNL1        0.0356
      4 C           8.6016   77.5886   23.3414 C.ar    1  UNL1        0.1318
      5 N           8.8154   78.4906   22.3423 N.ar    1  UNL1       -0.2279
      6 C           9.5029   79.6465   22.5384 C.ar    1  UNL1        0.1149
      7 N           7.8697   76.3745   23.0647 N.pl3   1  UNL1       -0.2932
      8 C           6.9769   75.8137   24.0905 C.3     1  UNL1        0.0923
      9 C           5.7909   75.1115   23.4248 C.3     1  UNL1        0.0252
     10 C           6.2390   73.9778   22.4655 C.3     1  UNL1        0.0472
     11 C           7.6841   74.1697   21.9407 C.3     1  UNL1        0.0252
     12 C           8.0688   75.6476   21.7987 C.3     1  UNL1        0.0923
     13 C           5.2466   73.8210   21.3011 C.3     1  UNL1        0.2054
     14 O           4.4194   74.9794   21.2086 O.3     1  UNL1       -0.4755
     15 C           4.4088   75.8626   20.1192 C.ar    1  UNL1        0.1388
     16 C           3.5486   75.6923   19.0187 C.ar    1  UNL1        0.0369
     17 C           3.5778   76.6002   17.9582 C.ar    1  UNL1        0.0033
     18 C           4.4601   77.6826   17.9824 C.ar    1  UNL1        0.0066
     19 C           5.3267   77.8689   19.0738 C.ar    1  UNL1        0.0785
     20 C           5.2911   76.9502   20.1379 C.ar    1  UNL1        0.0433
     21 C           6.2641   79.0134   19.1059 C.2     1  UNL1        0.3381
     22 O           6.3085   79.8298   18.1461 O.2     1  UNL1       -0.2451
     23 O           7.1073   79.1998   20.1984 O.3     1  UNL1       -0.4771
     24 H           7.7527   79.9800   20.2304 H       1  UNL1        0.2954
     25 C          12.1415   81.2421   24.3764 C.2     1  UNL1        0.2839
     26 O          12.8516   80.2013   24.3710 O.2     1  UNL1       -0.2665
     27 N          10.7402   81.1707   24.0591 N.am    1  UNL1       -0.2766
     28 H          10.1782   82.0494   24.0659 H       1  UNL1        0.1553
     29 C          14.7425   86.4165   25.9809 C.ar    1  UNL1        0.0003
     30 C          14.7401   86.5662   24.5675 C.ar    1  UNL1        0.0031
     31 C          14.2121   85.5618   23.7371 C.ar    1  UNL1        0.0375
     32 C          13.6931   84.4218   24.3411 C.ar    1  UNL1        0.1452
     33 O          13.1599   83.3796   23.7516 O.2     1  UNL1       -0.4492
     34 C          12.7877   82.5279   24.6911 C.ar    1  UNL1        0.1946
     35 C          13.1195   83.0337   25.9543 C.ar    1  UNL1        0.0202
     36 C          12.9487   82.3875   27.2957 C.3     1  UNL1        0.0345
     37 C          13.6889   84.2650   25.7002 C.ar    1  UNL1        0.0337
     38 C          14.2056   85.2390   26.5545 C.ar    1  UNL1        0.0028
     39 C          15.2527   88.7796   28.9234 C.ar    1  UNL1        0.1387
     40 C          16.3640   89.5068   28.4846 C.ar    1  UNL1        0.0369
     41 C          16.9452   89.2329   27.2454 C.ar    1  UNL1        0.0031
     42 C          16.4204   88.2280   26.4303 C.ar    1  UNL1        0.0002
     43 C          15.3033   87.4835   26.8482 C.ar    1  UNL1        0.0030
     44 C          14.7239   87.7658   28.1000 C.ar    1  UNL1        0.0369
     45 C          13.3181   89.2876   30.4248 C.3     1  UNL1        0.2525
     46 O          14.7067   89.0921   30.1774 O.3     1  UNL1       -0.4714
@<TRIPOS>BOND
     1    45    46    1
     2    46    39    1
     3    39    40   ar
     4    40    41   ar
     5    41    42   ar
     6    42    43   ar
     7    43    29    1
     8    29    30   ar
     9    30    31   ar
    10    31    32   ar
    11    32    33   ar
    12    33    34   ar
    13    34    25    1
    14    25    26    2
    15    25    27   am
    16    27     1    1
    17     1     2   ar
    18     2     3   ar
    19     3     4   ar
    20     4     7    1
    21     7     8    1
    22     8     9    1
    23     9    10    1
    24    10    13    1
    25    13    14    1
    26    14    15    1
    27    15    16   ar
    28    16    17   ar
    29    17    18   ar
    30    18    19   ar
    31    19    21    1
    32    21    22    2
    33    21    23    1
    34    19    20   ar
    35    10    11    1
    36    11    12    1
    37     4     5   ar
    38     5     6   ar
    39    34    35   ar
    40    35    36    1
    41    35    37   ar
    42    37    38   ar
    43    43    44   ar
    44    44    39   ar
    45    38    29   ar
    46    37    32   ar
    47     6     1   ar
    48    12     7    1
    49    20    15   ar
    50    27    28    1
    51    23    24    1
@<TRIPOS>MOLECULE
*****
 46 51 0 0 0
SMALL
GASTEIGER

@<TRIPOS>ATOM
      1 C           9.7887   80.2871   25.0096 C.ar    1  UNL1        0.0702
      2 C           9.4167   79.4019   23.9919 C.ar    1  UNL1        0.0191
      3 C           8.5999   78.3063   24.2749 C.ar    1  UNL1        0.0356
      4 C           8.1701   78.0830   25.5945 C.ar    1  UNL1        0.1318
      5 N           8.5660   78.9462   26.5721 N.ar    1  UNL1       -0.2279
      6 C           9.3564   80.0224   26.3183 C.ar    1  UNL1        0.1149
      7 N           7.3225   76.9625   25.9296 N.pl3   1  UNL1       -0.2932
      8 C           7.6950   75.6104   25.4858 C.3     1  UNL1        0.0923
      9 C           7.2211   74.5748   26.5084 C.3     1  UNL1        0.0252
     10 C           5.6879   74.6306   26.7376 C.3     1  UNL1        0.0472
     11 C           5.0765   76.0100   26.3851 C.3     1  UNL1        0.0252
     12 C           6.0485   77.1686   26.6404 C.3     1  UNL1        0.0923
     13 C           5.3340   74.2235   28.1778 C.3     1  UNL1        0.2054
     14 O           6.4556   74.4376   29.0327 O.3     1  UNL1       -0.4755
     15 C           6.6559   75.5901   29.8062 C.ar    1  UNL1        0.1388
     16 C           5.7284   76.0198   30.7733 C.ar    1  UNL1        0.0369
     17 C           5.9748   77.1756   31.5170 C.ar    1  UNL1        0.0033
     18 C           7.1423   77.9125   31.3065 C.ar    1  UNL1        0.0066
     19 C           8.0805   77.4984   30.3447 C.ar    1  UNL1        0.0785
     20 C           7.8250   76.3332   29.5998 C.ar    1  UNL1        0.0433
     21 C           9.3195   78.2744   30.1163 C.2     1  UNL1        0.3381
     22 O           9.7848   79.0164   31.0234 O.2     1  UNL1       -0.2451
     23 O           9.9843   78.1923   28.8953 O.3     1  UNL1       -0.4771
     24 H          10.8332   78.7195   28.7287 H       1  UNL1        0.2954
     25 C          12.0754   81.3874   24.8939 C.2     1  UNL1        0.2839
     26 O          12.6614   80.3417   25.2819 O.2     1  UNL1       -0.2665
     27 N          10.6495   81.3966   24.7041 N.am    1  UNL1       -0.2766
     28 H          10.1919   82.2750   24.3767 H       1  UNL1        0.1553
     29 C          15.4780   86.2757   24.0937 C.ar    1  UNL1        0.0003
     30 C          14.9543   86.1187   22.7817 C.ar    1  UNL1        0.0031
     31 C          14.0768   85.0631   22.4774 C.ar    1  UNL1        0.0375
     32 C          13.7381   84.1813   23.4979 C.ar    1  UNL1        0.1452
     33 O          12.9437   83.1415   23.4224 O.2     1  UNL1       -0.4492
     34 C          12.8891   82.5843   24.6194 C.ar    1  UNL1        0.1946
     35 C          13.7106   83.2851   25.5114 C.ar    1  UNL1        0.0202
     36 C          14.0092   82.9776   26.9476 C.3     1  UNL1        0.0345
     37 C          14.2347   84.3210   24.7650 C.ar    1  UNL1        0.0337
     38 C          15.1085   85.3543   25.1028 C.ar    1  UNL1        0.0028
     39 C          18.2908   88.8240   23.7824 C.ar    1  UNL1        0.1387
     40 C          18.1593   89.5076   24.9956 C.ar    1  UNL1        0.0369
     41 C          17.1660   89.1470   25.9075 C.ar    1  UNL1        0.0031
     42 C          16.2925   88.0974   25.6160 C.ar    1  UNL1        0.0002
     43 C          16.4046   87.3941   24.4037 C.ar    1  UNL1        0.0030
     44 C          17.4089   87.7650   23.4892 C.ar    1  UNL1        0.0369
     45 C          19.2076   89.1611   21.4800 C.3     1  UNL1        0.2525
     46 O          19.3040   89.2263   22.8992 O.3     1  UNL1       -0.4714
@<TRIPOS>BOND
     1    45    46    1
     2    46    39    1
     3    39    40   ar
     4    40    41   ar
     5    41    42   ar
     6    42    43   ar
     7    43    29    1
     8    29    30   ar
     9    30    31   ar
    10    31    32   ar
    11    32    33   ar
    12    33    34   ar
    13    34    25    1
    14    25    26    2
    15    25    27   am
    16    27     1    1
    17     1     2   ar
    18     2     3   ar
    19     3     4   ar
    20     4     7    1
    21     7     8    1
    22     8     9    1
    23     9    10    1
    24    10    13    1
    25    13    14    1
    26    14    15    1
    27    15    16   ar
    28    16    17   ar
    29    17    18   ar
    30    18    19   ar
    31    19    21    1
    32    21    22    2
    33    21    23    1
    34    19    20   ar
    35    10    11    1
    36    11    12    1
    37     4     5   ar
    38     5     6   ar
    39    34    35   ar
    40    35    36    1
    41    35    37   ar
    42    37    38   ar
    43    43    44   ar
    44    44    39   ar
    45    38    29   ar
    46    37    32   ar
    47     6     1   ar
    48    12     7    1
    49    20    15   ar
    50    27    28    1
    51    23    24    1
@<TRIPOS>MOLECULE
*****
 46 51 0 0 0
SMALL
GASTEIGER

@<TRIPOS>ATOM
      1 C          13.1658   82.5751   25.1047 C.ar    1  UNL1        0.0702
      2 C          13.2139   83.6574   24.2192 C.ar    1  UNL1        0.0191
      3 C          13.6719   84.9024   24.6527 C.ar    1  UNL1        0.0356
      4 C          14.0643   85.0701   25.9921 C.ar    1  UNL1        0.1318
      5 N          13.9853   84.0065   26.8407 N.ar    1  UNL1       -0.2279
      6 C          13.5477   82.7841   26.4388 C.ar    1  UNL1        0.1149
      7 N          14.5462   86.3410   26.4807 N.pl3   1  UNL1       -0.2932
      8 C          14.7388   86.5391   27.9255 C.3     1  UNL1        0.0923
      9 C          15.9031   87.5019   28.1711 C.3     1  UNL1        0.0252
     10 C          15.6823   88.8798   27.4937 C.3     1  UNL1        0.0472
     11 C          14.7050   88.8106   26.2934 C.3     1  UNL1        0.0252
     12 C          14.7696   87.4668   25.5569 C.3     1  UNL1        0.0923
     13 C          17.0233   89.5065   27.0764 C.3     1  UNL1        0.2054
     14 O          17.7832   88.5673   26.3181 O.3     1  UNL1       -0.4755
     15 C          18.0266   88.6703   24.9408 C.ar    1  UNL1        0.1388
     16 C          19.0888   89.4305   24.4175 C.ar    1  UNL1        0.0369
     17 C          19.2877   89.5012   23.0372 C.ar    1  UNL1        0.0033
     18 C          18.4346   88.8185   22.1673 C.ar    1  UNL1        0.0066
     19 C          17.3682   88.0539   22.6720 C.ar    1  UNL1        0.0785
     20 C          17.1747   87.9877   24.0634 C.ar    1  UNL1        0.0433
     21 C          16.4604   87.3282   21.7561 C.2     1  UNL1        0.3381
     22 O          16.8517   86.9863   20.6073 O.2     1  UNL1       -0.2451
     23 O          15.1634   87.0154   22.1552 O.3     1  UNL1       -0.4771
     24 H          14.5339   86.5189   21.5359 H       1  UNL1        0.2954
     25 C          11.4510   80.7009   25.1141 C.2     1  UNL1        0.2839
     26 O          10.7018   81.3133   25.9211 O.2     1  UNL1       -0.2665
     27 N          12.6692   81.3066   24.6467 N.am    1  UNL1       -0.2766
     28 H          13.2670   80.7785   23.9746 H       1  UNL1        0.1553
     29 C           9.5175   75.4051   23.0333 C.ar    1  UNL1        0.0003
     30 C          10.5393   74.9672   23.9191 C.ar    1  UNL1        0.0031
     31 C          11.2999   75.8923   24.6558 C.ar    1  UNL1        0.0375
     32 C          11.0207   77.2446   24.4913 C.ar    1  UNL1        0.1452
     33 O          11.6091   78.2576   25.0793 O.2     1  UNL1       -0.4492
     34 C          11.0347   79.3669   24.6481 C.ar    1  UNL1        0.1946
     35 C          10.0386   79.0581   23.7133 C.ar    1  UNL1        0.0202
     36 C           9.1787   79.9933   22.9183 C.3     1  UNL1        0.0345
     37 C          10.0399   77.6797   23.6424 C.ar    1  UNL1        0.0337
     38 C           9.2671   76.7914   22.8946 C.ar    1  UNL1        0.0028
     39 C           6.9631   73.9166   20.6329 C.ar    1  UNL1        0.1387
     40 C           7.2115   72.5505   20.8014 C.ar    1  UNL1        0.0369
     41 C           8.2003   72.1142   21.6849 C.ar    1  UNL1        0.0031
     42 C           8.9519   73.0405   22.4106 C.ar    1  UNL1        0.0002
     43 C           8.7208   74.4192   22.2598 C.ar    1  UNL1        0.0030
     44 C           7.7221   74.8504   21.3659 C.ar    1  UNL1        0.0369
     45 C           4.8597   75.1443   20.0639 C.3     1  UNL1        0.2525
     46 O           5.9599   74.3036   19.7316 O.3     1  UNL1       -0.4714
@<TRIPOS>BOND
     1    45    46    1
     2    46    39    1
     3    39    40   ar
     4    40    41   ar
     5    41    42   ar
     6    42    43   ar
     7    43    29    1
     8    29    30   ar
     9    30    31   ar
    10    31    32   ar
    11    32    33   ar
    12    33    34   ar
    13    34    25    1
    14    25    26    2
    15    25    27   am
    16    27     1    1
    17     1     2   ar
    18     2     3   ar
    19     3     4   ar
    20     4     7    1
    21     7     8    1
    22     8     9    1
    23     9    10    1
    24    10    13    1
    25    13    14    1
    26    14    15    1
    27    15    16   ar
    28    16    17   ar
    29    17    18   ar
    30    18    19   ar
    31    19    21    1
    32    21    22    2
    33    21    23    1
    34    19    20   ar
    35    10    11    1
    36    11    12    1
    37     4     5   ar
    38     5     6   ar
    39    34    35   ar
    40    35    36    1
    41    35    37   ar
    42    37    38   ar
    43    43    44   ar
    44    44    39   ar
    45    38    29   ar
    46    37    32   ar
    47     6     1   ar
    48    12     7    1
    49    20    15   ar
    50    27    28    1
    51    23    24    1
@<TRIPOS>MOLECULE
*****
 46 51 0 0 0
SMALL
GASTEIGER

@<TRIPOS>ATOM
      1 C           9.9559   80.0048   23.9902 C.ar    1  UNL1        0.0702
      2 C           9.6416   79.6253   22.6806 C.ar    1  UNL1        0.0191
      3 C           8.9672   78.4281   22.4369 C.ar    1  UNL1        0.0356
      4 C           8.6243   77.5924   23.5139 C.ar    1  UNL1        0.1318
      5 N           8.9630   77.9731   24.7780 N.ar    1  UNL1       -0.2279
      6 C           9.6147   79.1369   25.0390 C.ar    1  UNL1        0.1149
      7 N           7.9244   76.3463   23.3053 N.pl3   1  UNL1       -0.2932
      8 C           7.1047   75.7823   24.3888 C.3     1  UNL1        0.0923
      9 C           5.9135   75.0211   23.8019 C.3     1  UNL1        0.0252
     10 C           6.3544   73.8784   22.8500 C.3     1  UNL1        0.0472
     11 C           7.7637   74.1068   22.2480 C.3     1  UNL1        0.0252
     12 C           8.0866   75.5929   22.0495 C.3     1  UNL1        0.0923
     13 C           5.3118   73.6554   21.7416 C.3     1  UNL1        0.2054
     14 O           4.4839   74.8100   21.6142 O.3     1  UNL1       -0.4755
     15 C           4.3739   75.5835   20.4496 C.ar    1  UNL1        0.1388
     16 C           3.5879   75.1865   19.3520 C.ar    1  UNL1        0.0369
     17 C           3.5124   75.9930   18.2147 C.ar    1  UNL1        0.0033
     18 C           4.2157   77.1984   18.1587 C.ar    1  UNL1        0.0066
     19 C           5.0059   77.6114   19.2457 C.ar    1  UNL1        0.0785
     20 C           5.0766   76.7934   20.3875 C.ar    1  UNL1        0.0433
     21 C           5.7538   78.8871   19.1931 C.2     1  UNL1        0.3381
     22 O           5.7712   79.5741   18.1360 O.2     1  UNL1       -0.2451
     23 O           6.4465   79.3415   20.3125 O.3     1  UNL1       -0.4771
     24 H           6.9616   80.2135   20.2870 H       1  UNL1        0.2954
     25 C          12.0943   81.3079   24.4175 C.2     1  UNL1        0.2839
     26 O          12.8103   80.2758   24.3202 O.2     1  UNL1       -0.2665
     27 N          10.6714   81.2297   24.2204 N.am    1  UNL1       -0.2766
     28 H          10.1044   82.1015   24.3016 H       1  UNL1        0.1553
     29 C          14.7744   86.4656   25.9434 C.ar    1  UNL1        0.0003
     30 C          14.6677   86.6462   24.5376 C.ar    1  UNL1        0.0031
     31 C          14.0865   85.6563   23.7257 C.ar    1  UNL1        0.0375
     32 C          13.6200   84.4994   24.3402 C.ar    1  UNL1        0.1452
     33 O          13.0513   83.4663   23.7681 O.2     1  UNL1       -0.4492
     34 C          12.7540   82.5914   24.7130 C.ar    1  UNL1        0.1946
     35 C          13.1743   83.0719   25.9596 C.ar    1  UNL1        0.0202
     36 C          13.1059   82.3952   27.2950 C.3     1  UNL1        0.0345
     37 C          13.7161   84.3129   25.6922 C.ar    1  UNL1        0.0337
     38 C          14.2880   85.2718   26.5282 C.ar    1  UNL1        0.0028
     39 C          17.2708   88.9951   27.3117 C.ar    1  UNL1        0.1387
     40 C          16.5558   89.5050   28.4004 C.ar    1  UNL1        0.0369
     41 C          15.2737   89.0343   28.6886 C.ar    1  UNL1        0.0031
     42 C          14.6922   88.0471   27.8906 C.ar    1  UNL1        0.0002
     43 C          15.3906   87.5177   26.7911 C.ar    1  UNL1        0.0030
     44 C          16.6830   87.9989   26.5071 C.ar    1  UNL1        0.0369
     45 C          19.3442   89.1740   25.9246 C.3     1  UNL1        0.2525
     46 O          18.5549   89.5029   27.0632 O.3     1  UNL1       -0.4714
@<TRIPOS>BOND
     1    45    46    1
     2    46    39    1
     3    39    40   ar
     4    40    41   ar
     5    41    42   ar
     6    42    43   ar
     7    43    29    1
     8    29    30   ar
     9    30    31   ar
    10    31    32   ar
    11    32    33   ar
    12    33    34   ar
    13    34    25    1
    14    25    26    2
    15    25    27   am
    16    27     1    1
    17     1     2   ar
    18     2     3   ar
    19     3     4   ar
    20     4     7    1
    21     7     8    1
    22     8     9    1
    23     9    10    1
    24    10    13    1
    25    13    14    1
    26    14    15    1
    27    15    16   ar
    28    16    17   ar
    29    17    18   ar
    30    18    19   ar
    31    19    21    1
    32    21    22    2
    33    21    23    1
    34    19    20   ar
    35    10    11    1
    36    11    12    1
    37     4     5   ar
    38     5     6   ar
    39    34    35   ar
    40    35    36    1
    41    35    37   ar
    42    37    38   ar
    43    43    44   ar
    44    44    39   ar
    45    38    29   ar
    46    37    32   ar
    47     6     1   ar
    48    12     7    1
    49    20    15   ar
    50    27    28    1
    51    23    24    1
@<TRIPOS>MOLECULE
*****
 46 51 0 0 0
SMALL
GASTEIGER

@<TRIPOS>ATOM
      1 C          11.9241   81.3630   25.1142 C.ar    1  UNL1        0.0702
      2 C          13.3149   81.2301   25.0383 C.ar    1  UNL1        0.0191
      3 C          14.1049   82.3092   24.6394 C.ar    1  UNL1        0.0356
      4 C          13.4937   83.5264   24.2919 C.ar    1  UNL1        0.1318
      5 N          12.1355   83.6230   24.3511 N.ar    1  UNL1       -0.2279
      6 C          11.3472   82.5870   24.7418 C.ar    1  UNL1        0.1149
      7 N          14.2747   84.6680   23.8761 N.pl3   1  UNL1       -0.2932
      8 C          15.1136   84.5755   22.6713 C.3     1  UNL1        0.0923
      9 C          15.1911   85.9396   21.9815 C.3     1  UNL1        0.0252
     10 C          15.7600   87.0410   22.9141 C.3     1  UNL1        0.0472
     11 C          15.5738   86.7123   24.4168 C.3     1  UNL1        0.0252
     12 C          14.3040   85.8963   24.6892 C.3     1  UNL1        0.0923
     13 C          15.1572   88.4139   22.5721 C.3     1  UNL1        0.2054
     14 O          15.2262   88.6377   21.1650 O.3     1  UNL1       -0.4755
     15 C          14.1186   88.6314   20.3048 C.ar    1  UNL1        0.1388
     16 C          12.7945   88.6675   20.7800 C.ar    1  UNL1        0.0369
     17 C          11.7260   88.6587   19.8812 C.ar    1  UNL1        0.0033
     18 C          11.9637   88.6142   18.5056 C.ar    1  UNL1        0.0066
     19 C          13.2798   88.5779   18.0125 C.ar    1  UNL1        0.0785
     20 C          14.3505   88.5871   18.9243 C.ar    1  UNL1        0.0433
     21 C          13.5389   88.5305   16.5565 C.2     1  UNL1        0.3381
     22 O          12.6893   88.9820   15.7415 O.2     1  UNL1       -0.2451
     23 O          14.7255   87.9859   16.0719 O.3     1  UNL1       -0.4771
     24 H          14.9127   87.9486   15.0769 H       1  UNL1        0.2954
     25 C          10.2507   79.5185   24.6136 C.2     1  UNL1        0.2839
     26 O          10.2021   79.8162   23.3902 O.2     1  UNL1       -0.2665
     27 N          11.1247   80.2342   25.5042 N.am    1  UNL1       -0.2766
     28 H          11.1482   79.9623   26.5109 H       1  UNL1        0.1553
     29 C           6.7607   75.1713   26.8576 C.ar    1  UNL1        0.0003
     30 C           7.2047   74.5429   25.6624 C.ar    1  UNL1        0.0031
     31 C           8.0717   75.2079   24.7775 C.ar    1  UNL1        0.0375
     32 C           8.4802   76.4954   25.1084 C.ar    1  UNL1        0.1452
     33 O           9.2780   77.2792   24.4251 O.2     1  UNL1       -0.4492
     34 C           9.4107   78.4093   25.0973 C.ar    1  UNL1        0.1946
     35 C           8.6389   78.3649   26.2651 C.ar    1  UNL1        0.0202
     36 C           8.4315   79.4374   27.2912 C.3     1  UNL1        0.0345
     37 C           8.0606   77.1117   26.2556 C.ar    1  UNL1        0.0337
     38 C           7.1997   76.4837   27.1554 C.ar    1  UNL1        0.0028
     39 C           4.2807   74.4920   29.6666 C.ar    1  UNL1        0.1387
     40 C           4.1158   73.1087   29.5405 C.ar    1  UNL1        0.0369
     41 C           4.8016   72.4010   28.5519 C.ar    1  UNL1        0.0031
     42 C           5.6611   73.0696   27.6780 C.ar    1  UNL1        0.0002
     43 C           5.8447   74.4595   27.7846 C.ar    1  UNL1        0.0030
     44 C           5.1484   75.1656   28.7841 C.ar    1  UNL1        0.0369
     45 C           3.2642   76.5484   30.6629 C.3     1  UNL1        0.2525
     46 O           3.5674   75.1572   30.6751 O.3     1  UNL1       -0.4714
@<TRIPOS>BOND
     1    45    46    1
     2    46    39    1
     3    39    40   ar
     4    40    41   ar
     5    41    42   ar
     6    42    43   ar
     7    43    29    1
     8    29    30   ar
     9    30    31   ar
    10    31    32   ar
    11    32    33   ar
    12    33    34   ar
    13    34    25    1
    14    25    26    2
    15    25    27   am
    16    27     1    1
    17     1     2   ar
    18     2     3   ar
    19     3     4   ar
    20     4     7    1
    21     7     8    1
    22     8     9    1
    23     9    10    1
    24    10    13    1
    25    13    14    1
    26    14    15    1
    27    15    16   ar
    28    16    17   ar
    29    17    18   ar
    30    18    19   ar
    31    19    21    1
    32    21    22    2
    33    21    23    1
    34    19    20   ar
    35    10    11    1
    36    11    12    1
    37     4     5   ar
    38     5     6   ar
    39    34    35   ar
    40    35    36    1
    41    35    37   ar
    42    37    38   ar
    43    43    44   ar
    44    44    39   ar
    45    38    29   ar
    46    37    32   ar
    47     6     1   ar
    48    12     7    1
    49    20    15   ar
    50    27    28    1
    51    23    24    1
@<TRIPOS>MOLECULE
*****
 46 51 0 0 0
SMALL
GASTEIGER

@<TRIPOS>ATOM
      1 C          10.2495   80.9040   25.2753 C.ar    1  UNL1        0.0702
      2 C           9.7922   79.9988   24.3114 C.ar    1  UNL1        0.0191
      3 C           9.0925   78.8542   24.6958 C.ar    1  UNL1        0.0356
      4 C           8.8682   78.6028   26.0605 C.ar    1  UNL1        0.1318
      5 N           9.3447   79.4877   26.9811 N.ar    1  UNL1       -0.2279
      6 C          10.0237   80.6112   26.6292 C.ar    1  UNL1        0.1149
      7 N           8.1468   77.4314   26.5005 N.pl3   1  UNL1       -0.2932
      8 C           6.7948   77.5779   27.0613 C.3     1  UNL1        0.0923
      9 C           5.9527   76.3446   26.7260 C.3     1  UNL1        0.0252
     10 C           6.5864   75.0339   27.2616 C.3     1  UNL1        0.0472
     11 C           8.1175   75.1473   27.4705 C.3     1  UNL1        0.0252
     12 C           8.7803   76.1016   26.4694 C.3     1  UNL1        0.0923
     13 C           6.2419   73.8455   26.3483 C.3     1  UNL1        0.2054
     14 O           5.8579   74.3192   25.0588 O.3     1  UNL1       -0.4755
     15 C           6.5080   73.9818   23.8629 C.ar    1  UNL1        0.1388
     16 C           7.8639   73.6075   23.8213 C.ar    1  UNL1        0.0369
     17 C           8.4647   73.2813   22.6038 C.ar    1  UNL1        0.0033
     18 C           7.7248   73.3241   21.4200 C.ar    1  UNL1        0.0066
     19 C           6.3690   73.6956   21.4422 C.ar    1  UNL1        0.0785
     20 C           5.7713   74.0226   22.6725 C.ar    1  UNL1        0.0433
     21 C           5.5792   73.7433   20.1918 C.2     1  UNL1        0.3381
     22 O           6.1003   74.1623   19.1228 O.2     1  UNL1       -0.2451
     23 O           4.2509   73.3250   20.1840 O.3     1  UNL1       -0.4771
     24 H           3.7014   73.3536   19.3334 H       1  UNL1        0.2954
     25 C          12.4105   82.0810   24.6445 C.2     1  UNL1        0.2839
     26 O          13.0829   81.0196   24.7387 O.2     1  UNL1       -0.2665
     27 N          10.9887   82.0654   24.8626 N.am    1  UNL1       -0.2766
     28 H          10.4568   82.9581   24.7723 H       1  UNL1        0.1553
     29 C          15.5523   86.9756   23.1327 C.ar    1  UNL1        0.0003
     30 C          14.2928   87.5672   23.4225 C.ar    1  UNL1        0.0031
     31 C          13.2027   86.7784   23.8303 C.ar    1  UNL1        0.0375
     32 C          13.3958   85.4058   23.9416 C.ar    1  UNL1        0.1452
     33 O          12.5163   84.5034   24.3024 O.2     1  UNL1       -0.4492
     34 C          13.1132   83.3244   24.2839 C.ar    1  UNL1        0.1946
     35 C          14.4421   83.4672   23.8654 C.ar    1  UNL1        0.0202
     36 C          15.4700   82.4016   23.6333 C.3     1  UNL1        0.0345
     37 C          14.6028   84.8235   23.6660 C.ar    1  UNL1        0.0337
     38 C          15.7053   85.5738   23.2575 C.ar    1  UNL1        0.0028
     39 C          18.7454   89.0486   23.2298 C.ar    1  UNL1        0.1387
     40 C          18.8583   89.4174   21.8854 C.ar    1  UNL1        0.0369
     41 C          17.9080   88.9967   20.9534 C.ar    1  UNL1        0.0031
     42 C          16.8331   88.2019   21.3565 C.ar    1  UNL1        0.0002
     43 C          16.6967   87.8184   22.7024 C.ar    1  UNL1        0.0030
     44 C          17.6602   88.2466   23.6355 C.ar    1  UNL1        0.0369
     45 C          19.5826   89.4998   25.5430 C.3     1  UNL1        0.2525
     46 O          19.7276   89.4957   24.1265 O.3     1  UNL1       -0.4714
@<TRIPOS>BOND
     1    45    46    1
     2    46    39    1
     3    39    40   ar
     4    40    41   ar
     5    41    42   ar
     6    42    43   ar
     7    43    29    1
     8    29    30   ar
     9    30    31   ar
    10    31    32   ar
    11    32    33   ar
    12    33    34   ar
    13    34    25    1
    14    25    26    2
    15    25    27   am
    16    27     1    1
    17     1     2   ar
    18     2     3   ar
    19     3     4   ar
    20     4     7    1
    21     7     8    1
    22     8     9    1
    23     9    10    1
    24    10    13    1
    25    13    14    1
    26    14    15    1
    27    15    16   ar
    28    16    17   ar
    29    17    18   ar
    30    18    19   ar
    31    19    21    1
    32    21    22    2
    33    21    23    1
    34    19    20   ar
    35    10    11    1
    36    11    12    1
    37     4     5   ar
    38     5     6   ar
    39    34    35   ar
    40    35    36    1
    41    35    37   ar
    42    37    38   ar
    43    43    44   ar
    44    44    39   ar
    45    38    29   ar
    46    37    32   ar
    47     6     1   ar
    48    12     7    1
    49    20    15   ar
    50    27    28    1
    51    23    24    1
@<TRIPOS>MOLECULE
*****
 46 51 0 0 0
SMALL
GASTEIGER

@<TRIPOS>ATOM
      1 C          13.0528   83.2786   25.4668 C.ar    1  UNL1        0.0702
      2 C          13.0467   83.5507   24.0943 C.ar    1  UNL1        0.0191
      3 C          13.7048   84.6761   23.5964 C.ar    1  UNL1        0.0356
      4 C          14.3563   85.5493   24.4847 C.ar    1  UNL1        0.1318
      5 N          14.3273   85.2750   25.8194 N.ar    1  UNL1       -0.2279
      6 C          13.6973   84.1822   26.3256 C.ar    1  UNL1        0.1149
      7 N          15.0508   86.7237   24.0105 N.pl3   1  UNL1       -0.2932
      8 C          16.4988   86.8525   24.2349 C.3     1  UNL1        0.0923
      9 C          17.1398   87.6302   23.0830 C.3     1  UNL1        0.0252
     10 C          16.5241   89.0435   22.9104 C.3     1  UNL1        0.0472
     11 C          15.0886   89.1486   23.4841 C.3     1  UNL1        0.0252
     12 C          14.3125   87.8302   23.3770 C.3     1  UNL1        0.0923
     13 C          16.5613   89.4813   21.4366 C.3     1  UNL1        0.2054
     14 O          16.5145   88.3355   20.5882 O.3     1  UNL1       -0.4755
     15 C          15.3331   87.7312   20.1344 C.ar    1  UNL1        0.1388
     16 C          15.1424   86.3372   20.1565 C.ar    1  UNL1        0.0369
     17 C          13.9469   85.7851   19.6922 C.ar    1  UNL1        0.0033
     18 C          12.9330   86.6117   19.2031 C.ar    1  UNL1        0.0066
     19 C          13.1056   88.0068   19.1735 C.ar    1  UNL1        0.0785
     20 C          14.3126   88.5550   19.6430 C.ar    1  UNL1        0.0433
     21 C          12.0357   88.8885   18.6564 C.2     1  UNL1        0.3381
     22 O          11.2772   89.5063   19.4519 O.2     1  UNL1       -0.2451
     23 O          11.8564   89.0446   17.2843 O.3     1  UNL1       -0.4771
     24 H          11.1270   89.6458   16.9199 H       1  UNL1        0.2954
     25 C          11.1785   81.5682   25.3445 C.2     1  UNL1        0.2839
     26 O          10.7452   82.0363   24.2579 O.2     1  UNL1       -0.2665
     27 N          12.3500   82.1279   25.9641 N.am    1  UNL1       -0.2766
     28 H          12.6892   81.7165   26.8606 H       1  UNL1        0.1553
     29 C           8.1680   76.8334   27.4966 C.ar    1  UNL1        0.0003
     30 C           8.7362   77.3353   28.6989 C.ar    1  UNL1        0.0031
     31 C           9.5558   78.4777   28.6869 C.ar    1  UNL1        0.0375
     32 C           9.7911   79.0992   27.4653 C.ar    1  UNL1        0.1452
     33 O          10.5195   80.1654   27.2402 O.2     1  UNL1       -0.4492
     34 C          10.4704   80.4247   25.9453 C.ar    1  UNL1        0.1946
     35 C           9.6895   79.4619   25.2936 C.ar    1  UNL1        0.0202
     36 C           9.4117   79.3179   23.8279 C.3     1  UNL1        0.0345
     37 C           9.2502   78.6267   26.3008 C.ar    1  UNL1        0.0337
     38 C           8.4344   77.4958   26.2743 C.ar    1  UNL1        0.0028
     39 C           5.7032   74.1825   28.6798 C.ar    1  UNL1        0.1387
     40 C           5.6748   73.3367   27.5662 C.ar    1  UNL1        0.0369
     41 C           6.4471   73.6234   26.4393 C.ar    1  UNL1        0.0031
     42 C           7.2575   74.7602   26.4141 C.ar    1  UNL1        0.0002
     43 C           7.3043   75.6257   27.5212 C.ar    1  UNL1        0.0030
     44 C           6.5214   75.3293   28.6533 C.ar    1  UNL1        0.0369
     45 C           3.8977   72.8469   29.7805 C.3     1  UNL1        0.2525
     46 O           4.9071   73.8512   29.7866 O.3     1  UNL1       -0.4714
@<TRIPOS>BOND
     1    45    46    1
     2    46    39    1
     3    39    40   ar
     4    40    41   ar
     5    41    42   ar
     6    42    43   ar
     7    43    29    1
     8    29    30   ar
     9    30    31   ar
    10    31    32   ar
    11    32    33   ar
    12    33    34   ar
    13    34    25    1
    14    25    26    2
    15    25    27   am
    16    27     1    1
    17     1     2   ar
    18     2     3   ar
    19     3     4   ar
    20     4     7    1
    21     7     8    1
    22     8     9    1
    23     9    10    1
    24    10    13    1
    25    13    14    1
    26    14    15    1
    27    15    16   ar
    28    16    17   ar
    29    17    18   ar
    30    18    19   ar
    31    19    21    1
    32    21    22    2
    33    21    23    1
    34    19    20   ar
    35    10    11    1
    36    11    12    1
    37     4     5   ar
    38     5     6   ar
    39    34    35   ar
    40    35    36    1
    41    35    37   ar
    42    37    38   ar
    43    43    44   ar
    44    44    39   ar
    45    38    29   ar
    46    37    32   ar
    47     6     1   ar
    48    12     7    1
    49    20    15   ar
    50    27    28    1
    51    23    24    1
@<TRIPOS>MOLECULE
*****
 46 51 0 0 0
SMALL
GASTEIGER

@<TRIPOS>ATOM
      1 C          13.2963   83.6817   25.1206 C.ar    1  UNL1        0.0702
      2 C          13.3259   83.5559   23.7274 C.ar    1  UNL1        0.0191
      3 C          13.8611   84.5757   22.9393 C.ar    1  UNL1        0.0356
      4 C          14.3509   85.7423   23.5517 C.ar    1  UNL1        0.1318
      5 N          14.2887   85.8507   24.9088 N.ar    1  UNL1       -0.2279
      6 C          13.7769   84.8681   25.6961 C.ar    1  UNL1        0.1149
      7 N          14.9147   86.8201   22.7729 N.pl3   1  UNL1       -0.2932
      8 C          16.3201   86.7498   22.3440 C.3     1  UNL1        0.0923
      9 C          16.4915   87.4526   20.9952 C.3     1  UNL1        0.0252
     10 C          16.0481   88.9383   21.0434 C.3     1  UNL1        0.0472
     11 C          15.0302   89.2262   22.1755 C.3     1  UNL1        0.0252
     12 C          14.1229   88.0257   22.4723 C.3     1  UNL1        0.0923
     13 C          15.4979   89.3906   19.6803 C.3     1  UNL1        0.2054
     14 O          14.1925   88.8514   19.4803 O.3     1  UNL1       -0.4755
     15 C          13.9314   87.5397   19.0582 C.ar    1  UNL1        0.1388
     16 C          13.0744   86.6764   19.7656 C.ar    1  UNL1        0.0369
     17 C          12.8481   85.3785   19.3031 C.ar    1  UNL1        0.0033
     18 C          13.4700   84.9285   18.1363 C.ar    1  UNL1        0.0066
     19 C          14.3293   85.7771   17.4164 C.ar    1  UNL1        0.0785
     20 C          14.5519   87.0829   17.8887 C.ar    1  UNL1        0.0433
     21 C          14.9916   85.3069   16.1795 C.2     1  UNL1        0.3381
     22 O          14.5642   85.6674   15.0494 O.2     1  UNL1       -0.2451
     23 O          16.0951   84.4605   16.2523 O.3     1  UNL1       -0.4771
     24 H          16.5559   84.1328   15.4117 H       1  UNL1        0.2954
     25 C          11.5664   81.8658   25.5248 C.2     1  UNL1        0.2839
     26 O          11.0361   82.0400   24.3952 O.2     1  UNL1       -0.2665
     27 N          12.7200   82.6316   25.9148 N.am    1  UNL1       -0.2766
     28 H          13.1415   82.4622   26.8538 H       1  UNL1        0.1553
     29 C           9.2107   77.4979   28.9138 C.ar    1  UNL1        0.0003
     30 C           9.2499   78.5559   29.8622 C.ar    1  UNL1        0.0031
     31 C           9.7482   79.8224   29.5090 C.ar    1  UNL1        0.0375
     32 C          10.1989   80.0064   28.2064 C.ar    1  UNL1        0.1452
     33 O          10.6961   81.0996   27.6815 O.2     1  UNL1       -0.4492
     34 C          10.9900   80.8463   26.4182 C.ar    1  UNL1        0.1946
     35 C          10.6907   79.5120   26.1155 C.ar    1  UNL1        0.0202
     36 C          10.9186   78.7693   24.8339 C.3     1  UNL1        0.0345
     37 C          10.1666   78.9967   27.2837 C.ar    1  UNL1        0.0337
     38 C           9.6811   77.7277   27.5986 C.ar    1  UNL1        0.0028
     39 C           6.8571   74.7600   30.1248 C.ar    1  UNL1        0.1387
     40 C           7.6887   73.6395   30.0291 C.ar    1  UNL1        0.0369
     41 C           9.0020   73.7692   29.5741 C.ar    1  UNL1        0.0031
     42 C           9.4985   75.0223   29.2100 C.ar    1  UNL1        0.0002
     43 C           8.6829   76.1642   29.2981 C.ar    1  UNL1        0.0030
     44 C           7.3592   76.0241   29.7572 C.ar    1  UNL1        0.0369
     45 C           4.5152   73.9274   29.8469 C.3     1  UNL1        0.2525
     46 O           5.5448   74.5763   30.5860 O.3     1  UNL1       -0.4714
@<TRIPOS>BOND
     1    45    46    1
     2    46    39    1
     3    39    40   ar
     4    40    41   ar
     5    41    42   ar
     6    42    43   ar
     7    43    29    1
     8    29    30   ar
     9    30    31   ar
    10    31    32   ar
    11    32    33   ar
    12    33    34   ar
    13    34    25    1
    14    25    26    2
    15    25    27   am
    16    27     1    1
    17     1     2   ar
    18     2     3   ar
    19     3     4   ar
    20     4     7    1
    21     7     8    1
    22     8     9    1
    23     9    10    1
    24    10    13    1
    25    13    14    1
    26    14    15    1
    27    15    16   ar
    28    16    17   ar
    29    17    18   ar
    30    18    19   ar
    31    19    21    1
    32    21    22    2
    33    21    23    1
    34    19    20   ar
    35    10    11    1
    36    11    12    1
    37     4     5   ar
    38     5     6   ar
    39    34    35   ar
    40    35    36    1
    41    35    37   ar
    42    37    38   ar
    43    43    44   ar
    44    44    39   ar
    45    38    29   ar
    46    37    32   ar
    47     6     1   ar
    48    12     7    1
    49    20    15   ar
    50    27    28    1
    51    23    24    1
