@<TRIPOS>MOLECULE
*****
 34 35 0 0 0
SMALL
GASTEIGER

@<TRIPOS>ATOM
      1 C          48.5279   11.2507  -24.6567 C.3     1  UNL1        0.1755
      2 C          50.0377   11.2573  -24.8861 C.3     1  UNL1        0.0777
      3 C          50.6270    9.9079  -24.4420 C.3     1  UNL1        0.1358
      4 O          50.2932    8.8988  -25.3587 O.3     1  UNL1       -0.3799
      5 C          50.1310    9.5057  -23.0766 C.2     1  UNL1       -0.0015
      6 C          49.0283   10.0234  -22.4991 C.2     1  UNL1       -0.0213
      7 C          48.7992    9.7491  -21.0689 C.2     1  UNL1       -0.0090
      8 C          48.2842   10.6895  -20.2696 C.2     1  UNL1       -0.0268
      9 C          47.7742   12.0207  -20.7861 C.3     1  UNL1        0.0224
     10 C          46.2326   11.9970  -20.7287 C.3     1  UNL1        0.0047
     11 C          48.3624   12.3770  -22.1996 C.3     1  UNL1        0.0116
     12 C          48.1981   11.1302  -23.1405 C.3     1  UNL1        0.0626
     13 H          50.8671    9.0352  -26.1575 H       1  UNL1        0.2108
     14 O          47.9155   12.3747  -25.2848 O.3     1  UNL1       -0.4518
     15 C          46.9505   12.2673  -26.2945 C.2     1  UNL1        0.3163
     16 O          47.2003   11.6348  -27.3581 O.2     1  UNL1       -0.2501
     17 C          45.6337   12.9769  -26.1218 C.3     1  UNL1        0.0991
     18 C          44.9027   12.4001  -24.9063 C.3     1  UNL1        0.0116
     19 C          45.8578   15.2184  -27.3303 C.3     1  UNL1        0.0006
     20 C          45.7987   14.5058  -25.9788 C.3     1  UNL1        0.0111
     21 C          47.7894   13.7307  -22.7086 C.3     1  UNL1        0.0033
     22 C          48.8426   14.8508  -22.8851 C.3     1  UNL1        0.0293
     23 C          48.8649   15.5552  -24.2780 C.3     1  UNL1        0.1130
     24 O          48.0088   16.6703  -24.3091 O.3     1  UNL1       -0.3844
     25 H          47.0939   16.3310  -24.4936 H       1  UNL1        0.2103
     26 C          50.2784   16.0159  -24.6985 C.3     1  UNL1        0.0590
     27 C          50.3618   16.5189  -26.1623 C.3     1  UNL1        0.1241
     28 O          49.1911   16.1914  -26.8693 O.3     1  UNL1       -0.3838
     29 H          48.4307   16.6420  -26.4159 H       1  UNL1        0.2104
     30 C          50.6006   18.0407  -26.2316 C.3     1  UNL1        0.1385
     31 C          49.4134   18.7706  -26.7822 C.2     1  UNL1        0.3163
     32 O          48.2904   18.6641  -26.2205 O.2     1  UNL1       -0.2502
     33 O          49.5464   19.5438  -27.9313 O.3     1  UNL1       -0.4801
     34 H          48.7525   20.0374  -28.3209 H       1  UNL1        0.2951
@<TRIPOS>BOND
     1    19    20    1
     2    20    17    1
     3    17    18    1
     4    17    15    1
     5    15    16    2
     6    15    14    1
     7    14     1    1
     8     1     2    1
     9     2     3    1
    10     3     4    1
    11     3     5    1
    12     5     6    2
    13     6     7    1
    14     7     8    2
    15     8     9    1
    16     9    10    1
    17     9    11    1
    18    11    21    1
    19    21    22    1
    20    22    23    1
    21    23    24    1
    22    23    26    1
    23    26    27    1
    24    27    28    1
    25    27    30    1
    26    30    31    1
    27    31    32    2
    28    31    33    1
    29    11    12    1
    30    12     1    1
    31    12     6    1
    32     4    13    1
    33    24    25    1
    34    28    29    1
    35    33    34    1
@<TRIPOS>MOLECULE
*****
 34 35 0 0 0
SMALL
GASTEIGER

@<TRIPOS>ATOM
      1 C          49.0058   10.8288  -24.7198 C.3     1  UNL1        0.1755
      2 C          50.5086   10.5575  -24.7257 C.3     1  UNL1        0.0777
      3 C          50.7791    9.1715  -24.1165 C.3     1  UNL1        0.1358
      4 O          50.3928    8.1579  -25.0072 O.3     1  UNL1       -0.3799
      5 C          50.0413    8.9810  -22.8160 C.2     1  UNL1       -0.0015
      6 C          48.9840    9.7278  -22.4397 C.2     1  UNL1       -0.0213
      7 C          48.5208    9.6229  -21.0441 C.2     1  UNL1       -0.0090
      8 C          48.0832   10.7037  -20.3892 C.2     1  UNL1       -0.0268
      9 C          47.8963   12.0521  -21.0571 C.3     1  UNL1        0.0224
     10 C          46.3822   12.2969  -21.2247 C.3     1  UNL1        0.0047
     11 C          48.7219   12.1776  -22.3889 C.3     1  UNL1        0.0116
     12 C          48.4610   10.8996  -23.2637 C.3     1  UNL1        0.0626
     13 H          51.0830    8.1239  -25.7204 H       1  UNL1        0.2108
     14 O          48.6964   11.9815  -25.4999 O.3     1  UNL1       -0.4518
     15 C          47.6449   12.0318  -26.4242 C.2     1  UNL1        0.3163
     16 O          47.6964   11.3634  -27.4938 O.2     1  UNL1       -0.2501
     17 C          46.4821   12.9499  -26.1552 C.3     1  UNL1        0.0991
     18 C          46.2298   13.8228  -27.3876 C.3     1  UNL1        0.0116
     19 C          44.4868   12.8073  -24.5635 C.3     1  UNL1        0.0006
     20 C          45.2000   12.1832  -25.7633 C.3     1  UNL1        0.0111
     21 C          48.4768   13.5594  -23.0600 C.3     1  UNL1        0.0033
     22 C          49.7084   14.4963  -23.0748 C.3     1  UNL1        0.0293
     23 C          50.1884   14.9724  -24.4818 C.3     1  UNL1        0.1130
     24 O          50.6024   13.8924  -25.2816 O.3     1  UNL1       -0.3844
     25 H          51.5405   13.6853  -25.0299 H       1  UNL1        0.2103
     26 C          49.1071   15.7616  -25.2531 C.3     1  UNL1        0.0590
     27 C          49.5955   16.3267  -26.6113 C.3     1  UNL1        0.1241
     28 O          48.5110   16.5418  -27.4806 O.3     1  UNL1       -0.3838
     29 H          47.9100   17.2064  -27.0518 H       1  UNL1        0.2104
     30 C          50.3860   17.6387  -26.4343 C.3     1  UNL1        0.1385
     31 C          49.5133   18.8459  -26.5955 C.2     1  UNL1        0.3163
     32 O          49.0258   19.4128  -25.5810 O.2     1  UNL1       -0.2502
     33 O          49.2185   19.3237  -27.8685 O.3     1  UNL1       -0.4801
     34 H          48.6242   20.1338  -27.9955 H       1  UNL1        0.2951
@<TRIPOS>BOND
     1    19    20    1
     2    20    17    1
     3    17    18    1
     4    17    15    1
     5    15    16    2
     6    15    14    1
     7    14     1    1
     8     1     2    1
     9     2     3    1
    10     3     4    1
    11     3     5    1
    12     5     6    2
    13     6     7    1
    14     7     8    2
    15     8     9    1
    16     9    10    1
    17     9    11    1
    18    11    21    1
    19    21    22    1
    20    22    23    1
    21    23    24    1
    22    23    26    1
    23    26    27    1
    24    27    28    1
    25    27    30    1
    26    30    31    1
    27    31    32    2
    28    31    33    1
    29    11    12    1
    30    12     1    1
    31    12     6    1
    32     4    13    1
    33    24    25    1
    34    28    29    1
    35    33    34    1
@<TRIPOS>MOLECULE
*****
 34 35 0 0 0
SMALL
GASTEIGER

@<TRIPOS>ATOM
      1 C          51.4903   12.8207  -21.6403 C.3     1  UNL1        0.1755
      2 C          52.0095   13.9506  -20.7538 C.3     1  UNL1        0.0777
      3 C          52.2399   13.4169  -19.3299 C.3     1  UNL1        0.1358
      4 O          53.3779   12.5964  -19.2893 O.3     1  UNL1       -0.3799
      5 C          51.0557   12.6282  -18.8322 C.2     1  UNL1       -0.0015
      6 C          50.1096   12.1095  -19.6404 C.2     1  UNL1       -0.0213
      7 C          48.8744   11.5941  -19.0225 C.2     1  UNL1       -0.0090
      8 C          47.6913   11.7637  -19.6225 C.2     1  UNL1       -0.0268
      9 C          47.5496   12.3510  -21.0132 C.3     1  UNL1        0.0224
     10 C          47.1855   11.2060  -21.9811 C.3     1  UNL1        0.0047
     11 C          48.8138   13.1813  -21.4417 C.3     1  UNL1        0.0116
     12 C          50.0985   12.3263  -21.1499 C.3     1  UNL1        0.0626
     13 H          54.1671   13.1976  -19.3326 H       1  UNL1        0.2108
     14 O          51.5060   13.2063  -23.0129 O.3     1  UNL1       -0.4518
     15 C          52.2573   12.5465  -23.9942 C.2     1  UNL1        0.3163
     16 O          53.4139   12.1123  -23.7347 O.2     1  UNL1       -0.2501
     17 C          51.6921   12.4243  -25.3844 C.3     1  UNL1        0.0991
     18 C          52.7321   11.7713  -26.2989 C.3     1  UNL1        0.0116
     19 C          50.4188   10.3672  -24.5583 C.3     1  UNL1        0.0006
     20 C          50.3676   11.6306  -25.4179 C.3     1  UNL1        0.0111
     21 C          48.6438   13.7372  -22.8846 C.3     1  UNL1        0.0033
     22 C          48.7737   15.2748  -23.0024 C.3     1  UNL1        0.0293
     23 C          48.7914   15.8503  -24.4533 C.3     1  UNL1        0.1130
     24 O          47.9687   16.9846  -24.5716 O.3     1  UNL1       -0.3844
     25 H          47.0407   16.6591  -24.7103 H       1  UNL1        0.2103
     26 C          50.2101   16.2267  -24.9358 C.3     1  UNL1        0.0590
     27 C          50.2666   16.6794  -26.4172 C.3     1  UNL1        0.1241
     28 O          49.0455   16.4193  -27.0647 O.3     1  UNL1       -0.3838
     29 H          48.3404   16.9382  -26.5953 H       1  UNL1        0.2104
     30 C          50.6126   18.1765  -26.5453 C.3     1  UNL1        0.1385
     31 C          49.4274   18.9929  -26.9624 C.2     1  UNL1        0.3163
     32 O          48.3708   18.9685  -26.2760 O.2     1  UNL1       -0.2502
     33 O          49.4852   19.7562  -28.1242 O.3     1  UNL1       -0.4801
     34 H          48.6905   20.3076  -28.4244 H       1  UNL1        0.2951
@<TRIPOS>BOND
     1    19    20    1
     2    20    17    1
     3    17    18    1
     4    17    15    1
     5    15    16    2
     6    15    14    1
     7    14     1    1
     8     1     2    1
     9     2     3    1
    10     3     4    1
    11     3     5    1
    12     5     6    2
    13     6     7    1
    14     7     8    2
    15     8     9    1
    16     9    10    1
    17     9    11    1
    18    11    21    1
    19    21    22    1
    20    22    23    1
    21    23    24    1
    22    23    26    1
    23    26    27    1
    24    27    28    1
    25    27    30    1
    26    30    31    1
    27    31    32    2
    28    31    33    1
    29    11    12    1
    30    12     1    1
    31    12     6    1
    32     4    13    1
    33    24    25    1
    34    28    29    1
    35    33    34    1
@<TRIPOS>MOLECULE
*****
 34 35 0 0 0
SMALL
GASTEIGER

@<TRIPOS>ATOM
      1 C          48.3346   14.5454  -26.3895 C.3     1  UNL1        0.1755
      2 C          46.8158   14.6143  -26.2459 C.3     1  UNL1        0.0777
      3 C          46.2209   15.3423  -27.4631 C.3     1  UNL1        0.1358
      4 O          46.2738   14.5229  -28.6015 O.3     1  UNL1       -0.3799
      5 C          46.9525   16.6271  -27.7563 C.2     1  UNL1       -0.0015
      6 C          48.1896   16.9046  -27.2979 C.2     1  UNL1       -0.0213
      7 C          48.6850   18.2869  -27.4283 C.2     1  UNL1       -0.0090
      8 C          49.4298   18.8368  -26.4633 C.2     1  UNL1       -0.0268
      9 C          49.9310   18.0564  -25.2638 C.3     1  UNL1        0.0224
     10 C          51.4440   17.8164  -25.4476 C.3     1  UNL1        0.0047
     11 C          49.0958   16.7488  -25.0115 C.3     1  UNL1        0.0116
     12 C          48.9586   15.9710  -26.3690 C.3     1  UNL1        0.0626
     13 H          45.5609   13.8396  -28.4969 H       1  UNL1        0.2108
     14 O          48.8954   13.6647  -25.4185 O.3     1  UNL1       -0.4518
     15 C          49.1884   12.3183  -25.6716 C.2     1  UNL1        0.3163
     16 O          48.3794   11.5943  -26.3157 O.2     1  UNL1       -0.2501
     17 C          50.4521   11.7288  -25.1034 C.3     1  UNL1        0.0991
     18 C          50.9029   10.5566  -25.9792 C.3     1  UNL1        0.0116
     19 C          52.9030   12.1485  -24.5102 C.3     1  UNL1        0.0006
     20 C          51.5841   12.7709  -24.9693 C.3     1  UNL1        0.0111
     21 C          49.6617   15.9604  -23.7958 C.3     1  UNL1        0.0033
     22 C          48.6404   15.7045  -22.6616 C.3     1  UNL1        0.0293
     23 C          48.8186   14.3715  -21.8689 C.3     1  UNL1        0.1130
     24 O          48.5677   13.2492  -22.6782 O.3     1  UNL1       -0.3844
     25 H          47.5842   13.1122  -22.6908 H       1  UNL1        0.2103
     26 C          50.2267   14.2203  -21.2516 C.3     1  UNL1        0.0590
     27 C          50.4791   12.8354  -20.6028 C.3     1  UNL1        0.1241
     28 O          50.8946   11.9010  -21.5683 O.3     1  UNL1       -0.3838
     29 H          51.7444   12.2332  -21.9612 H       1  UNL1        0.2104
     30 C          51.5263   12.9146  -19.4738 C.3     1  UNL1        0.1385
     31 C          52.7815   13.6009  -19.9197 C.2     1  UNL1        0.3163
     32 O          53.5390   13.0475  -20.7612 O.2     1  UNL1       -0.2502
     33 O          53.1242   14.8376  -19.3822 O.3     1  UNL1       -0.4801
     34 H          53.9728   15.3114  -19.6668 H       1  UNL1        0.2951
@<TRIPOS>BOND
     1    19    20    1
     2    20    17    1
     3    17    18    1
     4    17    15    1
     5    15    16    2
     6    15    14    1
     7    14     1    1
     8     1     2    1
     9     2     3    1
    10     3     4    1
    11     3     5    1
    12     5     6    2
    13     6     7    1
    14     7     8    2
    15     8     9    1
    16     9    10    1
    17     9    11    1
    18    11    21    1
    19    21    22    1
    20    22    23    1
    21    23    24    1
    22    23    26    1
    23    26    27    1
    24    27    28    1
    25    27    30    1
    26    30    31    1
    27    31    32    2
    28    31    33    1
    29    11    12    1
    30    12     1    1
    31    12     6    1
    32     4    13    1
    33    24    25    1
    34    28    29    1
    35    33    34    1
@<TRIPOS>MOLECULE
*****
 34 35 0 0 0
SMALL
GASTEIGER

@<TRIPOS>ATOM
      1 C          48.8778   14.3871  -26.3201 C.3     1  UNL1        0.1755
      2 C          47.3776   14.2930  -26.0500 C.3     1  UNL1        0.0777
      3 C          46.6107   15.0021  -27.1790 C.3     1  UNL1        0.1358
      4 O          46.6472   14.2374  -28.3553 O.3     1  UNL1       -0.3799
      5 C          47.1826   16.3661  -27.4697 C.2     1  UNL1       -0.0015
      6 C          48.4205   16.7520  -27.1010 C.2     1  UNL1       -0.0213
      7 C          48.7625   18.1822  -27.2060 C.2     1  UNL1       -0.0090
      8 C          49.5288   18.7684  -26.2799 C.2     1  UNL1       -0.0268
      9 C          50.2066   17.9981  -25.1635 C.3     1  UNL1        0.0224
     10 C          51.7145   17.9232  -25.4812 C.3     1  UNL1        0.0047
     11 C          49.5307   16.6024  -24.9060 C.3     1  UNL1        0.0116
     12 C          49.3558   15.8677  -26.2831 C.3     1  UNL1        0.0626
     13 H          46.0176   13.4804  -28.2253 H       1  UNL1        0.2108
     14 O          49.6050   13.5322  -25.4407 O.3     1  UNL1       -0.4518
     15 C          49.8445   12.1767  -25.7009 C.2     1  UNL1        0.3163
     16 O          48.9045   11.3358  -25.6475 O.2     1  UNL1       -0.2501
     17 C          51.2545   11.7263  -25.9773 C.3     1  UNL1        0.0991
     18 C          52.1960   12.3410  -24.9381 C.3     1  UNL1        0.0116
     19 C          51.8623    9.6298  -24.6467 C.3     1  UNL1        0.0006
     20 C          51.3934   10.1881  -25.9906 C.3     1  UNL1        0.0111
     21 C          50.2748   15.8303  -23.7791 C.3     1  UNL1        0.0033
     22 C          49.3598   15.2962  -22.6512 C.3     1  UNL1        0.0293
     23 C          49.8069   13.9576  -21.9841 C.3     1  UNL1        0.1130
     24 O          50.1155   14.1338  -20.6234 O.3     1  UNL1       -0.3844
     25 H          51.0486   14.4706  -20.5768 H       1  UNL1        0.2103
     26 C          48.7454   12.8412  -22.1009 C.3     1  UNL1        0.0590
     27 C          49.3192   11.4123  -21.9227 C.3     1  UNL1        0.1241
     28 O          50.7245   11.4418  -21.8768 O.3     1  UNL1       -0.3838
     29 H          50.9877   11.9952  -21.0950 H       1  UNL1        0.2104
     30 C          48.7732   10.7309  -20.6518 C.3     1  UNL1        0.1385
     31 C          49.8155   10.6233  -19.5807 C.2     1  UNL1        0.3163
     32 O          50.4999   11.6323  -19.2619 O.2     1  UNL1       -0.2502
     33 O          50.0465    9.4007  -18.9580 O.3     1  UNL1       -0.4801
     34 H          50.7524    9.3089  -18.2377 H       1  UNL1        0.2951
@<TRIPOS>BOND
     1    19    20    1
     2    20    17    1
     3    17    18    1
     4    17    15    1
     5    15    16    2
     6    15    14    1
     7    14     1    1
     8     1     2    1
     9     2     3    1
    10     3     4    1
    11     3     5    1
    12     5     6    2
    13     6     7    1
    14     7     8    2
    15     8     9    1
    16     9    10    1
    17     9    11    1
    18    11    21    1
    19    21    22    1
    20    22    23    1
    21    23    24    1
    22    23    26    1
    23    26    27    1
    24    27    28    1
    25    27    30    1
    26    30    31    1
    27    31    32    2
    28    31    33    1
    29    11    12    1
    30    12     1    1
    31    12     6    1
    32     4    13    1
    33    24    25    1
    34    28    29    1
    35    33    34    1
@<TRIPOS>MOLECULE
*****
 34 35 0 0 0
SMALL
GASTEIGER

@<TRIPOS>ATOM
      1 C          48.7531   12.3209  -23.7943 C.3     1  UNL1        0.1755
      2 C          49.6690   11.3082  -24.4783 C.3     1  UNL1        0.0777
      3 C          51.0882   11.8919  -24.5808 C.3     1  UNL1        0.1358
      4 O          51.7096   11.9003  -23.3223 O.3     1  UNL1       -0.3799
      5 C          51.0745   13.2978  -25.1240 C.2     1  UNL1       -0.0015
      6 C          49.9805   14.0856  -25.1325 C.2     1  UNL1       -0.0213
      7 C          50.0255   15.3284  -25.9241 C.2     1  UNL1       -0.0090
      8 C          48.9467   15.7480  -26.5940 C.2     1  UNL1       -0.0268
      9 C          47.5917   15.0777  -26.4763 C.3     1  UNL1        0.0224
     10 C          46.6743   15.9969  -25.6434 C.3     1  UNL1        0.0047
     11 C          47.6989   13.6072  -25.9314 C.3     1  UNL1        0.0116
     12 C          48.6127   13.6105  -24.6540 C.3     1  UNL1        0.0626
     13 H          51.9683   10.9624  -23.1235 H       1  UNL1        0.2108
     14 O          47.5033   11.7244  -23.4545 O.3     1  UNL1       -0.4518
     15 C          46.8559   11.9276  -22.2290 C.2     1  UNL1        0.3163
     16 O          46.0641   12.8984  -22.0733 O.2     1  UNL1       -0.2501
     17 C          47.1719   11.0103  -21.0775 C.3     1  UNL1        0.0991
     18 C          47.6872    9.6745  -21.6202 C.3     1  UNL1        0.0116
     19 C          47.6235   11.7831  -18.6829 C.3     1  UNL1        0.0006
     20 C          48.1918   11.6242  -20.0934 C.3     1  UNL1        0.0111
     21 C          46.2878   12.9674  -25.7930 C.3     1  UNL1        0.0033
     22 C          46.0353   11.7561  -26.7224 C.3     1  UNL1        0.0293
     23 C          46.8119   11.7597  -28.0766 C.3     1  UNL1        0.1130
     24 O          47.1313   10.4557  -28.4949 O.3     1  UNL1       -0.3844
     25 H          47.9612   10.1910  -28.0178 H       1  UNL1        0.2103
     26 C          46.0360   12.4588  -29.2152 C.3     1  UNL1        0.0590
     27 C          46.2249   11.7915  -30.6014 C.3     1  UNL1        0.1241
     28 O          45.9864   10.4075  -30.5250 O.3     1  UNL1       -0.3838
     29 H          45.0460   10.2809  -30.2312 H       1  UNL1        0.2104
     30 C          45.3046   12.4179  -31.6683 C.3     1  UNL1        0.1385
     31 C          46.0482   13.3540  -32.5714 C.2     1  UNL1        0.3163
     32 O          46.5514   12.9286  -33.6457 O.2     1  UNL1       -0.2502
     33 O          46.2070   14.6879  -32.2088 O.3     1  UNL1       -0.4801
     34 H          46.7134   15.3320  -32.8040 H       1  UNL1        0.2951
@<TRIPOS>BOND
     1    19    20    1
     2    20    17    1
     3    17    18    1
     4    17    15    1
     5    15    16    2
     6    15    14    1
     7    14     1    1
     8     1     2    1
     9     2     3    1
    10     3     4    1
    11     3     5    1
    12     5     6    2
    13     6     7    1
    14     7     8    2
    15     8     9    1
    16     9    10    1
    17     9    11    1
    18    11    21    1
    19    21    22    1
    20    22    23    1
    21    23    24    1
    22    23    26    1
    23    26    27    1
    24    27    28    1
    25    27    30    1
    26    30    31    1
    27    31    32    2
    28    31    33    1
    29    11    12    1
    30    12     1    1
    31    12     6    1
    32     4    13    1
    33    24    25    1
    34    28    29    1
    35    33    34    1
@<TRIPOS>MOLECULE
*****
 34 35 0 0 0
SMALL
GASTEIGER

@<TRIPOS>ATOM
      1 C          49.9560   16.2392  -25.1087 C.3     1  UNL1        0.1755
      2 C          50.2943   16.2236  -26.5978 C.3     1  UNL1        0.0777
      3 C          50.7957   17.6145  -27.0215 C.3     1  UNL1        0.1358
      4 O          52.0898   17.8430  -26.5282 O.3     1  UNL1       -0.3799
      5 C          49.8871   18.7095  -26.5243 C.2     1  UNL1       -0.0015
      6 C          49.0037   18.5493  -25.5187 C.2     1  UNL1       -0.0213
      7 C          47.9958   19.6036  -25.3047 C.2     1  UNL1       -0.0090
      8 C          46.7472   19.2884  -24.9440 C.2     1  UNL1       -0.0268
      9 C          46.3227   17.8754  -24.5940 C.3     1  UNL1        0.0224
     10 C          46.1290   17.7991  -23.0653 C.3     1  UNL1        0.0047
     11 C          47.3067   16.7958  -25.1750 C.3     1  UNL1        0.0116
     12 C          48.7779   17.2137  -24.8180 C.3     1  UNL1        0.0626
     13 H          52.7094   17.3050  -27.0874 H       1  UNL1        0.2108
     14 O          49.7323   14.9161  -24.6266 O.3     1  UNL1       -0.4518
     15 C          50.7468   14.0958  -24.1163 C.2     1  UNL1        0.3163
     16 O          51.5657   13.5282  -24.8915 O.2     1  UNL1       -0.2501
     17 C          50.8035   13.8451  -22.6327 C.3     1  UNL1        0.0991
     18 C          52.1252   14.3831  -22.0779 C.3     1  UNL1        0.0116
     19 C          48.4308   13.5007  -21.7454 C.3     1  UNL1        0.0006
     20 C          49.6071   14.4681  -21.8802 C.3     1  UNL1        0.0111
     21 C          46.8563   15.3642  -24.7658 C.3     1  UNL1        0.0033
     22 C          46.0868   14.5921  -25.8642 C.3     1  UNL1        0.0293
     23 C          46.9398   13.6287  -26.7481 C.3     1  UNL1        0.1130
     24 O          48.1663   13.3132  -26.1367 O.3     1  UNL1       -0.3844
     25 H          48.7931   14.0565  -26.3390 H       1  UNL1        0.2103
     26 C          46.2089   12.3087  -27.0804 C.3     1  UNL1        0.0590
     27 C          46.5668   11.7298  -28.4730 C.3     1  UNL1        0.1241
     28 O          45.9765   10.4662  -28.6541 O.3     1  UNL1       -0.3838
     29 H          44.9918   10.5841  -28.5969 H       1  UNL1        0.2104
     30 C          46.1333   12.6728  -29.6133 C.3     1  UNL1        0.1385
     31 C          45.9367   11.9386  -30.9046 C.2     1  UNL1        0.3163
     32 O          45.1205   12.3738  -31.7605 O.2     1  UNL1       -0.2502
     33 O          46.6356   10.7600  -31.1457 O.3     1  UNL1       -0.4801
     34 H          46.5087   10.2474  -32.0099 H       1  UNL1        0.2951
@<TRIPOS>BOND
     1    19    20    1
     2    20    17    1
     3    17    18    1
     4    17    15    1
     5    15    16    2
     6    15    14    1
     7    14     1    1
     8     1     2    1
     9     2     3    1
    10     3     4    1
    11     3     5    1
    12     5     6    2
    13     6     7    1
    14     7     8    2
    15     8     9    1
    16     9    10    1
    17     9    11    1
    18    11    21    1
    19    21    22    1
    20    22    23    1
    21    23    24    1
    22    23    26    1
    23    26    27    1
    24    27    28    1
    25    27    30    1
    26    30    31    1
    27    31    32    2
    28    31    33    1
    29    11    12    1
    30    12     1    1
    31    12     6    1
    32     4    13    1
    33    24    25    1
    34    28    29    1
    35    33    34    1
@<TRIPOS>MOLECULE
*****
 34 35 0 0 0
SMALL
GASTEIGER

@<TRIPOS>ATOM
      1 C          48.5348   11.1081  -24.7404 C.3     1  UNL1        0.1755
      2 C          50.0263   11.1380  -25.0671 C.3     1  UNL1        0.0777
      3 C          50.6494    9.7726  -24.7313 C.3     1  UNL1        0.1358
      4 O          50.2608    8.8084  -25.6743 O.3     1  UNL1       -0.3799
      5 C          50.2457    9.2983  -23.3587 C.2     1  UNL1       -0.0015
      6 C          49.1810    9.7777  -22.6850 C.2     1  UNL1       -0.0213
      7 C          49.0472    9.4300  -21.2587 C.2     1  UNL1       -0.0090
      8 C          48.5815   10.3249  -20.3808 C.2     1  UNL1       -0.0268
      9 C          48.0327   11.6765  -20.7948 C.3     1  UNL1        0.0224
     10 C          46.4983   11.6378  -20.6384 C.3     1  UNL1        0.0047
     11 C          48.5254   12.1080  -22.2238 C.3     1  UNL1        0.0116
     12 C          48.3056   10.9089  -23.2140 C.3     1  UNL1        0.0626
     13 H          50.7806    8.9893  -26.5009 H       1  UNL1        0.2108
     14 O          47.8775   12.2575  -25.2694 O.3     1  UNL1       -0.4518
     15 C          46.8137   12.1916  -26.1785 C.2     1  UNL1        0.3163
     16 O          46.9029   11.4880  -27.2227 O.2     1  UNL1       -0.2501
     17 C          45.5875   13.0282  -25.9263 C.3     1  UNL1        0.0991
     18 C          44.8458   12.4844  -24.7022 C.3     1  UNL1        0.0116
     19 C          46.5790   15.1398  -26.9719 C.3     1  UNL1        0.0006
     20 C          45.9196   14.5247  -25.7372 C.3     1  UNL1        0.0111
     21 C          47.9143   13.4811  -22.6250 C.3     1  UNL1        0.0033
     22 C          48.9475   14.6196  -22.8013 C.3     1  UNL1        0.0293
     23 C          50.4096   14.1733  -23.1173 C.3     1  UNL1        0.1130
     24 O          50.8670   14.7164  -24.3311 O.3     1  UNL1       -0.3844
     25 H          50.5292   14.1309  -25.0587 H       1  UNL1        0.2103
     26 C          51.4113   14.5570  -22.0053 C.3     1  UNL1        0.0590
     27 C          51.8340   13.3665  -21.1072 C.3     1  UNL1        0.1241
     28 O          53.2296   13.1941  -21.1326 O.3     1  UNL1       -0.3838
     29 H          53.6413   14.0265  -20.7802 H       1  UNL1        0.2104
     30 C          51.3611   13.5520  -19.6513 C.3     1  UNL1        0.1385
     31 C          51.7425   12.3904  -18.7850 C.2     1  UNL1        0.3163
     32 O          52.9261   11.9581  -18.7934 O.2     1  UNL1       -0.2502
     33 O          50.7811   11.7715  -17.9922 O.3     1  UNL1       -0.4801
     34 H          51.0203   10.9805  -17.4067 H       1  UNL1        0.2951
@<TRIPOS>BOND
     1    19    20    1
     2    20    17    1
     3    17    18    1
     4    17    15    1
     5    15    16    2
     6    15    14    1
     7    14     1    1
     8     1     2    1
     9     2     3    1
    10     3     4    1
    11     3     5    1
    12     5     6    2
    13     6     7    1
    14     7     8    2
    15     8     9    1
    16     9    10    1
    17     9    11    1
    18    11    21    1
    19    21    22    1
    20    22    23    1
    21    23    24    1
    22    23    26    1
    23    26    27    1
    24    27    28    1
    25    27    30    1
    26    30    31    1
    27    31    32    2
    28    31    33    1
    29    11    12    1
    30    12     1    1
    31    12     6    1
    32     4    13    1
    33    24    25    1
    34    28    29    1
    35    33    34    1
@<TRIPOS>MOLECULE
*****
 34 35 0 0 0
SMALL
GASTEIGER

@<TRIPOS>ATOM
      1 C          48.3643   11.1421  -23.1505 C.3     1  UNL1        0.1755
      2 C          48.5291   11.9746  -21.8809 C.3     1  UNL1        0.0777
      3 C          47.1851   12.0402  -21.1360 C.3     1  UNL1        0.1358
      4 O          46.8984   10.8083  -20.5275 O.3     1  UNL1       -0.3799
      5 C          46.0515   12.3986  -22.0626 C.2     1  UNL1       -0.0015
      6 C          46.1147   12.2765  -23.4037 C.2     1  UNL1       -0.0213
      7 C          45.0513   12.9035  -24.2093 C.2     1  UNL1       -0.0090
      8 C          45.3369   13.4846  -25.3794 C.2     1  UNL1       -0.0268
      9 C          46.7099   13.4168  -26.0194 C.3     1  UNL1        0.0224
     10 C          46.6315   12.4485  -27.2180 C.3     1  UNL1        0.0047
     11 C          47.8360   13.0676  -24.9797 C.3     1  UNL1        0.0116
     12 C          47.3736   11.8256  -24.1370 C.3     1  UNL1        0.0626
     13 H          47.4862   10.7382  -19.7302 H       1  UNL1        0.2108
     14 O          49.6330   10.8475  -23.7308 O.3     1  UNL1       -0.4518
     15 C          50.2357    9.5842  -23.6751 C.2     1  UNL1        0.3163
     16 O          50.0722    8.8374  -22.6705 O.2     1  UNL1       -0.2501
     17 C          51.1389    9.1579  -24.8019 C.3     1  UNL1        0.0991
     18 C          50.5554    9.6446  -26.1312 C.3     1  UNL1        0.0116
     19 C          52.7302   11.1518  -24.9678 C.3     1  UNL1        0.0006
     20 C          52.5861    9.6683  -24.6269 C.3     1  UNL1        0.0111
     21 C          49.2217   12.9739  -25.6804 C.3     1  UNL1        0.0033
     22 C          50.2715   13.9905  -25.1712 C.3     1  UNL1        0.0293
     23 C          49.7303   15.1288  -24.2501 C.3     1  UNL1        0.1130
     24 O          50.1502   14.9622  -22.9184 O.3     1  UNL1       -0.3844
     25 H          49.5246   14.3186  -22.4933 H       1  UNL1        0.2103
     26 C          50.1540   16.5382  -24.7204 C.3     1  UNL1        0.0590
     27 C          49.9860   16.7650  -26.2445 C.3     1  UNL1        0.1241
     28 O          48.6494   16.5656  -26.6338 O.3     1  UNL1       -0.3838
     29 H          48.0927   17.2277  -26.1455 H       1  UNL1        0.2104
     30 C          50.4440   18.1755  -26.6670 C.3     1  UNL1        0.1385
     31 C          49.2843   19.0768  -26.9637 C.2     1  UNL1        0.3163
     32 O          48.2974   19.1144  -26.1810 O.2     1  UNL1       -0.2502
     33 O          49.2858   19.8513  -28.1195 O.3     1  UNL1       -0.4801
     34 H          48.5067   20.4599  -28.3389 H       1  UNL1        0.2951
@<TRIPOS>BOND
     1    19    20    1
     2    20    17    1
     3    17    18    1
     4    17    15    1
     5    15    16    2
     6    15    14    1
     7    14     1    1
     8     1     2    1
     9     2     3    1
    10     3     4    1
    11     3     5    1
    12     5     6    2
    13     6     7    1
    14     7     8    2
    15     8     9    1
    16     9    10    1
    17     9    11    1
    18    11    21    1
    19    21    22    1
    20    22    23    1
    21    23    24    1
    22    23    26    1
    23    26    27    1
    24    27    28    1
    25    27    30    1
    26    30    31    1
    27    31    32    2
    28    31    33    1
    29    11    12    1
    30    12     1    1
    31    12     6    1
    32     4    13    1
    33    24    25    1
    34    28    29    1
    35    33    34    1
