@<TRIPOS>MOLECULE
*****
 42 46 0 0 0
SMALL
GASTEIGER

@<TRIPOS>ATOM
      1 C          -7.4901  -13.1903   28.4072 C.ar    1  UNL1        0.0888
      2 C          -8.7432  -13.6476   28.8978 C.ar    1  UNL1        0.0282
      3 C          -9.3260  -12.9595   29.9724 C.ar    1  UNL1        0.0997
      4 N         -10.4886  -13.2289   30.5928 N.ar    1  UNL1       -0.2137
      5 C         -10.5435  -12.2663   31.5528 C.ar    1  UNL1        0.1984
      6 N          -9.4706  -11.4331   31.5649 N.ar    1  UNL1       -0.3255
      7 C          -8.7189  -11.8845   30.5555 C.ar    1  UNL1        0.0755
      8 C          -7.4880  -11.4324   30.1020 C.ar    1  UNL1        0.0325
      9 C          -6.8883  -12.0804   29.0516 C.ar    1  UNL1        0.1401
     10 O          -5.6578  -11.5227   28.7767 O.3     1  UNL1       -0.4824
     11 C          -5.3793  -10.4331   29.6605 C.3     1  UNL1        0.1375
     12 C          -4.1016  -10.7441   30.4509 C.3     1  UNL1        0.0439
     13 C          -5.2000   -9.1522   28.8354 C.3     1  UNL1        0.0439
     14 C          -6.6248  -10.3336   30.6042 C.3     1  UNL1        0.0709
     15 H          -9.2593  -10.6460   32.2178 H       1  UNL1        0.1686
     16 N          -7.4118  -15.0572   26.6961 N.am    1  UNL1       -0.2808
     17 C          -6.8227  -13.8908   27.2914 C.2     1  UNL1        0.2525
     18 O          -5.7231  -13.4511   26.8575 O.2     1  UNL1       -0.2697
     19 H          -8.2390  -15.5097   27.1443 H       1  UNL1        0.1552
     20 C          -7.8572  -15.7055   24.3607 C.ar    1  UNL1       -0.0091
     21 C          -7.3886  -16.1610   23.1184 C.ar    1  UNL1        0.0008
     22 C          -6.0412  -16.5060   22.9381 C.ar    1  UNL1        0.0709
     23 C          -5.1684  -16.4461   24.0342 C.ar    1  UNL1        0.0008
     24 C          -5.6140  -15.9977   25.2864 C.ar    1  UNL1       -0.0087
     25 C          -4.6373  -15.9433   26.4311 C.3     1  UNL1        0.0323
     26 C          -6.9548  -15.5801   25.4408 C.ar    1  UNL1        0.0425
     27 C          -5.5612  -17.0349   21.6090 C.3     1  UNL1        0.4186
     28 F          -6.5369  -17.8134   21.0107 F       1  UNL1       -0.1659
     29 F          -4.4301  -17.8044   21.8075 F       1  UNL1       -0.1659
     30 F          -5.2534  -15.9940   20.7498 F       1  UNL1       -0.1659
     31 C         -10.2061  -16.2036   23.6481 C.3     1  UNL1        0.0051
     32 C          -9.3091  -15.3056   24.4945 C.3     1  UNL1        0.0276
     33 N         -11.6187  -12.1897   32.4976 N.pl3   1  UNL1       -0.2816
     34 H         -11.9756  -11.2427   32.7565 H       1  UNL1        0.1551
     35 C         -12.2850  -13.3463   33.0266 C.ar    1  UNL1        0.0889
     36 C         -13.4433  -13.8513   32.4049 C.ar    1  UNL1        0.1543
     37 F         -13.9406  -13.2627   31.2880 F       1  UNL1       -0.2028
     38 C         -14.0753  -14.9899   32.9136 C.ar    1  UNL1        0.0310
     39 C         -13.5539  -15.6405   34.0335 C.ar    1  UNL1        0.0033
     40 C         -12.3940  -15.1591   34.6448 C.ar    1  UNL1        0.0128
     41 C         -11.7531  -14.0201   34.1433 C.ar    1  UNL1        0.0733
     42 CL        -10.3052  -13.4358   34.9529 Cl      1  UNL1       -0.0809
@<TRIPOS>BOND
     1    31    32    1
     2    32    20    1
     3    20    21   ar
     4    21    22   ar
     5    22    27    1
     6    27    28    1
     7    27    29    1
     8    27    30    1
     9    22    23   ar
    10    23    24   ar
    11    24    25    1
    12    24    26   ar
    13    26    16    1
    14    16    17   am
    15    17    18    2
    16    17     1    1
    17     1     2   ar
    18     2     3   ar
    19     3     4   ar
    20     4     5   ar
    21     5    33    1
    22    33    35    1
    23    35    36   ar
    24    36    37    1
    25    36    38   ar
    26    38    39   ar
    27    39    40   ar
    28    40    41   ar
    29    41    42    1
    30     5     6   ar
    31     6     7   ar
    32     7     8   ar
    33     8     9   ar
    34     9    10    1
    35    10    11    1
    36    11    12    1
    37    11    13    1
    38    11    14    1
    39    26    20   ar
    40     9     1   ar
    41     7     3   ar
    42    14     8    1
    43    41    35   ar
    44    16    19    1
    45    33    34    1
    46     6    15    1
@<TRIPOS>MOLECULE
*****
 42 46 0 0 0
SMALL
GASTEIGER

@<TRIPOS>ATOM
      1 C          -7.3181  -13.2791   28.2902 C.ar    1  UNL1        0.0888
      2 C          -8.6099  -13.7754   28.6144 C.ar    1  UNL1        0.0282
      3 C          -9.3410  -13.1184   29.6153 C.ar    1  UNL1        0.0997
      4 N         -10.5643  -13.4266   30.0818 N.ar    1  UNL1       -0.2137
      5 C         -10.7649  -12.4801   31.0385 C.ar    1  UNL1        0.1984
      6 N          -9.7249  -11.6201   31.1947 N.ar    1  UNL1       -0.3255
      7 C          -8.8409  -12.0372   30.2825 C.ar    1  UNL1        0.0755
      8 C          -7.5756  -11.5472   29.9922 C.ar    1  UNL1        0.0325
      9 C          -6.8319  -12.1640   29.0179 C.ar    1  UNL1        0.1401
     10 O          -5.5923  -11.5712   28.9060 O.3     1  UNL1       -0.4824
     11 C          -5.4561  -10.4882   29.8304 C.3     1  UNL1        0.1375
     12 C          -4.2794  -10.7784   30.7711 C.3     1  UNL1        0.0439
     13 C          -5.2097   -9.1909   29.0492 C.3     1  UNL1        0.0439
     14 C          -6.8121  -10.4345   30.6114 C.3     1  UNL1        0.0709
     15 H          -9.6183  -10.8378   31.8780 H       1  UNL1        0.1686
     16 N          -6.9697  -15.1260   26.5910 N.am    1  UNL1       -0.2808
     17 C          -6.4976  -13.9457   27.2588 C.2     1  UNL1        0.2525
     18 O          -5.3701  -13.4645   26.9624 O.2     1  UNL1       -0.2697
     19 H          -7.8282  -15.6108   26.9342 H       1  UNL1        0.1552
     20 C          -5.1499  -16.3654   25.4844 C.ar    1  UNL1       -0.0091
     21 C          -4.5803  -16.8973   24.3169 C.ar    1  UNL1        0.0008
     22 C          -5.1755  -16.6887   23.0642 C.ar    1  UNL1        0.0709
     23 C          -6.3244  -15.8889   22.9787 C.ar    1  UNL1        0.0008
     24 C          -6.9099  -15.3434   24.1307 C.ar    1  UNL1       -0.0087
     25 C          -8.1477  -14.4979   23.9889 C.3     1  UNL1        0.0323
     26 C          -6.3476  -15.6209   25.3968 C.ar    1  UNL1        0.0425
     27 C          -4.5284  -17.2301   21.8133 C.3     1  UNL1        0.4186
     28 F          -5.4434  -17.2923   20.7764 F       1  UNL1       -0.1659
     29 F          -4.0454  -18.5007   22.0645 F       1  UNL1       -0.1659
     30 F          -3.4794  -16.4197   21.4143 F       1  UNL1       -0.1659
     31 C          -3.5082  -17.8113   26.7040 C.3     1  UNL1        0.0051
     32 C          -4.4947  -16.6530   26.8162 C.3     1  UNL1        0.0276
     33 N         -11.9516  -12.4450   31.8417 N.pl3   1  UNL1       -0.2816
     34 H         -12.6669  -11.7150   31.6256 H       1  UNL1        0.1551
     35 C         -12.2430  -13.4171   32.8574 C.ar    1  UNL1        0.0889
     36 C         -13.3306  -14.2999   32.7114 C.ar    1  UNL1        0.1543
     37 F         -14.1118  -14.2565   31.6028 F       1  UNL1       -0.2028
     38 C         -13.5964  -15.2573   33.6948 C.ar    1  UNL1        0.0310
     39 C         -12.7770  -15.3522   34.8213 C.ar    1  UNL1        0.0033
     40 C         -11.6840  -14.4947   34.9652 C.ar    1  UNL1        0.0128
     41 C         -11.4087  -13.5327   33.9862 C.ar    1  UNL1        0.0733
     42 CL        -10.0335  -12.4601   34.2139 Cl      1  UNL1       -0.0809
@<TRIPOS>BOND
     1    31    32    1
     2    32    20    1
     3    20    21   ar
     4    21    22   ar
     5    22    27    1
     6    27    28    1
     7    27    29    1
     8    27    30    1
     9    22    23   ar
    10    23    24   ar
    11    24    25    1
    12    24    26   ar
    13    26    16    1
    14    16    17   am
    15    17    18    2
    16    17     1    1
    17     1     2   ar
    18     2     3   ar
    19     3     4   ar
    20     4     5   ar
    21     5    33    1
    22    33    35    1
    23    35    36   ar
    24    36    37    1
    25    36    38   ar
    26    38    39   ar
    27    39    40   ar
    28    40    41   ar
    29    41    42    1
    30     5     6   ar
    31     6     7   ar
    32     7     8   ar
    33     8     9   ar
    34     9    10    1
    35    10    11    1
    36    11    12    1
    37    11    13    1
    38    11    14    1
    39    26    20   ar
    40     9     1   ar
    41     7     3   ar
    42    14     8    1
    43    41    35   ar
    44    16    19    1
    45    33    34    1
    46     6    15    1
@<TRIPOS>MOLECULE
*****
 42 46 0 0 0
SMALL
GASTEIGER

@<TRIPOS>ATOM
      1 C          -6.4465  -15.2457   25.7233 C.ar    1  UNL1        0.0888
      2 C          -5.1535  -15.1402   25.1427 C.ar    1  UNL1        0.0282
      3 C          -4.9605  -15.6601   23.8541 C.ar    1  UNL1        0.0997
      4 N          -3.8262  -15.6769   23.1315 N.ar    1  UNL1       -0.2137
      5 C          -4.2113  -16.3060   21.9881 C.ar    1  UNL1        0.1984
      6 N          -5.5144  -16.6899   21.9781 N.ar    1  UNL1       -0.3255
      7 C          -5.9692  -16.2664   23.1619 C.ar    1  UNL1        0.0755
      8 C          -7.2343  -16.3940   23.7173 C.ar    1  UNL1        0.0325
      9 C          -7.4603  -15.8960   24.9759 C.ar    1  UNL1        0.1401
     10 O          -8.7534  -16.1581   25.3759 O.3     1  UNL1       -0.4824
     11 C          -9.4727  -16.8609   24.3588 C.3     1  UNL1        0.1375
     12 C          -9.9396  -18.2110   24.9183 C.3     1  UNL1        0.0439
     13 C         -10.6772  -16.0166   23.9229 C.3     1  UNL1        0.0439
     14 C          -8.4546  -17.0506   23.1844 C.3     1  UNL1        0.0709
     15 H          -6.0373  -17.2149   21.2424 H       1  UNL1        0.1686
     16 N          -6.6948  -13.3231   27.3546 N.am    1  UNL1       -0.2808
     17 C          -6.6992  -14.7336   27.0853 C.2     1  UNL1        0.2525
     18 O          -6.9253  -15.5509   28.0188 O.2     1  UNL1       -0.2697
     19 H          -6.3636  -12.6542   26.6247 H       1  UNL1        0.1552
     20 C          -6.4500  -11.8707   29.3303 C.ar    1  UNL1       -0.0091
     21 C          -6.9956  -11.3010   30.4914 C.ar    1  UNL1        0.0008
     22 C          -8.2887  -11.6350   30.9197 C.ar    1  UNL1        0.0709
     23 C          -9.0186  -12.5949   30.2037 C.ar    1  UNL1        0.0008
     24 C          -8.4933  -13.1809   29.0426 C.ar    1  UNL1       -0.0087
     25 C          -9.3182  -14.2008   28.3034 C.3     1  UNL1        0.0323
     26 C          -7.2206  -12.7832   28.5753 C.ar    1  UNL1        0.0425
     27 C          -8.8453  -11.0474   32.1931 C.3     1  UNL1        0.4186
     28 F          -7.8597  -10.3724   32.8925 F       1  UNL1       -0.1659
     29 F          -9.3421  -12.0658   32.9847 F       1  UNL1       -0.1659
     30 F          -9.8654  -10.1537   31.9153 F       1  UNL1       -0.1659
     31 C          -5.1015  -10.0737   28.2233 C.3     1  UNL1        0.0051
     32 C          -5.0683  -11.4474   28.8859 C.3     1  UNL1        0.0276
     33 N          -3.2939  -16.5829   20.9222 N.pl3   1  UNL1       -0.2816
     34 H          -3.3156  -15.9597   20.0840 H       1  UNL1        0.1551
     35 C          -2.2914  -17.6083   20.9936 C.ar    1  UNL1        0.0889
     36 C          -0.9550  -17.3273   20.6496 C.ar    1  UNL1        0.1543
     37 F          -0.5896  -16.0801   20.2592 F       1  UNL1       -0.2028
     38 C           0.0197  -18.3253   20.7408 C.ar    1  UNL1        0.0310
     39 C          -0.3240  -19.6031   21.1861 C.ar    1  UNL1        0.0033
     40 C          -1.6427  -19.8859   21.5489 C.ar    1  UNL1        0.0128
     41 C          -2.6264  -18.8938   21.4618 C.ar    1  UNL1        0.0733
     42 CL         -4.2787  -19.2956   21.9110 Cl      1  UNL1       -0.0809
@<TRIPOS>BOND
     1    31    32    1
     2    32    20    1
     3    20    21   ar
     4    21    22   ar
     5    22    27    1
     6    27    28    1
     7    27    29    1
     8    27    30    1
     9    22    23   ar
    10    23    24   ar
    11    24    25    1
    12    24    26   ar
    13    26    16    1
    14    16    17   am
    15    17    18    2
    16    17     1    1
    17     1     2   ar
    18     2     3   ar
    19     3     4   ar
    20     4     5   ar
    21     5    33    1
    22    33    35    1
    23    35    36   ar
    24    36    37    1
    25    36    38   ar
    26    38    39   ar
    27    39    40   ar
    28    40    41   ar
    29    41    42    1
    30     5     6   ar
    31     6     7   ar
    32     7     8   ar
    33     8     9   ar
    34     9    10    1
    35    10    11    1
    36    11    12    1
    37    11    13    1
    38    11    14    1
    39    26    20   ar
    40     9     1   ar
    41     7     3   ar
    42    14     8    1
    43    41    35   ar
    44    16    19    1
    45    33    34    1
    46     6    15    1
