@<TRIPOS>MOLECULE
*****
 38 42 0 0 0
SMALL
GASTEIGER

@<TRIPOS>ATOM
      1 C          49.4537   13.3049  -21.4415 C.2     1  UNL1        0.2524
      2 O          50.3286   14.0876  -21.9025 O.2     1  UNL1       -0.2698
      3 N          48.4860   12.6999  -22.3263 N.am    1  UNL1       -0.2424
      4 C          47.8310   11.4381  -21.9488 C.3     1  UNL1        0.1437
      5 C          46.3875   11.6928  -21.5072 C.3     1  UNL1        0.2269
      6 O          45.7048   12.5816  -22.3909 O.3     1  UNL1       -0.4738
      7 C          45.8311   12.4925  -23.7781 C.ar    1  UNL1        0.1388
      8 C          44.7185   12.1266  -24.5392 C.ar    1  UNL1        0.0367
      9 C          44.8247   11.9897  -25.9238 C.ar    1  UNL1        0.0031
     10 C          46.0472   12.2333  -26.5716 C.ar    1  UNL1        0.0001
     11 C          47.1583   12.6289  -25.8049 C.ar    1  UNL1        0.0031
     12 C          47.0651   12.7563  -24.4078 C.ar    1  UNL1        0.0633
     13 C          48.2369   13.3379  -23.6357 C.3     1  UNL1        0.2658
     14 F          47.9871   14.6871  -23.4470 F       1  UNL1       -0.2095
     15 C          46.1615   12.0911  -28.0452 C.ar    1  UNL1        0.0015
     16 C          46.5444   10.8477  -28.6225 C.ar    1  UNL1        0.0016
     17 C          46.6558   10.7039  -30.0183 C.ar    1  UNL1        0.0206
     18 C          46.3796   11.8146  -30.8081 C.ar    1  UNL1        0.0985
     19 N          46.4243   11.9033  -32.1496 N.ar    1  UNL1       -0.2241
     20 C          46.0697   13.1954  -32.3786 C.ar    1  UNL1        0.1750
     21 N          45.8126   13.8943  -31.2470 N.ar    1  UNL1       -0.3349
     22 C          46.0123   13.0068  -30.2657 C.ar    1  UNL1        0.0757
     23 C          45.8895   13.1937  -28.8917 C.ar    1  UNL1        0.0185
     24 H          45.5251   14.8946  -31.1633 H       1  UNL1        0.1675
     25 C          50.5761   12.6076  -19.2941 C.ar    1  UNL1        0.0503
     26 C          50.4791   12.3668  -17.9089 C.ar    1  UNL1        0.0328
     27 C          49.2662   12.5470  -17.2325 C.ar    1  UNL1        0.1069
     28 C          48.1401   12.9886  -17.9332 C.ar    1  UNL1        0.0186
     29 C          48.2205   13.2382  -19.3026 C.ar    1  UNL1        0.0071
     30 C          49.4278   13.0534  -19.9896 C.ar    1  UNL1        0.0668
     31 S          49.1712   12.2479  -15.5000 S.O2    1  UNL1        0.0105
     32 C          48.7527   13.7595  -14.6627 C.3     1  UNL1        0.1816
     33 O          48.1216   11.2102  -15.2155 O.2     1  UNL1       -0.1686
     34 O          50.4956   11.7436  -14.9992 O.2     1  UNL1       -0.1686
     35 N          51.8185   12.3913  -19.9988 N.pl3   1  UNL1       -0.3325
     36 H          51.8865   11.6077  -20.6856 H       1  UNL1        0.1468
     37 C          52.7556   14.6588  -19.8041 C.3     1  UNL1        0.0229
     38 C          53.0426   13.1606  -19.7681 C.3     1  UNL1        0.0871
@<TRIPOS>BOND
     1    37    38    1
     2    38    35    1
     3    35    25    1
     4    25    26   ar
     5    26    27   ar
     6    27    31    1
     7    31    32    1
     8    31    33    2
     9    31    34    2
    10    27    28   ar
    11    28    29   ar
    12    29    30   ar
    13    30     1    1
    14     1     2    2
    15     1     3   am
    16     3     4    1
    17     4     5    1
    18     5     6    1
    19     6     7    1
    20     7     8   ar
    21     8     9   ar
    22     9    10   ar
    23    10    15    1
    24    15    16   ar
    25    16    17   ar
    26    17    18   ar
    27    18    19   ar
    28    19    20   ar
    29    20    21   ar
    30    21    22   ar
    31    22    23   ar
    32    10    11   ar
    33    11    12   ar
    34    12    13    1
    35    13    14    1
    36    30    25   ar
    37    13     3    1
    38    12     7   ar
    39    23    15   ar
    40    22    18   ar
    41    35    36    1
    42    21    24    1
@<TRIPOS>MOLECULE
*****
 38 42 0 0 0
SMALL
GASTEIGER

@<TRIPOS>ATOM
      1 C          49.4041   12.8213  -21.1207 C.2     1  UNL1        0.2524
      2 O          50.4380   13.3884  -21.5676 O.2     1  UNL1       -0.2698
      3 N          48.3644   12.3937  -22.0272 N.am    1  UNL1       -0.2424
      4 C          47.4492   11.3095  -21.6390 C.3     1  UNL1        0.1437
      5 C          46.0749   11.8729  -21.2686 C.3     1  UNL1        0.2269
      6 O          45.6232   12.8474  -22.2084 O.3     1  UNL1       -0.4738
      7 C          45.7780   12.6794  -23.5853 C.ar    1  UNL1        0.1388
      8 C          44.6418   12.5204  -24.3821 C.ar    1  UNL1        0.0367
      9 C          44.7670   12.3098  -25.7558 C.ar    1  UNL1        0.0031
     10 C          46.0359   12.2709  -26.3573 C.ar    1  UNL1        0.0001
     11 C          47.1765   12.4596  -25.5560 C.ar    1  UNL1        0.0031
     12 C          47.0617   12.6586  -24.1689 C.ar    1  UNL1        0.0633
     13 C          48.3000   13.0169  -23.3654 C.3     1  UNL1        0.2658
     14 F          48.3284   14.3950  -23.2301 F       1  UNL1       -0.2095
     15 C          46.1711   12.0501  -27.8195 C.ar    1  UNL1        0.0015
     16 C          46.5627   10.7779  -28.3238 C.ar    1  UNL1        0.0016
     17 C          46.6939   10.5597  -29.7081 C.ar    1  UNL1        0.0206
     18 C          46.4284   11.6261  -30.5602 C.ar    1  UNL1        0.0985
     19 N          46.4921   11.6428  -31.9037 N.ar    1  UNL1       -0.2241
     20 C          46.1402   12.9203  -32.2067 C.ar    1  UNL1        0.1750
     21 N          45.8668   13.6786  -31.1179 N.ar    1  UNL1       -0.3349
     22 C          46.0530   12.8452  -30.0877 C.ar    1  UNL1        0.0757
     23 C          45.9106   13.1054  -28.7277 C.ar    1  UNL1        0.0185
     24 H          45.5777   14.6816  -31.0921 H       1  UNL1        0.1675
     25 C          49.7743   11.4849  -19.0148 C.ar    1  UNL1        0.0503
     26 C          49.6004   11.3620  -17.6216 C.ar    1  UNL1        0.0328
     27 C          48.9304   12.3520  -16.8920 C.ar    1  UNL1        0.1069
     28 C          48.4426   13.4862  -17.5474 C.ar    1  UNL1        0.0186
     29 C          48.6123   13.6270  -18.9243 C.ar    1  UNL1        0.0071
     30 C          49.2745   12.6381  -19.6641 C.ar    1  UNL1        0.0668
     31 S          48.7326   12.1805  -15.1509 S.O2    1  UNL1        0.0105
     32 C          50.3244   11.9343  -14.3980 C.3     1  UNL1        0.1816
     33 O          48.0955   13.4178  -14.5828 O.2     1  UNL1       -0.1686
     34 O          47.8467   11.0030  -14.8548 O.2     1  UNL1       -0.1686
     35 N          50.4370   10.4493  -19.7732 N.pl3   1  UNL1       -0.3325
     36 H          51.4274   10.5900  -20.0727 H       1  UNL1        0.1468
     37 C          49.8265    9.1144  -21.7487 C.3     1  UNL1        0.0229
     38 C          49.7903    9.2167  -20.2267 C.3     1  UNL1        0.0871
@<TRIPOS>BOND
     1    37    38    1
     2    38    35    1
     3    35    25    1
     4    25    26   ar
     5    26    27   ar
     6    27    31    1
     7    31    32    1
     8    31    33    2
     9    31    34    2
    10    27    28   ar
    11    28    29   ar
    12    29    30   ar
    13    30     1    1
    14     1     2    2
    15     1     3   am
    16     3     4    1
    17     4     5    1
    18     5     6    1
    19     6     7    1
    20     7     8   ar
    21     8     9   ar
    22     9    10   ar
    23    10    15    1
    24    15    16   ar
    25    16    17   ar
    26    17    18   ar
    27    18    19   ar
    28    19    20   ar
    29    20    21   ar
    30    21    22   ar
    31    22    23   ar
    32    10    11   ar
    33    11    12   ar
    34    12    13    1
    35    13    14    1
    36    30    25   ar
    37    13     3    1
    38    12     7   ar
    39    23    15   ar
    40    22    18   ar
    41    35    36    1
    42    21    24    1
@<TRIPOS>MOLECULE
*****
 38 42 0 0 0
SMALL
GASTEIGER

@<TRIPOS>ATOM
      1 C          49.7081   11.5177  -21.5550 C.2     1  UNL1        0.2524
      2 O          50.8383   11.2476  -22.0450 O.2     1  UNL1       -0.2698
      3 N          48.5906   11.7987  -22.4255 N.am    1  UNL1       -0.2424
      4 C          47.2148   11.5950  -21.9465 C.3     1  UNL1        0.1437
      5 C          46.5489   12.9383  -21.6370 C.3     1  UNL1        0.2269
      6 O          46.7814   13.9018  -22.6640 O.3     1  UNL1       -0.4738
      7 C          46.7173   13.5735  -24.0190 C.ar    1  UNL1        0.1388
      8 C          45.7049   14.1289  -24.8051 C.ar    1  UNL1        0.0367
      9 C          45.5909   13.7877  -26.1534 C.ar    1  UNL1        0.0031
     10 C          46.5018   12.8941  -26.7410 C.ar    1  UNL1        0.0001
     11 C          47.5367   12.3587  -25.9531 C.ar    1  UNL1        0.0031
     12 C          47.6519   12.6854  -24.5904 C.ar    1  UNL1        0.0633
     13 C          48.8708   12.2160  -23.8150 C.3     1  UNL1        0.2658
     14 F          49.7875   13.2542  -23.8048 F       1  UNL1       -0.2095
     15 C          46.3840   12.5321  -28.1763 C.ar    1  UNL1        0.0015
     16 C          46.5692   11.1854  -28.5983 C.ar    1  UNL1        0.0016
     17 C          46.4600   10.8333  -29.9567 C.ar    1  UNL1        0.0206
     18 C          46.1660   11.8434  -30.8662 C.ar    1  UNL1        0.0985
     19 N          46.0190   11.7348  -32.1989 N.ar    1  UNL1       -0.2241
     20 C          45.7464   13.0115  -32.5775 C.ar    1  UNL1        0.1750
     21 N          45.7205   13.8879  -31.5447 N.ar    1  UNL1       -0.3349
     22 C          45.9866   13.1330  -30.4724 C.ar    1  UNL1        0.0757
     23 C          46.0850   13.5256  -29.1406 C.ar    1  UNL1        0.0185
     24 H          45.5353   14.9149  -31.5807 H       1  UNL1        0.1675
     25 C          50.6145   12.0432  -19.2616 C.ar    1  UNL1        0.0503
     26 C          50.4254   12.0475  -17.8650 C.ar    1  UNL1        0.0328
     27 C          49.2337   11.5753  -17.3009 C.ar    1  UNL1        0.1069
     28 C          48.2098   11.1100  -18.1310 C.ar    1  UNL1        0.0186
     29 C          48.3778   11.1054  -19.5152 C.ar    1  UNL1        0.0071
     30 C          49.5696   11.5687  -20.0886 C.ar    1  UNL1        0.0668
     31 S          49.0170   11.5982  -15.5537 S.O2    1  UNL1        0.0105
     32 C          48.8765   13.2816  -14.9990 C.3     1  UNL1        0.1816
     33 O          47.7722   10.8423  -15.1814 O.2     1  UNL1       -0.1686
     34 O          50.1951   10.9442  -14.8880 O.2     1  UNL1       -0.1686
     35 N          51.8556   12.5002  -19.8428 N.pl3   1  UNL1       -0.3325
     36 H          52.5621   11.7980  -20.1561 H       1  UNL1        0.1468
     37 C          52.3220   14.3200  -21.4328 C.3     1  UNL1        0.0229
     38 C          52.2400   13.9074  -19.9661 C.3     1  UNL1        0.0871
@<TRIPOS>BOND
     1    37    38    1
     2    38    35    1
     3    35    25    1
     4    25    26   ar
     5    26    27   ar
     6    27    31    1
     7    31    32    1
     8    31    33    2
     9    31    34    2
    10    27    28   ar
    11    28    29   ar
    12    29    30   ar
    13    30     1    1
    14     1     2    2
    15     1     3   am
    16     3     4    1
    17     4     5    1
    18     5     6    1
    19     6     7    1
    20     7     8   ar
    21     8     9   ar
    22     9    10   ar
    23    10    15    1
    24    15    16   ar
    25    16    17   ar
    26    17    18   ar
    27    18    19   ar
    28    19    20   ar
    29    20    21   ar
    30    21    22   ar
    31    22    23   ar
    32    10    11   ar
    33    11    12   ar
    34    12    13    1
    35    13    14    1
    36    30    25   ar
    37    13     3    1
    38    12     7   ar
    39    23    15   ar
    40    22    18   ar
    41    35    36    1
    42    21    24    1
@<TRIPOS>MOLECULE
*****
 38 42 0 0 0
SMALL
GASTEIGER

@<TRIPOS>ATOM
      1 C          46.2212   12.1725  -25.9857 C.2     1  UNL1        0.2524
      2 O          45.2492   11.5801  -25.4429 O.2     1  UNL1       -0.2698
      3 N          47.3448   12.6014  -25.1864 N.am    1  UNL1       -0.2424
      4 C          48.6620   12.7950  -25.8118 C.3     1  UNL1        0.1437
      5 C          48.9662   14.2866  -25.9737 C.3     1  UNL1        0.2269
      6 O          48.6506   15.0296  -24.7966 O.3     1  UNL1       -0.4738
      7 C          48.9520   14.5588  -23.5178 C.ar    1  UNL1        0.1388
      8 C          49.9020   15.2373  -22.7507 C.ar    1  UNL1        0.0367
      9 C          50.2537   14.7668  -21.4850 C.ar    1  UNL1        0.0031
     10 C          49.6457   13.6146  -20.9595 C.ar    1  UNL1        0.0001
     11 C          48.6691   12.9501  -21.7233 C.ar    1  UNL1        0.0031
     12 C          48.3177   13.4082  -23.0053 C.ar    1  UNL1        0.0633
     13 C          47.1500   12.7615  -23.7304 C.3     1  UNL1        0.2658
     14 F          46.0294   13.5427  -23.5020 F       1  UNL1       -0.2095
     15 C          50.0163   13.1141  -19.6115 C.ar    1  UNL1        0.0015
     16 C          51.3821   13.0508  -19.2157 C.ar    1  UNL1        0.0016
     17 C          51.7426   12.5774  -17.9402 C.ar    1  UNL1        0.0206
     18 C          50.7216   12.1761  -17.0856 C.ar    1  UNL1        0.0985
     19 N          50.8358   11.6938  -15.8351 N.ar    1  UNL1       -0.2241
     20 C          49.5435   11.4675  -15.4797 C.ar    1  UNL1        0.1750
     21 N          48.6523   11.7872  -16.4487 N.ar    1  UNL1       -0.3349
     22 C          49.4136   12.2335  -17.4545 C.ar    1  UNL1        0.0757
     23 C          49.0120   12.6947  -18.7050 C.ar    1  UNL1        0.0185
     24 H          47.6121   11.7034  -16.4151 H       1  UNL1        0.1675
     25 C          45.8473   13.7212  -27.9400 C.ar    1  UNL1        0.0503
     26 C          45.7902   13.9045  -29.3362 C.ar    1  UNL1        0.0328
     27 C          46.0250   12.8359  -30.2103 C.ar    1  UNL1        0.1069
     28 C          46.3378   11.5745  -29.6956 C.ar    1  UNL1        0.0186
     29 C          46.4052   11.3774  -28.3169 C.ar    1  UNL1        0.0071
     30 C          46.1644   12.4388  -27.4341 C.ar    1  UNL1        0.0668
     31 S          45.9564   13.0909  -31.9511 S.O2    1  UNL1        0.0105
     32 C          44.4231   12.4482  -32.5812 C.3     1  UNL1        0.1816
     33 O          46.0482   14.5595  -32.2583 O.2     1  UNL1       -0.1686
     34 O          47.1082   12.3873  -32.6124 O.2     1  UNL1       -0.1686
     35 N          45.5739   14.8153  -27.0370 N.pl3   1  UNL1       -0.3325
     36 H          45.2237   14.6084  -26.0752 H       1  UNL1        0.1468
     37 C          46.3133   17.0304  -26.2599 C.3     1  UNL1        0.0229
     38 C          45.6855   16.2298  -27.3971 C.3     1  UNL1        0.0871
@<TRIPOS>BOND
     1    37    38    1
     2    38    35    1
     3    35    25    1
     4    25    26   ar
     5    26    27   ar
     6    27    31    1
     7    31    32    1
     8    31    33    2
     9    31    34    2
    10    27    28   ar
    11    28    29   ar
    12    29    30   ar
    13    30     1    1
    14     1     2    2
    15     1     3   am
    16     3     4    1
    17     4     5    1
    18     5     6    1
    19     6     7    1
    20     7     8   ar
    21     8     9   ar
    22     9    10   ar
    23    10    15    1
    24    15    16   ar
    25    16    17   ar
    26    17    18   ar
    27    18    19   ar
    28    19    20   ar
    29    20    21   ar
    30    21    22   ar
    31    22    23   ar
    32    10    11   ar
    33    11    12   ar
    34    12    13    1
    35    13    14    1
    36    30    25   ar
    37    13     3    1
    38    12     7   ar
    39    23    15   ar
    40    22    18   ar
    41    35    36    1
    42    21    24    1
@<TRIPOS>MOLECULE
*****
 38 42 0 0 0
SMALL
GASTEIGER

@<TRIPOS>ATOM
      1 C          49.9732   11.0873  -20.2842 C.2     1  UNL1        0.2524
      2 O          50.3948    9.9450  -20.6123 O.2     1  UNL1       -0.2698
      3 N          49.3025   11.9178  -21.2569 N.am    1  UNL1       -0.2424
      4 C          48.3688   12.9640  -20.8129 C.3     1  UNL1        0.1437
      5 C          49.0086   14.3482  -20.9483 C.3     1  UNL1        0.2269
      6 O          49.6756   14.5111  -22.1995 O.3     1  UNL1       -0.4738
      7 C          49.1256   14.0573  -23.3993 C.ar    1  UNL1        0.1388
      8 C          48.7431   14.9896  -24.3666 C.ar    1  UNL1        0.0367
      9 C          48.1531   14.5680  -25.5587 C.ar    1  UNL1        0.0031
     10 C          47.9506   13.2004  -25.8082 C.ar    1  UNL1        0.0001
     11 C          48.3628   12.2630  -24.8438 C.ar    1  UNL1        0.0031
     12 C          48.9456   12.6783  -23.6335 C.ar    1  UNL1        0.0633
     13 C          49.5215   11.6358  -22.6907 C.3     1  UNL1        0.2658
     14 F          50.8816   11.5518  -22.9380 F       1  UNL1       -0.2095
     15 C          47.3257   12.7496  -27.0775 C.ar    1  UNL1        0.0015
     16 C          47.1729   11.3616  -27.3533 C.ar    1  UNL1        0.0016
     17 C          46.5821   10.9252  -28.5540 C.ar    1  UNL1        0.0206
     18 C          46.1556   11.8940  -29.4558 C.ar    1  UNL1        0.0985
     19 N          45.5722   11.7052  -30.6531 N.ar    1  UNL1       -0.2241
     20 C          45.3748   12.9750  -31.0961 C.ar    1  UNL1        0.1750
     21 N          45.8077   13.9231  -30.2307 N.ar    1  UNL1       -0.3349
     22 C          46.2967   13.2227  -29.2008 C.ar    1  UNL1        0.0757
     23 C          46.8745   13.6987  -28.0272 C.ar    1  UNL1        0.0185
     24 H          45.7676   14.9603  -30.3443 H       1  UNL1        0.1675
     25 C          51.3776   12.2739  -18.5587 C.ar    1  UNL1        0.0503
     26 C          51.5515   12.6775  -17.2197 C.ar    1  UNL1        0.0328
     27 C          50.5965   12.3617  -16.2452 C.ar    1  UNL1        0.1069
     28 C          49.4465   11.6532  -16.6050 C.ar    1  UNL1        0.0186
     29 C          49.2554   11.2523  -17.9267 C.ar    1  UNL1        0.0071
     30 C          50.2090   11.5570  -18.9073 C.ar    1  UNL1        0.0668
     31 S          50.8315   12.8838  -14.5803 S.O2    1  UNL1        0.0105
     32 C          49.3982   13.7848  -14.0370 C.3     1  UNL1        0.1816
     33 O          51.0386   11.6888  -13.6923 O.2     1  UNL1       -0.1686
     34 O          52.0453   13.7658  -14.4920 O.2     1  UNL1       -0.1686
     35 N          52.3772   12.5714  -19.5583 N.pl3   1  UNL1       -0.3325
     36 H          53.0075   11.8090  -19.8931 H       1  UNL1        0.1468
     37 C          52.9415   13.8354  -21.5933 C.3     1  UNL1        0.0229
     38 C          52.6288   13.9073  -20.1015 C.3     1  UNL1        0.0871
@<TRIPOS>BOND
     1    37    38    1
     2    38    35    1
     3    35    25    1
     4    25    26   ar
     5    26    27   ar
     6    27    31    1
     7    31    32    1
     8    31    33    2
     9    31    34    2
    10    27    28   ar
    11    28    29   ar
    12    29    30   ar
    13    30     1    1
    14     1     2    2
    15     1     3   am
    16     3     4    1
    17     4     5    1
    18     5     6    1
    19     6     7    1
    20     7     8   ar
    21     8     9   ar
    22     9    10   ar
    23    10    15    1
    24    15    16   ar
    25    16    17   ar
    26    17    18   ar
    27    18    19   ar
    28    19    20   ar
    29    20    21   ar
    30    21    22   ar
    31    22    23   ar
    32    10    11   ar
    33    11    12   ar
    34    12    13    1
    35    13    14    1
    36    30    25   ar
    37    13     3    1
    38    12     7   ar
    39    23    15   ar
    40    22    18   ar
    41    35    36    1
    42    21    24    1
@<TRIPOS>MOLECULE
*****
 38 42 0 0 0
SMALL
GASTEIGER

@<TRIPOS>ATOM
      1 C          49.0118    9.2161  -21.9525 C.2     1  UNL1        0.2524
      2 O          48.6765    8.0054  -21.8421 O.2     1  UNL1       -0.2698
      3 N          49.5364    9.7103  -23.2038 N.am    1  UNL1       -0.2424
      4 C          49.4361   11.1410  -23.5304 C.3     1  UNL1        0.1437
      5 C          50.7961   11.8254  -23.3710 C.3     1  UNL1        0.2269
      6 O          51.8526   11.0622  -23.9527 O.3     1  UNL1       -0.4738
      7 C          51.7166   10.4255  -25.1872 C.ar    1  UNL1        0.1388
      8 C          52.4875   10.8644  -26.2662 C.ar    1  UNL1        0.0367
      9 C          52.3438   10.2744  -27.5225 C.ar    1  UNL1        0.0031
     10 C          51.4340    9.2214  -27.7146 C.ar    1  UNL1        0.0001
     11 C          50.6798    8.7634  -26.6191 C.ar    1  UNL1        0.0031
     12 C          50.8072    9.3604  -25.3525 C.ar    1  UNL1        0.0633
     13 C          50.0976    8.7366  -24.1631 C.3     1  UNL1        0.2658
     14 F          51.0089    7.9238  -23.5096 F       1  UNL1       -0.2095
     15 C          51.2818    8.5901  -29.0500 C.ar    1  UNL1        0.0015
     16 C          52.3550    8.6118  -29.9848 C.ar    1  UNL1        0.0016
     17 C          52.2195    8.0164  -31.2530 C.ar    1  UNL1        0.0206
     18 C          51.0059    7.4096  -31.5576 C.ar    1  UNL1        0.0985
     19 N          50.6592    6.7880  -32.6989 N.ar    1  UNL1       -0.2241
     20 C          49.3820    6.3937  -32.4519 C.ar    1  UNL1        0.1750
     21 N          48.9365    6.7436  -31.2213 N.ar    1  UNL1       -0.3349
     22 C          49.9748    7.3832  -30.6706 C.ar    1  UNL1        0.0757
     23 C          50.0650    7.9587  -29.4064 C.ar    1  UNL1        0.0185
     24 H          47.9987    6.5559  -30.8023 H       1  UNL1        0.1675
     25 C          47.7606   10.9331  -20.5944 C.ar    1  UNL1        0.0503
     26 C          47.7093   11.7620  -19.4558 C.ar    1  UNL1        0.0328
     27 C          48.7569   11.7703  -18.5265 C.ar    1  UNL1        0.1069
     28 C          49.8606   10.9340  -18.7178 C.ar    1  UNL1        0.0186
     29 C          49.9241   10.1024  -19.8353 C.ar    1  UNL1        0.0071
     30 C          48.8843   10.0929  -20.7747 C.ar    1  UNL1        0.0668
     31 S          48.6667   12.8082  -17.1071 S.O2    1  UNL1        0.0105
     32 C          48.6571   11.8026  -15.6409 C.3     1  UNL1        0.1816
     33 O          49.8508   13.7336  -17.0724 O.2     1  UNL1       -0.1686
     34 O          47.4117   13.6334  -17.1614 O.2     1  UNL1       -0.1686
     35 N          46.6954   10.9473  -21.5702 N.pl3   1  UNL1       -0.3325
     36 H          46.4344   10.0597  -22.0544 H       1  UNL1        0.1468
     37 C          46.0516   12.3172  -23.5108 C.3     1  UNL1        0.0229
     38 C          45.9821   12.1529  -21.9954 C.3     1  UNL1        0.0871
@<TRIPOS>BOND
     1    37    38    1
     2    38    35    1
     3    35    25    1
     4    25    26   ar
     5    26    27   ar
     6    27    31    1
     7    31    32    1
     8    31    33    2
     9    31    34    2
    10    27    28   ar
    11    28    29   ar
    12    29    30   ar
    13    30     1    1
    14     1     2    2
    15     1     3   am
    16     3     4    1
    17     4     5    1
    18     5     6    1
    19     6     7    1
    20     7     8   ar
    21     8     9   ar
    22     9    10   ar
    23    10    15    1
    24    15    16   ar
    25    16    17   ar
    26    17    18   ar
    27    18    19   ar
    28    19    20   ar
    29    20    21   ar
    30    21    22   ar
    31    22    23   ar
    32    10    11   ar
    33    11    12   ar
    34    12    13    1
    35    13    14    1
    36    30    25   ar
    37    13     3    1
    38    12     7   ar
    39    23    15   ar
    40    22    18   ar
    41    35    36    1
    42    21    24    1
@<TRIPOS>MOLECULE
*****
 38 42 0 0 0
SMALL
GASTEIGER

@<TRIPOS>ATOM
      1 C          46.1553   11.7567  -26.5105 C.2     1  UNL1        0.2524
      2 O          45.3129   10.9433  -26.0424 O.2     1  UNL1       -0.2698
      3 N          47.1157   12.3873  -25.6355 N.am    1  UNL1       -0.2424
      4 C          48.3865   12.8913  -26.1784 C.3     1  UNL1        0.1437
      5 C          48.3608   14.4187  -26.2771 C.3     1  UNL1        0.2269
      6 O          47.8314   15.0239  -25.0980 O.3     1  UNL1       -0.4738
      7 C          48.1663   14.5770  -23.8189 C.ar    1  UNL1        0.1388
      8 C          48.9039   15.4142  -22.9785 C.ar    1  UNL1        0.0367
      9 C          49.2884   14.9791  -21.7096 C.ar    1  UNL1        0.0031
     10 C          48.9253   13.7004  -21.2551 C.ar    1  UNL1        0.0001
     11 C          48.1584   12.8710  -22.0934 C.ar    1  UNL1        0.0031
     12 C          47.7779   13.2947  -23.3789 C.ar    1  UNL1        0.0633
     13 C          46.8191   12.4391  -24.1889 C.3     1  UNL1        0.2658
     14 F          45.5436   12.9453  -24.0012 F       1  UNL1       -0.2095
     15 C          49.3308   13.2368  -19.9040 C.ar    1  UNL1        0.0015
     16 C          48.3759   12.6524  -19.0249 C.ar    1  UNL1        0.0016
     17 C          48.7513   12.2106  -17.7423 C.ar    1  UNL1        0.0206
     18 C          50.0815   12.3650  -17.3675 C.ar    1  UNL1        0.0985
     19 N          50.6540   12.0190  -16.2004 N.ar    1  UNL1       -0.2241
     20 C          51.9486   12.3939  -16.3765 C.ar    1  UNL1        0.1750
     21 N          52.1908   12.9488  -17.5884 N.ar    1  UNL1       -0.3349
     22 C          51.0014   12.9216  -18.2007 C.ar    1  UNL1        0.0757
     23 C          50.6746   13.3716  -19.4768 C.ar    1  UNL1        0.0185
     24 H          53.0977   13.3127  -17.9565 H       1  UNL1        0.1675
     25 C          46.5185   11.1217  -28.9235 C.ar    1  UNL1        0.0503
     26 C          46.4712   11.4867  -30.2839 C.ar    1  UNL1        0.0328
     27 C          46.0473   12.7645  -30.6697 C.ar    1  UNL1        0.1069
     28 C          45.6482   13.6859  -29.6972 C.ar    1  UNL1        0.0186
     29 C          45.6822   13.3387  -28.3472 C.ar    1  UNL1        0.0071
     30 C          46.1121   12.0652  -27.9510 C.ar    1  UNL1        0.0668
     31 S          45.9887   13.1949  -32.3759 S.O2    1  UNL1        0.0105
     32 C          44.4503   12.6382  -33.0719 C.3     1  UNL1        0.1816
     33 O          46.0994   14.6858  -32.5328 O.2     1  UNL1       -0.1686
     34 O          47.1346   12.5476  -33.1018 O.2     1  UNL1       -0.1686
     35 N          46.9858    9.8149  -28.5225 N.pl3   1  UNL1       -0.3325
     36 H          46.5966    9.3761  -27.6585 H       1  UNL1        0.1468
     37 C          49.3415    9.1102  -28.4155 C.3     1  UNL1        0.0229
     38 C          48.0403    9.0686  -29.2112 C.3     1  UNL1        0.0871
@<TRIPOS>BOND
     1    37    38    1
     2    38    35    1
     3    35    25    1
     4    25    26   ar
     5    26    27   ar
     6    27    31    1
     7    31    32    1
     8    31    33    2
     9    31    34    2
    10    27    28   ar
    11    28    29   ar
    12    29    30   ar
    13    30     1    1
    14     1     2    2
    15     1     3   am
    16     3     4    1
    17     4     5    1
    18     5     6    1
    19     6     7    1
    20     7     8   ar
    21     8     9   ar
    22     9    10   ar
    23    10    15    1
    24    15    16   ar
    25    16    17   ar
    26    17    18   ar
    27    18    19   ar
    28    19    20   ar
    29    20    21   ar
    30    21    22   ar
    31    22    23   ar
    32    10    11   ar
    33    11    12   ar
    34    12    13    1
    35    13    14    1
    36    30    25   ar
    37    13     3    1
    38    12     7   ar
    39    23    15   ar
    40    22    18   ar
    41    35    36    1
    42    21    24    1
@<TRIPOS>MOLECULE
*****
 38 42 0 0 0
SMALL
GASTEIGER

@<TRIPOS>ATOM
      1 C          46.8896   12.2843  -20.0041 C.2     1  UNL1        0.2524
      2 O          45.6857   11.9133  -19.9444 O.2     1  UNL1       -0.2698
      3 N          47.5019   12.5504  -21.2846 N.am    1  UNL1       -0.2424
      4 C          48.6605   13.4524  -21.3734 C.3     1  UNL1        0.1437
      5 C          49.9485   12.6536  -21.5889 C.3     1  UNL1        0.2269
      6 O          49.7916   11.6399  -22.5813 O.3     1  UNL1       -0.4738
      7 C          49.0980   11.8659  -23.7711 C.ar    1  UNL1        0.1388
      8 C          49.7986   11.8483  -24.9795 C.ar    1  UNL1        0.0367
      9 C          49.1397   12.1112  -26.1811 C.ar    1  UNL1        0.0031
     10 C          47.7611   12.3812  -26.1929 C.ar    1  UNL1        0.0001
     11 C          47.0537   12.3702  -24.9771 C.ar    1  UNL1        0.0031
     12 C          47.7109   12.1201  -23.7596 C.ar    1  UNL1        0.0633
     13 C          46.8894   11.9587  -22.4921 C.3     1  UNL1        0.2658
     14 F          46.6939   10.6028  -22.2883 F       1  UNL1       -0.2095
     15 C          47.0576   12.6581  -27.4709 C.ar    1  UNL1        0.0015
     16 C          46.4520   13.9255  -27.7011 C.ar    1  UNL1        0.0016
     17 C          45.7826   14.1966  -28.9093 C.ar    1  UNL1        0.0206
     18 C          45.7349   13.1869  -29.8643 C.ar    1  UNL1        0.0985
     19 N          45.1526   13.2261  -31.0762 N.ar    1  UNL1       -0.2241
     20 C          45.4067   11.9867  -31.5733 C.ar    1  UNL1        0.1750
     21 N          46.1122   11.1987  -30.7268 N.ar    1  UNL1       -0.3349
     22 C          46.3112   11.9728  -29.6536 C.ar    1  UNL1        0.0757
     23 C          46.9830   11.6617  -28.4748 C.ar    1  UNL1        0.0185
     24 H          46.4264   10.2148  -30.8796 H       1  UNL1        0.1675
     25 C          48.4600   11.3499  -18.2668 C.ar    1  UNL1        0.0503
     26 C          49.1485   11.5238  -17.0494 C.ar    1  UNL1        0.0328
     27 C          49.0246   12.7118  -16.3184 C.ar    1  UNL1        0.1069
     28 C          48.2233   13.7473  -16.8080 C.ar    1  UNL1        0.0186
     29 C          47.5408   13.5944  -18.0142 C.ar    1  UNL1        0.0071
     30 C          47.6524   12.4064  -18.7491 C.ar    1  UNL1        0.0668
     31 S          49.9011   12.9093  -14.8041 S.O2    1  UNL1        0.0105
     32 C          51.6488   12.8220  -15.1187 C.3     1  UNL1        0.1816
     33 O          49.5684   14.2398  -14.1888 O.2     1  UNL1       -0.1686
     34 O          49.5062   11.8223  -13.8442 O.2     1  UNL1       -0.1686
     35 N          48.5618   10.1127  -19.0057 N.pl3   1  UNL1       -0.3325
     36 H          47.7672    9.4357  -18.9803 H       1  UNL1        0.1468
     37 C          49.3585    9.0454  -21.0753 C.3     1  UNL1        0.0229
     38 C          49.7502    9.6914  -19.7496 C.3     1  UNL1        0.0871
@<TRIPOS>BOND
     1    37    38    1
     2    38    35    1
     3    35    25    1
     4    25    26   ar
     5    26    27   ar
     6    27    31    1
     7    31    32    1
     8    31    33    2
     9    31    34    2
    10    27    28   ar
    11    28    29   ar
    12    29    30   ar
    13    30     1    1
    14     1     2    2
    15     1     3   am
    16     3     4    1
    17     4     5    1
    18     5     6    1
    19     6     7    1
    20     7     8   ar
    21     8     9   ar
    22     9    10   ar
    23    10    15    1
    24    15    16   ar
    25    16    17   ar
    26    17    18   ar
    27    18    19   ar
    28    19    20   ar
    29    20    21   ar
    30    21    22   ar
    31    22    23   ar
    32    10    11   ar
    33    11    12   ar
    34    12    13    1
    35    13    14    1
    36    30    25   ar
    37    13     3    1
    38    12     7   ar
    39    23    15   ar
    40    22    18   ar
    41    35    36    1
    42    21    24    1
