@<TRIPOS>MOLECULE
*****
 37 41 0 0 0
SMALL
GASTEIGER

@<TRIPOS>ATOM
      1 C          -9.5958  -18.5476   25.4015 C.ar    1  UNL1       -0.0194
      2 C          -8.7905  -17.9388   24.4044 C.ar    1  UNL1        0.0119
      3 C          -8.1432  -16.7072   24.6480 C.ar    1  UNL1        0.0670
      4 C          -8.3385  -16.1181   25.9027 C.ar    1  UNL1        0.1116
      5 N          -7.8541  -14.9472   26.3536 N.ar    1  UNL1       -0.2258
      6 C          -8.3711  -14.8543   27.6088 C.ar    1  UNL1        0.1406
      7 N          -9.1541  -15.9150   27.9411 N.ar    1  UNL1       -0.3373
      8 C          -9.1221  -16.6960   26.8543 C.ar    1  UNL1        0.0765
      9 C          -9.7738  -17.9079   26.6474 C.ar    1  UNL1        0.0144
     10 H          -9.6690  -16.1036   28.8287 H       1  UNL1        0.1674
     11 N          -7.3210  -16.0939   23.6381 N.pl3   1  UNL1       -0.3035
     12 C          -7.9124  -15.6891   22.3599 C.3     1  UNL1        0.1082
     13 C          -6.9009  -15.8956   21.2309 C.3     1  UNL1        0.0941
     14 N          -5.6284  -15.2158   21.5501 N.3     1  UNL1       -0.2647
     15 C          -5.0445  -15.7920   22.7816 C.3     1  UNL1        0.0941
     16 C          -5.9879  -15.5826   23.9675 C.3     1  UNL1        0.1082
     17 C          -4.6902  -15.3477   20.4170 C.3     1  UNL1        0.1200
     18 C          -3.5413  -16.2415   20.7877 C.ar    1  UNL1        0.0885
     19 N          -2.4652  -15.8092   21.4767 N.ar    1  UNL1       -0.2273
     20 C          -1.7141  -16.9163   21.6539 C.ar    1  UNL1        0.1780
     21 N          -2.2786  -18.0201   21.1231 N.ar    1  UNL1       -0.3128
     22 C          -3.4270  -17.6010   20.5528 C.ar    1  UNL1        0.0537
     23 C          -4.4360  -18.4772   19.8677 C.3     1  UNL1        0.0514
     24 C          -1.7031  -19.3656   21.1348 C.3     1  UNL1        0.1073
     25 C          -0.1817  -19.2927   21.0804 C.3     1  UNL1        0.0265
     26 C          -8.0919  -13.7026   28.5038 C.ar    1  UNL1        0.0339
     27 C          -6.7983  -13.1753   28.6409 C.ar    1  UNL1        0.0027
     28 C          -6.5576  -12.0912   29.4886 C.ar    1  UNL1       -0.0042
     29 C          -7.5997  -11.4948   30.2306 C.ar    1  UNL1       -0.0228
     30 C          -8.8979  -12.0352   30.0867 C.ar    1  UNL1       -0.0042
     31 C          -9.1360  -13.1198   29.2385 C.ar    1  UNL1        0.0027
     32 C          -7.2901  -10.2990   31.1551 C.3     1  UNL1        0.0189
     33 C          -5.7721  -10.0167   31.1408 C.3     1  UNL1        0.0044
     34 C          -8.0486   -9.0507   30.6541 C.3     1  UNL1        0.0044
     35 C          -7.7085  -10.5438   32.6251 C.3     1  UNL1        0.0044
     36 C         -10.2889  -20.1426   23.6166 C.3     1  UNL1        0.0050
     37 C         -10.3039  -19.8431   25.1117 C.3     1  UNL1        0.0265
@<TRIPOS>BOND
     1    36    37    1
     2    37     1    1
     3     1     2   ar
     4     2     3   ar
     5     3    11    1
     6    11    12    1
     7    12    13    1
     8    13    14    1
     9    14    17    1
    10    17    18    1
    11    18    19   ar
    12    19    20   ar
    13    20    21   ar
    14    21    24    1
    15    24    25    1
    16    21    22   ar
    17    22    23    1
    18    14    15    1
    19    15    16    1
    20     3     4   ar
    21     4     5   ar
    22     5     6   ar
    23     6    26    1
    24    26    27   ar
    25    27    28   ar
    26    28    29   ar
    27    29    32    1
    28    32    33    1
    29    32    34    1
    30    32    35    1
    31    29    30   ar
    32    30    31   ar
    33     6     7   ar
    34     7     8   ar
    35     8     9   ar
    36     9     1   ar
    37    16    11    1
    38     8     4   ar
    39    22    18   ar
    40    31    26   ar
    41     7    10    1
@<TRIPOS>MOLECULE
*****
 37 41 0 0 0
SMALL
GASTEIGER

@<TRIPOS>ATOM
      1 C          -5.6169  -10.8729   30.0005 C.ar    1  UNL1       -0.0194
      2 C          -6.9043  -10.6861   30.5672 C.ar    1  UNL1        0.0119
      3 C          -7.9860  -11.5160   30.1977 C.ar    1  UNL1        0.0670
      4 C          -7.7326  -12.5147   29.2502 C.ar    1  UNL1        0.1116
      5 N          -8.5991  -13.4000   28.7264 N.ar    1  UNL1       -0.2258
      6 C          -7.8363  -14.1067   27.8489 C.ar    1  UNL1        0.1406
      7 N          -6.5435  -13.6874   27.8106 N.ar    1  UNL1       -0.3373
      8 C          -6.5004  -12.6849   28.6968 C.ar    1  UNL1        0.0765
      9 C          -5.4137  -11.8857   29.0381 C.ar    1  UNL1        0.0144
     10 H          -5.7494  -14.0463   27.2370 H       1  UNL1        0.1674
     11 N          -9.2899  -11.3298   30.7783 N.pl3   1  UNL1       -0.3035
     12 C          -9.5059  -10.2700   31.7670 C.3     1  UNL1        0.1082
     13 C         -10.5217  -10.7341   32.8125 C.3     1  UNL1        0.0941
     14 N         -11.7572  -11.2072   32.1544 N.3     1  UNL1       -0.2647
     15 C         -11.4530  -12.3652   31.2848 C.3     1  UNL1        0.0941
     16 C         -10.4708  -11.9615   30.1836 C.3     1  UNL1        0.1082
     17 C         -12.7622  -11.5705   33.1740 C.3     1  UNL1        0.1200
     18 C         -13.2810  -12.9587   32.9287 C.ar    1  UNL1        0.0885
     19 N         -14.3184  -13.2221   32.1077 N.ar    1  UNL1       -0.2273
     20 C         -14.4194  -14.5678   32.1169 C.ar    1  UNL1        0.1780
     21 N         -13.4845  -15.1558   32.8909 N.ar    1  UNL1       -0.3128
     22 C         -12.7704  -14.1448   33.4274 C.ar    1  UNL1        0.0537
     23 C         -11.5803  -14.2954   34.3307 C.3     1  UNL1        0.0514
     24 C         -13.3444  -16.5944   33.1200 C.3     1  UNL1        0.1073
     25 C         -12.6474  -17.2551   31.9365 C.3     1  UNL1        0.0265
     26 C          -8.3841  -15.2180   27.0301 C.ar    1  UNL1        0.0339
     27 C          -8.6541  -16.4776   27.5875 C.ar    1  UNL1        0.0027
     28 C          -9.1692  -17.5094   26.7991 C.ar    1  UNL1       -0.0042
     29 C          -9.4328  -17.3211   25.4253 C.ar    1  UNL1       -0.0228
     30 C          -9.1551  -16.0496   24.8738 C.ar    1  UNL1       -0.0042
     31 C          -8.6395  -15.0193   25.6645 C.ar    1  UNL1        0.0027
     32 C         -10.0019  -18.4876   24.5910 C.3     1  UNL1        0.0189
     33 C         -11.4742  -18.1927   24.2307 C.3     1  UNL1        0.0044
     34 C          -9.1780  -18.6433   23.2943 C.3     1  UNL1        0.0044
     35 C          -9.9634  -19.8432   25.3372 C.3     1  UNL1        0.0044
     36 C          -5.0189   -8.6185   30.8781 C.3     1  UNL1        0.0050
     37 C          -4.4851   -9.9580   30.3819 C.3     1  UNL1        0.0265
@<TRIPOS>BOND
     1    36    37    1
     2    37     1    1
     3     1     2   ar
     4     2     3   ar
     5     3    11    1
     6    11    12    1
     7    12    13    1
     8    13    14    1
     9    14    17    1
    10    17    18    1
    11    18    19   ar
    12    19    20   ar
    13    20    21   ar
    14    21    24    1
    15    24    25    1
    16    21    22   ar
    17    22    23    1
    18    14    15    1
    19    15    16    1
    20     3     4   ar
    21     4     5   ar
    22     5     6   ar
    23     6    26    1
    24    26    27   ar
    25    27    28   ar
    26    28    29   ar
    27    29    32    1
    28    32    33    1
    29    32    34    1
    30    32    35    1
    31    29    30   ar
    32    30    31   ar
    33     6     7   ar
    34     7     8   ar
    35     8     9   ar
    36     9     1   ar
    37    16    11    1
    38     8     4   ar
    39    22    18   ar
    40    31    26   ar
    41     7    10    1
@<TRIPOS>MOLECULE
*****
 37 41 0 0 0
SMALL
GASTEIGER

@<TRIPOS>ATOM
      1 C          -5.5655   -8.8961   32.0686 C.ar    1  UNL1       -0.0194
      2 C          -6.8753   -9.0312   32.5972 C.ar    1  UNL1        0.0119
      3 C          -7.7677   -9.9985   32.0840 C.ar    1  UNL1        0.0670
      4 C          -7.3066  -10.8027   31.0351 C.ar    1  UNL1        0.1116
      5 N          -7.9740  -11.7635   30.3715 N.ar    1  UNL1       -0.2258
      6 C          -7.0716  -12.1952   29.4493 C.ar    1  UNL1        0.1406
      7 N          -5.8845  -11.5358   29.5179 N.ar    1  UNL1       -0.3373
      8 C          -6.0544  -10.6637   30.5193 C.ar    1  UNL1        0.0765
      9 C          -5.1506   -9.7217   31.0011 C.ar    1  UNL1        0.0144
     10 H          -5.0248  -11.6613   28.9403 H       1  UNL1        0.1674
     11 N          -9.0939  -10.1391   32.6256 N.pl3   1  UNL1       -0.3035
     12 C          -9.3065  -10.9223   33.8457 C.3     1  UNL1        0.1082
     13 C         -10.6518  -11.6468   33.7702 C.3     1  UNL1        0.0941
     14 N         -11.7358  -10.6882   33.4711 N.3     1  UNL1       -0.2647
     15 C         -11.4979  -10.0533   32.1559 C.3     1  UNL1        0.0941
     16 C         -10.1834   -9.2709   32.1715 C.3     1  UNL1        0.1082
     17 C         -13.0392  -11.3827   33.4867 C.3     1  UNL1        0.1200
     18 C         -12.9058  -12.7631   32.9095 C.ar    1  UNL1        0.0885
     19 N         -12.7929  -12.9996   31.5863 N.ar    1  UNL1       -0.2273
     20 C         -12.6329  -14.3367   31.4975 C.ar    1  UNL1        0.1780
     21 N         -12.6241  -14.9421   32.7027 N.ar    1  UNL1       -0.3128
     22 C         -12.8175  -13.9573   33.6041 C.ar    1  UNL1        0.0537
     23 C         -12.8404  -14.1270   35.0960 C.3     1  UNL1        0.0514
     24 C         -12.4881  -16.3803   32.9369 C.3     1  UNL1        0.1073
     25 C         -12.8260  -17.1586   31.6707 C.3     1  UNL1        0.0265
     26 C          -7.3769  -13.2779   28.4798 C.ar    1  UNL1        0.0339
     27 C          -8.6520  -13.8597   28.4056 C.ar    1  UNL1        0.0027
     28 C          -8.9178  -14.8774   27.4861 C.ar    1  UNL1       -0.0042
     29 C          -7.9197  -15.3513   26.6078 C.ar    1  UNL1       -0.0228
     30 C          -6.6386  -14.7601   26.6927 C.ar    1  UNL1       -0.0042
     31 C          -6.3752  -13.7427   27.6136 C.ar    1  UNL1        0.0027
     32 C          -8.2559  -16.4769   25.6074 C.3     1  UNL1        0.0189
     33 C          -6.9665  -16.9277   24.8872 C.3     1  UNL1        0.0044
     34 C          -8.8650  -17.6757   26.3667 C.3     1  UNL1        0.0044
     35 C          -9.2720  -16.0425   24.5236 C.3     1  UNL1        0.0044
     36 C          -4.6917   -6.5860   31.7369 C.3     1  UNL1        0.0050
     37 C          -4.6409   -7.8379   32.6061 C.3     1  UNL1        0.0265
@<TRIPOS>BOND
     1    36    37    1
     2    37     1    1
     3     1     2   ar
     4     2     3   ar
     5     3    11    1
     6    11    12    1
     7    12    13    1
     8    13    14    1
     9    14    17    1
    10    17    18    1
    11    18    19   ar
    12    19    20   ar
    13    20    21   ar
    14    21    24    1
    15    24    25    1
    16    21    22   ar
    17    22    23    1
    18    14    15    1
    19    15    16    1
    20     3     4   ar
    21     4     5   ar
    22     5     6   ar
    23     6    26    1
    24    26    27   ar
    25    27    28   ar
    26    28    29   ar
    27    29    32    1
    28    32    33    1
    29    32    34    1
    30    32    35    1
    31    29    30   ar
    32    30    31   ar
    33     6     7   ar
    34     7     8   ar
    35     8     9   ar
    36     9     1   ar
    37    16    11    1
    38     8     4   ar
    39    22    18   ar
    40    31    26   ar
    41     7    10    1
@<TRIPOS>MOLECULE
*****
 37 41 0 0 0
SMALL
GASTEIGER

@<TRIPOS>ATOM
      1 C         -11.9557  -12.8836   32.4205 C.ar    1  UNL1       -0.0194
      2 C         -11.6221  -11.5702   31.9998 C.ar    1  UNL1        0.0119
      3 C         -10.7961  -11.3580   30.8737 C.ar    1  UNL1        0.0670
      4 C         -10.3206  -12.4921   30.2051 C.ar    1  UNL1        0.1116
      5 N          -9.5061  -12.5441   29.1361 N.ar    1  UNL1       -0.2258
      6 C          -9.3495  -13.8788   28.9233 C.ar    1  UNL1        0.1406
      7 N         -10.0286  -14.6433   29.8194 N.ar    1  UNL1       -0.3373
      8 C         -10.6300  -13.7523   30.6172 C.ar    1  UNL1        0.0765
      9 C         -11.4404  -13.9969   31.7216 C.ar    1  UNL1        0.0144
     10 H         -10.0875  -15.6825   29.8905 H       1  UNL1        0.1674
     11 N         -10.4639  -10.0250   30.4438 N.pl3   1  UNL1       -0.3035
     12 C          -9.2527   -9.7921   29.6525 C.3     1  UNL1        0.1082
     13 C          -8.6408   -8.4403   30.0249 C.3     1  UNL1        0.0941
     14 N          -9.6523   -7.3692   29.9105 N.3     1  UNL1       -0.2647
     15 C         -10.7670   -7.6268   30.8490 C.3     1  UNL1        0.0941
     16 C         -11.4566   -8.9490   30.5078 C.3     1  UNL1        0.1082
     17 C          -9.0300   -6.0586   30.1872 C.3     1  UNL1        0.1200
     18 C          -7.9565   -6.1964   31.2289 C.ar    1  UNL1        0.0885
     19 N          -8.2212   -6.4042   32.5352 N.ar    1  UNL1       -0.2273
     20 C          -7.0054   -6.5320   33.1070 C.ar    1  UNL1        0.1780
     21 N          -5.9972   -6.4304   32.2170 N.ar    1  UNL1       -0.3128
     22 C          -6.5870   -6.1964   31.0266 C.ar    1  UNL1        0.0537
     23 C          -5.8783   -6.0537   29.7104 C.3     1  UNL1        0.0514
     24 C          -4.5694   -6.5065   32.5291 C.3     1  UNL1        0.1073
     25 C          -4.3032   -7.6267   33.5278 C.3     1  UNL1        0.0265
     26 C          -8.5176  -14.4187   27.8179 C.ar    1  UNL1        0.0339
     27 C          -7.1174  -14.4619   27.9056 C.ar    1  UNL1        0.0027
     28 C          -6.3537  -14.9738   26.8537 C.ar    1  UNL1       -0.0042
     29 C          -6.9605  -15.4604   25.6759 C.ar    1  UNL1       -0.0228
     30 C          -8.3708  -15.4099   25.5972 C.ar    1  UNL1       -0.0042
     31 C          -9.1325  -14.8970   26.6505 C.ar    1  UNL1        0.0027
     32 C          -6.0795  -16.0175   24.5382 C.3     1  UNL1        0.0189
     33 C          -4.8939  -16.8014   25.1418 C.3     1  UNL1        0.0044
     34 C          -6.9200  -16.9616   23.6511 C.3     1  UNL1        0.0044
     35 C          -5.4957  -14.9120   23.6255 C.3     1  UNL1        0.0044
     36 C         -12.4374  -14.3904   34.3460 C.3     1  UNL1        0.0050
     37 C         -12.8097  -13.0901   33.6418 C.3     1  UNL1        0.0265
@<TRIPOS>BOND
     1    36    37    1
     2    37     1    1
     3     1     2   ar
     4     2     3   ar
     5     3    11    1
     6    11    12    1
     7    12    13    1
     8    13    14    1
     9    14    17    1
    10    17    18    1
    11    18    19   ar
    12    19    20   ar
    13    20    21   ar
    14    21    24    1
    15    24    25    1
    16    21    22   ar
    17    22    23    1
    18    14    15    1
    19    15    16    1
    20     3     4   ar
    21     4     5   ar
    22     5     6   ar
    23     6    26    1
    24    26    27   ar
    25    27    28   ar
    26    28    29   ar
    27    29    32    1
    28    32    33    1
    29    32    34    1
    30    32    35    1
    31    29    30   ar
    32    30    31   ar
    33     6     7   ar
    34     7     8   ar
    35     8     9   ar
    36     9     1   ar
    37    16    11    1
    38     8     4   ar
    39    22    18   ar
    40    31    26   ar
    41     7    10    1
@<TRIPOS>MOLECULE
*****
 37 41 0 0 0
SMALL
GASTEIGER

@<TRIPOS>ATOM
      1 C         -11.1241  -12.4620   31.6054 C.ar    1  UNL1       -0.0194
      2 C          -9.9722  -11.6864   31.8966 C.ar    1  UNL1        0.0119
      3 C          -8.8153  -11.7765   31.0911 C.ar    1  UNL1        0.0670
      4 C          -8.8556  -12.6638   30.0092 C.ar    1  UNL1        0.1116
      5 N          -7.8795  -12.9398   29.1261 N.ar    1  UNL1       -0.2258
      6 C          -8.4420  -13.8778   28.3169 C.ar    1  UNL1        0.1406
      7 N          -9.7171  -14.1900   28.6712 N.ar    1  UNL1       -0.3373
      8 C          -9.9564  -13.4177   29.7381 C.ar    1  UNL1        0.0765
      9 C         -11.1120  -13.3534   30.5106 C.ar    1  UNL1        0.0144
     10 H         -10.3781  -14.8666   28.2311 H       1  UNL1        0.1674
     11 N          -7.6498  -10.9841   31.3835 N.pl3   1  UNL1       -0.3035
     12 C          -7.2743  -10.7213   32.7754 C.3     1  UNL1        0.1082
     13 C          -6.6747   -9.3189   32.8958 C.3     1  UNL1        0.0941
     14 N          -5.5702   -9.1474   31.9294 N.3     1  UNL1       -0.2647
     15 C          -6.0813   -9.2958   30.5487 C.3     1  UNL1        0.0941
     16 C          -6.6598  -10.6968   30.3420 C.3     1  UNL1        0.1082
     17 C          -4.9425   -7.8231   32.1135 C.3     1  UNL1        0.1200
     18 C          -5.6392   -6.7904   31.2742 C.ar    1  UNL1        0.0885
     19 N          -5.1831   -6.3921   30.0688 N.ar    1  UNL1       -0.2273
     20 C          -6.1146   -5.5198   29.6298 C.ar    1  UNL1        0.1780
     21 N          -7.1369   -5.3685   30.4963 N.ar    1  UNL1       -0.3128
     22 C          -6.8362   -6.1528   31.5518 C.ar    1  UNL1        0.0537
     23 C          -7.6977   -6.3583   32.7645 C.3     1  UNL1        0.0514
     24 C          -8.2874   -4.4821   30.3160 C.3     1  UNL1        0.1073
     25 C          -9.4684   -5.2553   29.7412 C.3     1  UNL1        0.0265
     26 C          -7.7164  -14.4817   27.1704 C.ar    1  UNL1        0.0339
     27 C          -8.3994  -15.1094   26.1170 C.ar    1  UNL1        0.0027
     28 C          -7.6972  -15.6713   25.0480 C.ar    1  UNL1       -0.0042
     29 C          -6.2875  -15.6273   24.9924 C.ar    1  UNL1       -0.0228
     30 C          -5.6098  -14.9950   26.0596 C.ar    1  UNL1       -0.0042
     31 C          -6.3145  -14.4341   27.1279 C.ar    1  UNL1        0.0027
     32 C          -5.5513  -16.2602   23.7932 C.3     1  UNL1        0.0189
     33 C          -6.5472  -17.0972   22.9612 C.3     1  UNL1        0.0044
     34 C          -4.9545  -15.1444   22.9080 C.3     1  UNL1        0.0044
     35 C          -4.3918  -17.1941   24.2165 C.3     1  UNL1        0.0044
     36 C         -12.9147  -13.7640   32.7495 C.3     1  UNL1        0.0050
     37 C         -12.3350  -12.3768   32.4942 C.3     1  UNL1        0.0265
@<TRIPOS>BOND
     1    36    37    1
     2    37     1    1
     3     1     2   ar
     4     2     3   ar
     5     3    11    1
     6    11    12    1
     7    12    13    1
     8    13    14    1
     9    14    17    1
    10    17    18    1
    11    18    19   ar
    12    19    20   ar
    13    20    21   ar
    14    21    24    1
    15    24    25    1
    16    21    22   ar
    17    22    23    1
    18    14    15    1
    19    15    16    1
    20     3     4   ar
    21     4     5   ar
    22     5     6   ar
    23     6    26    1
    24    26    27   ar
    25    27    28   ar
    26    28    29   ar
    27    29    32    1
    28    32    33    1
    29    32    34    1
    30    32    35    1
    31    29    30   ar
    32    30    31   ar
    33     6     7   ar
    34     7     8   ar
    35     8     9   ar
    36     9     1   ar
    37    16    11    1
    38     8     4   ar
    39    22    18   ar
    40    31    26   ar
    41     7    10    1
@<TRIPOS>MOLECULE
*****
 37 41 0 0 0
SMALL
GASTEIGER

@<TRIPOS>ATOM
      1 C         -11.1801   -5.5135   30.4204 C.ar    1  UNL1       -0.0194
      2 C          -9.9052   -5.7667   30.9892 C.ar    1  UNL1        0.0119
      3 C          -9.5993   -7.0265   31.5503 C.ar    1  UNL1        0.0670
      4 C         -10.6053   -7.9996   31.5266 C.ar    1  UNL1        0.1116
      5 N         -10.5609   -9.2505   32.0186 N.ar    1  UNL1       -0.2258
      6 C         -11.8022   -9.7390   31.7509 C.ar    1  UNL1        0.1406
      7 N         -12.6037   -8.8387   31.1219 N.ar    1  UNL1       -0.3373
      8 C         -11.8329   -7.7518   30.9928 C.ar    1  UNL1        0.0765
      9 C         -12.1672   -6.5229   30.4322 C.ar    1  UNL1        0.0144
     10 H         -13.5908   -8.9441   30.8010 H       1  UNL1        0.1674
     11 N          -8.3033   -7.2843   32.1211 N.pl3   1  UNL1       -0.3035
     12 C          -7.2472   -6.2730   32.0247 C.3     1  UNL1        0.1082
     13 C          -5.8876   -6.9554   31.8621 C.3     1  UNL1        0.0941
     14 N          -5.6783   -7.9469   32.9374 N.3     1  UNL1       -0.2647
     15 C          -6.7161   -8.9989   32.8616 C.3     1  UNL1        0.0941
     16 C          -8.1062   -8.3918   33.0601 C.3     1  UNL1        0.1082
     17 C          -4.3289   -8.5364   32.8217 C.3     1  UNL1        0.1200
     18 C          -4.3222   -9.6364   31.7989 C.ar    1  UNL1        0.0885
     19 N          -4.2057  -10.9409   32.1221 N.ar    1  UNL1       -0.2273
     20 C          -4.3079  -11.5886   30.9425 C.ar    1  UNL1        0.1780
     21 N          -4.4992  -10.7514   29.9027 N.ar    1  UNL1       -0.3128
     22 C          -4.4888   -9.5100   30.4305 C.ar    1  UNL1        0.0537
     23 C          -4.7099   -8.2331   29.6716 C.3     1  UNL1        0.0514
     24 C          -4.6286  -11.1456   28.4993 C.3     1  UNL1        0.1073
     25 C          -5.0682   -9.9571   27.6523 C.3     1  UNL1        0.0265
     26 C         -12.2134  -11.1181   32.1177 C.ar    1  UNL1        0.0339
     27 C         -11.5988  -11.8124   33.1715 C.ar    1  UNL1        0.0027
     28 C         -12.0009  -13.1094   33.4998 C.ar    1  UNL1       -0.0042
     29 C         -13.0310  -13.7604   32.7874 C.ar    1  UNL1       -0.0228
     30 C         -13.6413  -13.0530   31.7267 C.ar    1  UNL1       -0.0042
     31 C         -13.2369  -11.7560   31.4000 C.ar    1  UNL1        0.0027
     32 C         -13.4443  -15.1932   33.1832 C.3     1  UNL1        0.0189
     33 C         -12.8262  -16.2005   32.1894 C.3     1  UNL1        0.0044
     34 C         -12.9352  -15.5009   34.6083 C.3     1  UNL1        0.0044
     35 C         -14.9773  -15.4068   33.1761 C.3     1  UNL1        0.0044
     36 C         -10.3082   -3.6013   29.0812 C.3     1  UNL1        0.0050
     37 C         -11.4983   -4.1551   29.8572 C.3     1  UNL1        0.0265
@<TRIPOS>BOND
     1    36    37    1
     2    37     1    1
     3     1     2   ar
     4     2     3   ar
     5     3    11    1
     6    11    12    1
     7    12    13    1
     8    13    14    1
     9    14    17    1
    10    17    18    1
    11    18    19   ar
    12    19    20   ar
    13    20    21   ar
    14    21    24    1
    15    24    25    1
    16    21    22   ar
    17    22    23    1
    18    14    15    1
    19    15    16    1
    20     3     4   ar
    21     4     5   ar
    22     5     6   ar
    23     6    26    1
    24    26    27   ar
    25    27    28   ar
    26    28    29   ar
    27    29    32    1
    28    32    33    1
    29    32    34    1
    30    32    35    1
    31    29    30   ar
    32    30    31   ar
    33     6     7   ar
    34     7     8   ar
    35     8     9   ar
    36     9     1   ar
    37    16    11    1
    38     8     4   ar
    39    22    18   ar
    40    31    26   ar
    41     7    10    1
@<TRIPOS>MOLECULE
*****
 37 41 0 0 0
SMALL
GASTEIGER

@<TRIPOS>ATOM
      1 C         -11.0130   -5.4247   30.5380 C.ar    1  UNL1       -0.0194
      2 C          -9.6598   -5.8493   30.4941 C.ar    1  UNL1        0.0119
      3 C          -9.3103   -7.1869   30.7838 C.ar    1  UNL1        0.0670
      4 C         -10.3496   -8.0619   31.1209 C.ar    1  UNL1        0.1116
      5 N         -10.2634   -9.3607   31.4595 N.ar    1  UNL1       -0.2258
      6 C         -11.5549   -9.7080   31.7097 C.ar    1  UNL1        0.1406
      7 N         -12.4247   -8.6761   31.5436 N.ar    1  UNL1       -0.3373
      8 C         -11.6464   -7.6508   31.1760 C.ar    1  UNL1        0.0765
      9 C         -12.0252   -6.3413   30.8967 C.ar    1  UNL1        0.0144
     10 H         -13.4608   -8.6595   31.6646 H       1  UNL1        0.1674
     11 N          -7.9380   -7.6181   30.7323 N.pl3   1  UNL1       -0.3035
     12 C          -7.1320   -7.3523   29.5377 C.3     1  UNL1        0.1082
     13 C          -6.1599   -8.5092   29.2988 C.3     1  UNL1        0.0941
     14 N          -5.3660   -8.7733   30.5167 N.3     1  UNL1       -0.2647
     15 C          -6.2620   -9.1669   31.6266 C.3     1  UNL1        0.0941
     16 C          -7.2384   -8.0347   31.9506 C.3     1  UNL1        0.1082
     17 C          -4.3718   -9.8322   30.2486 C.3     1  UNL1        0.1200
     18 C          -4.9510  -10.8786   29.3399 C.ar    1  UNL1        0.0885
     19 N          -4.4415  -11.1602   28.1230 N.ar    1  UNL1       -0.2273
     20 C          -5.1979  -12.1827   27.6717 C.ar    1  UNL1        0.1780
     21 N          -6.1429  -12.5624   28.5558 N.ar    1  UNL1       -0.3128
     22 C          -6.0099  -11.7291   29.6083 C.ar    1  UNL1        0.0537
     23 C          -6.8134  -11.7830   30.8758 C.3     1  UNL1        0.0514
     24 C          -7.1273  -13.6260   28.3523 C.3     1  UNL1        0.1073
     25 C          -6.5987  -14.6558   27.3607 C.3     1  UNL1        0.0265
     26 C         -11.9474  -11.0804   32.1193 C.ar    1  UNL1        0.0339
     27 C         -11.1140  -11.8740   32.9229 C.ar    1  UNL1        0.0027
     28 C         -11.5026  -13.1628   33.2967 C.ar    1  UNL1       -0.0042
     29 C         -12.7372  -13.7061   32.8810 C.ar    1  UNL1       -0.0228
     30 C         -13.5675  -12.8993   32.0701 C.ar    1  UNL1       -0.0042
     31 C         -13.1764  -11.6107   31.6973 C.ar    1  UNL1        0.0027
     32 C         -13.1275  -15.1338   33.3168 C.3     1  UNL1        0.0189
     33 C         -12.3712  -16.1622   32.4480 C.3     1  UNL1        0.0044
     34 C         -12.7514  -15.3405   34.8002 C.3     1  UNL1        0.0044
     35 C         -14.6418  -15.4202   33.1723 C.3     1  UNL1        0.0044
     36 C         -10.5071   -3.4372   29.1224 C.3     1  UNL1        0.0050
     37 C         -11.3621   -3.9882   30.2586 C.3     1  UNL1        0.0265
@<TRIPOS>BOND
     1    36    37    1
     2    37     1    1
     3     1     2   ar
     4     2     3   ar
     5     3    11    1
     6    11    12    1
     7    12    13    1
     8    13    14    1
     9    14    17    1
    10    17    18    1
    11    18    19   ar
    12    19    20   ar
    13    20    21   ar
    14    21    24    1
    15    24    25    1
    16    21    22   ar
    17    22    23    1
    18    14    15    1
    19    15    16    1
    20     3     4   ar
    21     4     5   ar
    22     5     6   ar
    23     6    26    1
    24    26    27   ar
    25    27    28   ar
    26    28    29   ar
    27    29    32    1
    28    32    33    1
    29    32    34    1
    30    32    35    1
    31    29    30   ar
    32    30    31   ar
    33     6     7   ar
    34     7     8   ar
    35     8     9   ar
    36     9     1   ar
    37    16    11    1
    38     8     4   ar
    39    22    18   ar
    40    31    26   ar
    41     7    10    1
