@<TRIPOS>MOLECULE
*****
 53 59 0 0 0
SMALL
GASTEIGER

@<TRIPOS>ATOM
      1 C         -30.5671   48.9040   -7.3864 C.3     1  UNL1        0.1239
      2 C         -31.4418   48.0455   -8.3058 C.3     1  UNL1        0.0374
      3 C         -30.6705   47.9592   -9.6199 C.3     1  UNL1        0.0739
      4 N         -29.5877   48.9562   -9.5683 N.3     1  UNL1       -0.2638
      5 C         -29.8556   49.7983   -8.3989 C.3     1  UNL1        0.0913
      6 C         -29.5369   48.0937   -6.6097 C.2     1  UNL1        0.2359
      7 O         -28.3278   48.4549   -6.5873 O.2     1  UNL1       -0.2739
      8 N         -29.9341   46.8853   -5.9382 N.am    1  UNL1       -0.2832
      9 H         -30.8378   46.4420   -6.2194 H       1  UNL1        0.1549
     10 C         -29.1332   46.2061   -4.9557 C.ar    1  UNL1        0.0505
     11 C         -28.1017   45.3056   -5.3378 C.ar    1  UNL1        0.0162
     12 C         -27.3177   44.6546   -4.3690 C.ar    1  UNL1        0.0198
     13 C         -27.5704   44.9452   -3.0327 C.ar    1  UNL1        0.0754
     14 N         -26.9818   44.4214   -1.9467 N.ar    1  UNL1       -0.2757
     15 N         -27.5401   44.9548   -0.8666 N.ar    1  UNL1       -0.1726
     16 C         -28.4889   45.8378   -1.2659 C.ar    1  UNL1        0.1036
     17 C         -28.5307   45.8394   -2.6524 C.ar    1  UNL1        0.0376
     18 C         -29.3449   46.4821   -3.5868 C.ar    1  UNL1        0.0177
     19 H         -26.2212   43.7062   -1.9293 H       1  UNL1        0.1889
     20 C         -29.3142   46.6254   -0.3274 C.ar    1  UNL1        0.0388
     21 C         -30.2358   45.9811    0.5063 C.ar    1  UNL1        0.0079
     22 C         -31.0110   46.7174    1.4043 C.ar    1  UNL1        0.0578
     23 C         -30.8498   48.1130    1.4800 C.ar    1  UNL1        0.2247
     24 N         -29.9288   48.7090    0.6751 N.ar    1  UNL1       -0.2101
     25 C         -29.1668   48.0136   -0.2095 C.ar    1  UNL1        0.1036
     26 O         -31.5837   48.9428    2.3482 O.3     1  UNL1       -0.4640
     27 C         -31.2089   49.4895    3.6205 C.3     1  UNL1        0.1678
     28 C         -30.6214   50.9005    3.5038 C.3     1  UNL1        0.0473
     29 C         -30.3356   48.5313    4.4382 C.3     1  UNL1        0.0473
     30 C         -30.4001   51.3004   -6.0207 C.3     1  UNL1        0.0696
     31 S         -31.5839   49.9284   -6.2401 S.3     1  UNL1       -0.1308
     32 C         -29.4718   49.7538  -10.8034 C.3     1  UNL1        0.1587
     33 C         -28.9977   51.1462  -10.4846 C.2     1  UNL1        0.2423
     34 O         -29.7661   52.1154  -10.7308 O.2     1  UNL1       -0.2733
     35 N         -27.6876   51.3956   -9.9316 N.am    1  UNL1       -0.2740
     36 C         -27.0793   52.7254  -10.0802 C.3     1  UNL1        0.1196
     37 C         -25.5704   52.6832  -10.0148 C.2     1  UNL1       -0.0089
     38 C         -24.8687   51.5525   -9.7987 C.2     1  UNL1       -0.0231
     39 C         -25.5776   50.2228   -9.6871 C.3     1  UNL1        0.0476
     40 C         -26.9794   50.4008   -9.1201 C.3     1  UNL1        0.0984
     41 C         -23.3833   51.5858   -9.7589 C.ar    1  UNL1       -0.0042
     42 C         -22.6314   51.6383  -10.9459 C.ar    1  UNL1       -0.0002
     43 C         -21.2353   51.6938  -10.9005 C.ar    1  UNL1        0.0031
     44 C         -20.5621   51.7010   -9.6677 C.ar    1  UNL1        0.0376
     45 C         -21.3119   51.6499   -8.4814 C.ar    1  UNL1        0.0031
     46 C         -22.7072   51.5932   -8.5271 C.ar    1  UNL1       -0.0002
     47 C         -19.0856   51.7642   -9.6190 C.ar    1  UNL1        0.1840
     48 N         -18.2976   51.7957  -10.7199 N.ar    1  UNL1       -0.1962
     49 C         -17.0636   51.8486  -10.1846 C.ar    1  UNL1        0.2224
     50 CL        -15.5926   51.9109  -11.1394 Cl      1  UNL1       -0.0413
     51 N         -17.1081   51.8481   -8.8421 N.ar    1  UNL1       -0.2215
     52 C         -15.9802   51.9014   -7.9214 C.3     1  UNL1        0.1564
     53 N         -18.3738   51.7961   -8.4720 N.ar    1  UNL1       -0.1478
@<TRIPOS>BOND
     1    30    31    1
     2     1    31    1
     3     1     6    1
     4     6     7    2
     5     6     8   am
     6     8    10    1
     7    10    11   ar
     8    11    12   ar
     9    12    13   ar
    10    13    14   ar
    11    14    15   ar
    12    15    16   ar
    13    16    20    1
    14    20    21   ar
    15    21    22   ar
    16    22    23   ar
    17    23    26    1
    18    26    27    1
    19    27    28    1
    20    27    29    1
    21    23    24   ar
    22    24    25   ar
    23    16    17   ar
    24    17    18   ar
    25     1     2    1
    26     2     3    1
    27     3     4    1
    28     4    32    1
    29    32    33    1
    30    33    34    2
    31    33    35   am
    32    35    36    1
    33    36    37    1
    34    37    38    2
    35    38    41    1
    36    41    42   ar
    37    42    43   ar
    38    43    44   ar
    39    44    47    1
    40    47    48   ar
    41    48    49   ar
    42    49    50    1
    43    49    51   ar
    44    51    52    1
    45    51    53   ar
    46    44    45   ar
    47    45    46   ar
    48    38    39    1
    49    39    40    1
    50     4     5    1
    51     5     1    1
    52    18    10   ar
    53    40    35    1
    54    17    13   ar
    55    46    41   ar
    56    25    20   ar
    57    53    47   ar
    58     8     9    1
    59    14    19    1
@<TRIPOS>MOLECULE
*****
 53 59 0 0 0
SMALL
GASTEIGER

@<TRIPOS>ATOM
      1 C         -28.0478   49.5802   -6.4333 C.3     1  UNL1        0.1239
      2 C         -26.7743   49.0163   -5.7948 C.3     1  UNL1        0.0374
      3 C         -26.5666   47.6573   -6.4575 C.3     1  UNL1        0.0739
      4 N         -27.8011   47.3237   -7.1883 N.3     1  UNL1       -0.2638
      5 C         -28.8096   48.2992   -6.7644 C.3     1  UNL1        0.0913
      6 C         -27.7819   50.3606   -7.7145 C.2     1  UNL1        0.2359
      7 O         -27.1647   51.4607   -7.6737 O.2     1  UNL1       -0.2739
      8 N         -28.2781   49.8658   -8.9707 N.am    1  UNL1       -0.2832
      9 H         -29.0345   49.1451   -8.9500 H       1  UNL1        0.1549
     10 C         -27.8525   50.3520  -10.2555 C.ar    1  UNL1        0.0505
     11 C         -28.7457   50.3990  -11.3605 C.ar    1  UNL1        0.0162
     12 C         -28.3220   50.8858  -12.6097 C.ar    1  UNL1        0.0198
     13 C         -27.0125   51.3422  -12.7140 C.ar    1  UNL1        0.0754
     14 N         -26.3834   51.8086  -13.8034 N.ar    1  UNL1       -0.2757
     15 N         -25.1337   52.1100  -13.4714 N.ar    1  UNL1       -0.1726
     16 C         -24.9643   51.8439  -12.1523 C.ar    1  UNL1        0.1036
     17 C         -26.1556   51.3412  -11.6500 C.ar    1  UNL1        0.0376
     18 C         -26.5352   50.8397  -10.4036 C.ar    1  UNL1        0.0177
     19 H         -26.7841   51.9140  -14.7618 H       1  UNL1        0.1889
     20 C         -23.6921   52.0639  -11.4345 C.ar    1  UNL1        0.0388
     21 C         -22.6466   52.7563  -12.0568 C.ar    1  UNL1        0.0079
     22 C         -21.4455   52.9785  -11.3806 C.ar    1  UNL1        0.0578
     23 C         -21.2954   52.5166  -10.0602 C.ar    1  UNL1        0.2247
     24 N         -22.3373   51.8687   -9.4722 N.ar    1  UNL1       -0.2101
     25 C         -23.5135   51.6368  -10.1122 C.ar    1  UNL1        0.1036
     26 O         -20.1258   52.6877   -9.2962 O.3     1  UNL1       -0.4640
     27 C         -18.9269   51.9001   -9.2757 C.3     1  UNL1        0.1678
     28 C         -18.1487   52.0483   -7.9634 C.3     1  UNL1        0.0473
     29 C         -18.0628   52.1117  -10.5240 C.3     1  UNL1        0.0473
     30 C         -30.6751   50.2607   -5.9140 C.3     1  UNL1        0.0696
     31 S         -29.0132   50.6018   -5.2409 S.3     1  UNL1       -0.1308
     32 C         -28.2520   45.9372   -6.9664 C.3     1  UNL1        0.1587
     33 C         -29.7058   45.9154   -6.5780 C.2     1  UNL1        0.2423
     34 O         -30.5734   45.8830   -7.4927 O.2     1  UNL1       -0.2733
     35 N         -30.1247   45.9547   -5.1969 N.am    1  UNL1       -0.2740
     36 C         -31.4819   46.4104   -4.8639 C.3     1  UNL1        0.1196
     37 C         -31.5808   46.9591   -3.4596 C.2     1  UNL1       -0.0089
     38 C         -30.5442   46.9830   -2.5979 C.2     1  UNL1       -0.0231
     39 C         -29.1746   46.5205   -3.0371 C.3     1  UNL1        0.0476
     40 C         -29.2828   45.4454   -4.1100 C.3     1  UNL1        0.0984
     41 C         -30.7134   47.5497   -1.2343 C.ar    1  UNL1       -0.0042
     42 C         -30.4092   46.7860   -0.0935 C.ar    1  UNL1       -0.0002
     43 C         -30.5476   47.3335    1.1853 C.ar    1  UNL1        0.0031
     44 C         -30.9902   48.6564    1.3502 C.ar    1  UNL1        0.0376
     45 C         -31.2933   49.4205    0.2117 C.ar    1  UNL1        0.0031
     46 C         -31.1559   48.8728   -1.0663 C.ar    1  UNL1       -0.0002
     47 C         -31.1327   49.2373    2.7024 C.ar    1  UNL1        0.1840
     48 N         -31.1047   50.5672    2.9562 N.ar    1  UNL1       -0.1962
     49 C         -31.2686   50.6051    4.2919 C.ar    1  UNL1        0.2224
     50 CL        -31.3193   52.0920    5.2224 Cl      1  UNL1       -0.0413
     51 N         -31.3872   49.3712    4.8092 N.ar    1  UNL1       -0.2215
     52 C         -31.5809   49.0155    6.2087 C.3     1  UNL1        0.1564
     53 N         -31.3045   48.5005    3.8208 N.ar    1  UNL1       -0.1478
@<TRIPOS>BOND
     1    30    31    1
     2     1    31    1
     3     1     6    1
     4     6     7    2
     5     6     8   am
     6     8    10    1
     7    10    11   ar
     8    11    12   ar
     9    12    13   ar
    10    13    14   ar
    11    14    15   ar
    12    15    16   ar
    13    16    20    1
    14    20    21   ar
    15    21    22   ar
    16    22    23   ar
    17    23    26    1
    18    26    27    1
    19    27    28    1
    20    27    29    1
    21    23    24   ar
    22    24    25   ar
    23    16    17   ar
    24    17    18   ar
    25     1     2    1
    26     2     3    1
    27     3     4    1
    28     4    32    1
    29    32    33    1
    30    33    34    2
    31    33    35   am
    32    35    36    1
    33    36    37    1
    34    37    38    2
    35    38    41    1
    36    41    42   ar
    37    42    43   ar
    38    43    44   ar
    39    44    47    1
    40    47    48   ar
    41    48    49   ar
    42    49    50    1
    43    49    51   ar
    44    51    52    1
    45    51    53   ar
    46    44    45   ar
    47    45    46   ar
    48    38    39    1
    49    39    40    1
    50     4     5    1
    51     5     1    1
    52    18    10   ar
    53    40    35    1
    54    17    13   ar
    55    46    41   ar
    56    25    20   ar
    57    53    47   ar
    58     8     9    1
    59    14    19    1
@<TRIPOS>MOLECULE
*****
 53 59 0 0 0
SMALL
GASTEIGER

@<TRIPOS>ATOM
      1 C         -26.3191   47.3899   -7.9253 C.3     1  UNL1        0.1239
      2 C         -26.4570   46.0937   -8.7305 C.3     1  UNL1        0.0374
      3 C         -27.8801   46.1185   -9.2813 C.3     1  UNL1        0.0739
      4 N         -28.6104   47.1903   -8.5831 N.3     1  UNL1       -0.2638
      5 C         -27.7585   47.6132   -7.4679 C.3     1  UNL1        0.0913
      6 C         -25.8626   48.5743   -8.7679 C.2     1  UNL1        0.2359
      7 O         -26.0616   48.5836  -10.0141 O.2     1  UNL1       -0.2739
      8 N         -25.1590   49.6653   -8.1485 N.am    1  UNL1       -0.2832
      9 H         -24.7344   49.5041   -7.2074 H       1  UNL1        0.1549
     10 C         -24.9382   50.9422   -8.7721 C.ar    1  UNL1        0.0505
     11 C         -26.0061   51.8572   -8.9802 C.ar    1  UNL1        0.0162
     12 C         -25.7774   53.1073   -9.5817 C.ar    1  UNL1        0.0198
     13 C         -24.4705   53.4230   -9.9372 C.ar    1  UNL1        0.0754
     14 N         -24.0247   54.5288  -10.5525 N.ar    1  UNL1       -0.2757
     15 N         -22.7137   54.4135  -10.7282 N.ar    1  UNL1       -0.1726
     16 C         -22.3143   53.2256  -10.2097 C.ar    1  UNL1        0.1036
     17 C         -23.4283   52.5705   -9.7058 C.ar    1  UNL1        0.0376
     18 C         -23.6243   51.3111   -9.1360 C.ar    1  UNL1        0.0177
     19 H         -24.5946   55.3476  -10.8609 H       1  UNL1        0.1889
     20 C         -20.9119   52.7619  -10.2237 C.ar    1  UNL1        0.0388
     21 C         -20.4310   52.0155  -11.3060 C.ar    1  UNL1        0.0079
     22 C         -19.1036   51.5837  -11.3320 C.ar    1  UNL1        0.0578
     23 C         -18.2432   51.9170  -10.2699 C.ar    1  UNL1        0.2247
     24 N         -18.7316   52.6645   -9.2434 N.ar    1  UNL1       -0.2101
     25 C         -20.0207   53.0917   -9.1943 C.ar    1  UNL1        0.1036
     26 O         -16.8924   51.5279  -10.2013 O.3     1  UNL1       -0.4640
     27 C         -16.1605   50.9645   -9.1037 C.3     1  UNL1        0.1678
     28 C         -16.7153   49.6051   -8.6633 C.3     1  UNL1        0.0473
     29 C         -15.9816   51.9537   -7.9464 C.3     1  UNL1        0.0473
     30 C         -26.5002   46.6982   -5.2561 C.3     1  UNL1        0.0696
     31 S         -25.2165   47.1707   -6.4646 S.3     1  UNL1       -0.1308
     32 C         -29.9501   46.7782   -8.1243 C.3     1  UNL1        0.1587
     33 C         -30.7200   47.9692   -7.6207 C.2     1  UNL1        0.2423
     34 O         -30.8940   48.9468   -8.3981 O.2     1  UNL1       -0.2733
     35 N         -31.2375   48.0263   -6.2740 N.am    1  UNL1       -0.2740
     36 C         -31.5415   49.3310   -5.6691 C.3     1  UNL1        0.1196
     37 C         -31.4867   49.2969   -4.1596 C.2     1  UNL1       -0.0089
     38 C         -31.2306   48.1784   -3.4518 C.2     1  UNL1       -0.0231
     39 C         -30.8989   46.8854   -4.1595 C.3     1  UNL1        0.0476
     40 C         -31.5837   46.8189   -5.5179 C.3     1  UNL1        0.0984
     41 C         -31.1810   48.2235   -1.9670 C.ar    1  UNL1       -0.0042
     42 C         -31.1023   49.4509   -1.2853 C.ar    1  UNL1       -0.0002
     43 C         -31.0804   49.4872    0.1119 C.ar    1  UNL1        0.0031
     44 C         -31.1395   48.2977    0.8568 C.ar    1  UNL1        0.0376
     45 C         -31.2194   47.0714    0.1773 C.ar    1  UNL1        0.0031
     46 C         -31.2401   47.0353   -1.2192 C.ar    1  UNL1       -0.0002
     47 C         -31.1208   48.3358    2.3348 C.ar    1  UNL1        0.1840
     48 N         -30.9483   49.4692    3.0556 N.ar    1  UNL1       -0.1962
     49 C         -31.0031   49.0125    4.3208 C.ar    1  UNL1        0.2224
     50 CL        -30.8411   50.0416    5.7329 Cl      1  UNL1       -0.0413
     51 N         -31.1963   47.6837    4.3572 N.ar    1  UNL1       -0.2215
     52 C         -31.3126   46.8406    5.5397 C.3     1  UNL1        0.1564
     53 N         -31.2731   47.2444    3.1151 N.ar    1  UNL1       -0.1478
@<TRIPOS>BOND
     1    30    31    1
     2     1    31    1
     3     1     6    1
     4     6     7    2
     5     6     8   am
     6     8    10    1
     7    10    11   ar
     8    11    12   ar
     9    12    13   ar
    10    13    14   ar
    11    14    15   ar
    12    15    16   ar
    13    16    20    1
    14    20    21   ar
    15    21    22   ar
    16    22    23   ar
    17    23    26    1
    18    26    27    1
    19    27    28    1
    20    27    29    1
    21    23    24   ar
    22    24    25   ar
    23    16    17   ar
    24    17    18   ar
    25     1     2    1
    26     2     3    1
    27     3     4    1
    28     4    32    1
    29    32    33    1
    30    33    34    2
    31    33    35   am
    32    35    36    1
    33    36    37    1
    34    37    38    2
    35    38    41    1
    36    41    42   ar
    37    42    43   ar
    38    43    44   ar
    39    44    47    1
    40    47    48   ar
    41    48    49   ar
    42    49    50    1
    43    49    51   ar
    44    51    52    1
    45    51    53   ar
    46    44    45   ar
    47    45    46   ar
    48    38    39    1
    49    39    40    1
    50     4     5    1
    51     5     1    1
    52    18    10   ar
    53    40    35    1
    54    17    13   ar
    55    46    41   ar
    56    25    20   ar
    57    53    47   ar
    58     8     9    1
    59    14    19    1
