@<TRIPOS>MOLECULE
*****
 35 38 0 0 0
SMALL
GASTEIGER

@<TRIPOS>ATOM
      1 N          -9.3692  -10.1769   31.1654 N.am    1  UNL1       -0.2685
      2 C         -10.0218  -10.5087   32.4059 C.2     1  UNL1        0.2676
      3 O          -9.7841   -9.8343   33.4429 O.2     1  UNL1       -0.2682
      4 C         -10.9354  -11.6605   32.4734 C.ar    1  UNL1        0.1400
      5 N         -11.9467  -11.7170   31.5671 N.ar    1  UNL1       -0.2388
      6 C         -12.8825  -12.6959   31.5776 C.ar    1  UNL1        0.0990
      7 C         -12.8440  -13.6906   32.5566 C.ar    1  UNL1        0.0196
      8 C         -13.8326  -14.6853   32.5942 C.ar    1  UNL1        0.0016
      9 C         -13.8027  -15.6656   33.5861 C.ar    1  UNL1        0.0000
     10 C         -12.7871  -15.6623   34.5419 C.ar    1  UNL1        0.0000
     11 C         -11.7950  -14.6782   34.5145 C.ar    1  UNL1        0.0005
     12 C         -11.8082  -13.6741   33.5242 C.ar    1  UNL1        0.0085
     13 C         -10.8358  -12.6453   33.4822 C.ar    1  UNL1        0.0522
     14 I          -9.3213  -12.4808   34.9873 I       1  UNL1       -0.0408
     15 C          -7.2684  -10.9498   32.2319 C.3     1  UNL1        0.0265
     16 C          -7.8975  -10.1749   31.0628 C.3     1  UNL1        0.1007
     17 C          -7.3682   -8.7567   30.8960 C.ar    1  UNL1        0.0234
     18 C          -7.5043   -7.7823   31.9082 C.ar    1  UNL1        0.0019
     19 C          -7.0395   -6.4794   31.7082 C.ar    1  UNL1        0.0295
     20 C          -6.4435   -6.1252   30.4971 C.ar    1  UNL1        0.1424
     21 F          -5.9957   -4.8599   30.3058 F       1  UNL1       -0.2041
     22 C          -6.3161   -7.0725   29.4801 C.ar    1  UNL1        0.0590
     23 C          -6.7787   -8.3783   29.6715 C.ar    1  UNL1        0.1399
     24 F          -6.6510   -9.2724   28.6584 F       1  UNL1       -0.2044
     25 C         -10.1956   -9.7678   30.0180 C.3     1  UNL1        0.1207
     26 C         -10.8934   -8.4631   30.2975 C.ar    1  UNL1       -0.0021
     27 C         -12.0634   -8.4449   31.0697 C.ar    1  UNL1       -0.0026
     28 C         -12.6677   -7.2310   31.4011 C.ar    1  UNL1       -0.0001
     29 C         -12.1047   -6.0254   30.9749 C.ar    1  UNL1        0.0064
     30 C         -10.9317   -6.0228   30.1994 C.ar    1  UNL1        0.0752
     31 C         -10.3418   -7.2502   29.8507 C.ar    1  UNL1        0.0038
     32 C         -10.3041   -4.7489   29.7842 C.2     1  UNL1        0.3380
     33 O          -9.0515   -4.6611   29.6709 O.2     1  UNL1       -0.2451
     34 O         -11.0934   -3.6371   29.5013 O.3     1  UNL1       -0.4771
     35 H         -10.6752   -2.7651   29.2000 H       1  UNL1        0.2954
@<TRIPOS>BOND
     1    15    16    1
     2    16    17    1
     3    17    18   ar
     4    18    19   ar
     5    19    20   ar
     6    20    21    1
     7    20    22   ar
     8    22    23   ar
     9    23    24    1
    10    16     1    1
    11     1    25    1
    12    25    26    1
    13    26    27   ar
    14    27    28   ar
    15    28    29   ar
    16    29    30   ar
    17    30    32    1
    18    32    33    2
    19    32    34    1
    20    30    31   ar
    21     1     2   am
    22     2     3    2
    23     2     4    1
    24     4     5   ar
    25     5     6   ar
    26     6     7   ar
    27     7     8   ar
    28     8     9   ar
    29     9    10   ar
    30    10    11   ar
    31    11    12   ar
    32    12    13   ar
    33    13    14    1
    34    23    17   ar
    35    31    26   ar
    36    13     4   ar
    37    12     7   ar
    38    34    35    1
@<TRIPOS>MOLECULE
*****
 35 38 0 0 0
SMALL
GASTEIGER

@<TRIPOS>ATOM
      1 N          -8.9012  -10.3662   31.5486 N.am    1  UNL1       -0.2685
      2 C          -9.8441  -10.5561   32.6208 C.2     1  UNL1        0.2676
      3 O          -9.8304   -9.7840   33.6160 O.2     1  UNL1       -0.2682
      4 C         -10.7975  -11.6763   32.5747 C.ar    1  UNL1        0.1400
      5 N         -11.7542  -11.6505   31.6096 N.ar    1  UNL1       -0.2388
      6 C         -12.7207  -12.5945   31.5144 C.ar    1  UNL1        0.0990
      7 C         -12.7733  -13.6382   32.4403 C.ar    1  UNL1        0.0196
      8 C         -13.7946  -14.5974   32.3682 C.ar    1  UNL1        0.0016
      9 C         -13.8561  -15.6271   33.3073 C.ar    1  UNL1        0.0000
     10 C         -12.8997  -15.7086   34.3191 C.ar    1  UNL1        0.0000
     11 C         -11.8760  -14.7606   34.4010 C.ar    1  UNL1        0.0005
     12 C         -11.7971  -13.7079   33.4658 C.ar    1  UNL1        0.0085
     13 C         -10.7907  -12.7139   33.5343 C.ar    1  UNL1        0.0522
     14 I          -9.3641  -12.6801   35.1311 I       1  UNL1       -0.0408
     15 C          -7.0894   -9.5579   33.0359 C.3     1  UNL1        0.0265
     16 C          -7.4487  -10.4044   31.8041 C.3     1  UNL1        0.1007
     17 C          -6.6681  -10.0425   30.5476 C.ar    1  UNL1        0.0234
     18 C          -6.3186   -8.7098   30.2405 C.ar    1  UNL1        0.0019
     19 C          -5.6333   -8.4083   29.0602 C.ar    1  UNL1        0.0295
     20 C          -5.2962   -9.4246   28.1654 C.ar    1  UNL1        0.1424
     21 F          -4.6333   -9.1281   27.0204 F       1  UNL1       -0.2041
     22 C          -5.6489  -10.7454   28.4463 C.ar    1  UNL1        0.0590
     23 C          -6.3349  -11.0561   29.6247 C.ar    1  UNL1        0.1399
     24 F          -6.6742  -12.3485   29.8624 F       1  UNL1       -0.2044
     25 C          -9.4122  -10.0602   30.2024 C.3     1  UNL1        0.1207
     26 C         -10.1665   -8.7570   30.1984 C.ar    1  UNL1       -0.0021
     27 C         -11.5250   -8.7319   30.5441 C.ar    1  UNL1       -0.0026
     28 C         -12.2077   -7.5170   30.6225 C.ar    1  UNL1       -0.0001
     29 C         -11.5395   -6.3167   30.3677 C.ar    1  UNL1        0.0064
     30 C         -10.1772   -6.3211   30.0190 C.ar    1  UNL1        0.0752
     31 C          -9.5022   -7.5502   29.9201 C.ar    1  UNL1        0.0038
     32 C          -9.4516   -5.0515   29.7936 C.2     1  UNL1        0.3380
     33 O         -10.0672   -4.0259   29.3953 O.2     1  UNL1       -0.2451
     34 O          -8.0819   -4.9740   30.0326 O.3     1  UNL1       -0.4771
     35 H          -7.5785   -4.1054   29.8977 H       1  UNL1        0.2954
@<TRIPOS>BOND
     1    15    16    1
     2    16    17    1
     3    17    18   ar
     4    18    19   ar
     5    19    20   ar
     6    20    21    1
     7    20    22   ar
     8    22    23   ar
     9    23    24    1
    10    16     1    1
    11     1    25    1
    12    25    26    1
    13    26    27   ar
    14    27    28   ar
    15    28    29   ar
    16    29    30   ar
    17    30    32    1
    18    32    33    2
    19    32    34    1
    20    30    31   ar
    21     1     2   am
    22     2     3    2
    23     2     4    1
    24     4     5   ar
    25     5     6   ar
    26     6     7   ar
    27     7     8   ar
    28     8     9   ar
    29     9    10   ar
    30    10    11   ar
    31    11    12   ar
    32    12    13   ar
    33    13    14    1
    34    23    17   ar
    35    31    26   ar
    36    13     4   ar
    37    12     7   ar
    38    34    35    1
@<TRIPOS>MOLECULE
*****
 35 38 0 0 0
SMALL
GASTEIGER

@<TRIPOS>ATOM
      1 N          -9.7832   -8.5038   30.8333 N.am    1  UNL1       -0.2685
      2 C         -10.8368   -8.9212   31.7226 C.2     1  UNL1        0.2676
      3 O         -11.9313   -8.2981   31.7387 O.2     1  UNL1       -0.2682
      4 C         -10.6217  -10.0500   32.6420 C.ar    1  UNL1        0.1400
      5 N          -9.5520   -9.9870   33.4782 N.ar    1  UNL1       -0.2388
      6 C          -9.2223  -10.9962   34.3190 C.ar    1  UNL1        0.0990
      7 C          -9.9815  -12.1678   34.3378 C.ar    1  UNL1        0.0196
      8 C          -9.6219  -13.2308   35.1800 C.ar    1  UNL1        0.0016
      9 C         -10.3706  -14.4077   35.1813 C.ar    1  UNL1        0.0000
     10 C         -11.4820  -14.5302   34.3478 C.ar    1  UNL1        0.0000
     11 C         -11.8522  -13.4781   33.5054 C.ar    1  UNL1        0.0005
     12 C         -11.1069  -12.2810   33.4834 C.ar    1  UNL1        0.0085
     13 C         -11.4357  -11.2051   32.6231 C.ar    1  UNL1        0.0522
     14 I         -13.0400  -11.3561   31.2126 I       1  UNL1       -0.0408
     15 C          -9.3630   -6.4217   29.5542 C.3     1  UNL1        0.0265
     16 C          -9.2287   -7.1387   30.9072 C.3     1  UNL1        0.1007
     17 C          -7.8121   -7.1591   31.4660 C.ar    1  UNL1        0.0234
     18 C          -7.5187   -7.6792   32.7451 C.ar    1  UNL1        0.0019
     19 C          -6.2129   -7.6493   33.2425 C.ar    1  UNL1        0.0295
     20 C          -5.1844   -7.0932   32.4807 C.ar    1  UNL1        0.1424
     21 F          -3.9193   -7.0640   32.9673 F       1  UNL1       -0.2041
     22 C          -5.4607   -6.5599   31.2208 C.ar    1  UNL1        0.0590
     23 C          -6.7645   -6.5853   30.7155 C.ar    1  UNL1        0.1399
     24 F          -7.0023   -6.0474   29.4924 F       1  UNL1       -0.2044
     25 C          -9.3176   -9.4411   29.7982 C.3     1  UNL1        0.1207
     26 C          -7.8873   -9.8432   30.0427 C.ar    1  UNL1       -0.0021
     27 C          -7.5707  -10.6931   31.1119 C.ar    1  UNL1       -0.0026
     28 C          -6.2592  -11.1352   31.2934 C.ar    1  UNL1       -0.0001
     29 C          -5.2551  -10.7426   30.4047 C.ar    1  UNL1        0.0064
     30 C          -5.5526   -9.8905   29.3265 C.ar    1  UNL1        0.0752
     31 C          -6.8712   -9.4313   29.1635 C.ar    1  UNL1        0.0038
     32 C          -4.5044   -9.5084   28.3547 C.2     1  UNL1        0.3380
     33 O          -3.2954   -9.4535   28.7078 O.2     1  UNL1       -0.2451
     34 O          -4.8426   -9.2184   27.0353 O.3     1  UNL1       -0.4771
     35 H          -4.1310   -8.9723   26.3577 H       1  UNL1        0.2954
@<TRIPOS>BOND
     1    15    16    1
     2    16    17    1
     3    17    18   ar
     4    18    19   ar
     5    19    20   ar
     6    20    21    1
     7    20    22   ar
     8    22    23   ar
     9    23    24    1
    10    16     1    1
    11     1    25    1
    12    25    26    1
    13    26    27   ar
    14    27    28   ar
    15    28    29   ar
    16    29    30   ar
    17    30    32    1
    18    32    33    2
    19    32    34    1
    20    30    31   ar
    21     1     2   am
    22     2     3    2
    23     2     4    1
    24     4     5   ar
    25     5     6   ar
    26     6     7   ar
    27     7     8   ar
    28     8     9   ar
    29     9    10   ar
    30    10    11   ar
    31    11    12   ar
    32    12    13   ar
    33    13    14    1
    34    23    17   ar
    35    31    26   ar
    36    13     4   ar
    37    12     7   ar
    38    34    35    1
@<TRIPOS>MOLECULE
*****
 35 38 0 0 0
SMALL
GASTEIGER

@<TRIPOS>ATOM
      1 N          -9.5277  -11.4073   32.5477 N.am    1  UNL1       -0.2685
      2 C          -8.1400  -11.0226   32.5109 C.2     1  UNL1        0.2676
      3 O          -7.2441  -11.8712   32.7631 O.2     1  UNL1       -0.2682
      4 C          -7.7688   -9.6287   32.2188 C.ar    1  UNL1        0.1400
      5 N          -8.2049   -8.6675   33.0751 N.ar    1  UNL1       -0.2388
      6 C          -7.9774   -7.3484   32.8689 C.ar    1  UNL1        0.0990
      7 C          -7.2859   -6.9268   31.7316 C.ar    1  UNL1        0.0196
      8 C          -7.0803   -5.5593   31.4947 C.ar    1  UNL1        0.0016
      9 C          -6.4070   -5.1407   30.3470 C.ar    1  UNL1        0.0000
     10 C          -5.9323   -6.0808   29.4328 C.ar    1  UNL1        0.0000
     11 C          -6.1286   -7.4462   29.6580 C.ar    1  UNL1        0.0005
     12 C          -6.8112   -7.8923   30.8086 C.ar    1  UNL1        0.0085
     13 C          -7.0529   -9.2657   31.0555 C.ar    1  UNL1        0.0522
     14 I          -6.4825  -10.7697   29.6417 I       1  UNL1       -0.0408
     15 C          -9.0526  -12.1752   34.8570 C.3     1  UNL1        0.0265
     16 C         -10.1256  -11.9616   33.7772 C.3     1  UNL1        0.1007
     17 C         -10.9540  -13.2009   33.4653 C.ar    1  UNL1        0.0234
     18 C         -11.4855  -13.4429   32.1802 C.ar    1  UNL1        0.0019
     19 C         -12.2724  -14.5721   31.9372 C.ar    1  UNL1        0.0295
     20 C         -12.5501  -15.4692   32.9694 C.ar    1  UNL1        0.1424
     21 F         -13.3156  -16.5625   32.7305 F       1  UNL1       -0.2041
     22 C         -12.0458  -15.2358   34.2497 C.ar    1  UNL1        0.0590
     23 C         -11.2579  -14.1082   34.5018 C.ar    1  UNL1        0.1399
     24 F         -10.7931  -13.9035   35.7604 F       1  UNL1       -0.2044
     25 C         -10.3235  -11.3058   31.3135 C.3     1  UNL1        0.1207
     26 C         -11.0023   -9.9650   31.2216 C.ar    1  UNL1       -0.0021
     27 C         -12.1621   -9.7134   31.9682 C.ar    1  UNL1       -0.0026
     28 C         -12.7479   -8.4465   31.9508 C.ar    1  UNL1       -0.0001
     29 C         -12.1764   -7.4175   31.1980 C.ar    1  UNL1        0.0064
     30 C         -11.0136   -7.6500   30.4424 C.ar    1  UNL1        0.0752
     31 C         -10.4425   -8.9345   30.4471 C.ar    1  UNL1        0.0038
     32 C         -10.3766   -6.5534   29.6804 C.2     1  UNL1        0.3380
     33 O          -9.4511   -6.7989   28.8604 O.2     1  UNL1       -0.2451
     34 O         -10.8034   -5.2390   29.8525 O.3     1  UNL1       -0.4771
     35 H         -10.3858   -4.4828   29.3235 H       1  UNL1        0.2954
@<TRIPOS>BOND
     1    15    16    1
     2    16    17    1
     3    17    18   ar
     4    18    19   ar
     5    19    20   ar
     6    20    21    1
     7    20    22   ar
     8    22    23   ar
     9    23    24    1
    10    16     1    1
    11     1    25    1
    12    25    26    1
    13    26    27   ar
    14    27    28   ar
    15    28    29   ar
    16    29    30   ar
    17    30    32    1
    18    32    33    2
    19    32    34    1
    20    30    31   ar
    21     1     2   am
    22     2     3    2
    23     2     4    1
    24     4     5   ar
    25     5     6   ar
    26     6     7   ar
    27     7     8   ar
    28     8     9   ar
    29     9    10   ar
    30    10    11   ar
    31    11    12   ar
    32    12    13   ar
    33    13    14    1
    34    23    17   ar
    35    31    26   ar
    36    13     4   ar
    37    12     7   ar
    38    34    35    1
@<TRIPOS>MOLECULE
*****
 35 38 0 0 0
SMALL
GASTEIGER

@<TRIPOS>ATOM
      1 N          -8.5604  -10.3989   31.5136 N.am    1  UNL1       -0.2685
      2 C          -9.4650  -10.5967   32.6170 C.2     1  UNL1        0.2676
      3 O          -9.3803   -9.8664   33.6398 O.2     1  UNL1       -0.2682
      4 C         -10.4622  -11.6780   32.5682 C.ar    1  UNL1        0.1400
      5 N         -11.3735  -11.6500   31.5602 N.ar    1  UNL1       -0.2388
      6 C         -12.3742  -12.5566   31.4555 C.ar    1  UNL1        0.0990
      7 C         -12.5119  -13.5611   32.4154 C.ar    1  UNL1        0.0196
      8 C         -13.5689  -14.4799   32.3318 C.ar    1  UNL1        0.0016
      9 C         -13.7154  -15.4695   33.3039 C.ar    1  UNL1        0.0000
     10 C         -12.8088  -15.5513   34.3605 C.ar    1  UNL1        0.0000
     11 C         -11.7503  -14.6435   34.4544 C.ar    1  UNL1        0.0005
     12 C         -11.5856  -13.6314   33.4861 C.ar    1  UNL1        0.0085
     13 C         -10.5417  -12.6775   33.5642 C.ar    1  UNL1        0.0522
     14 I          -9.1867  -12.6410   35.2221 I       1  UNL1       -0.0408
     15 C          -6.6580   -9.7139   32.9488 C.3     1  UNL1        0.0265
     16 C          -7.1012  -10.5012   31.7052 C.3     1  UNL1        0.1007
     17 C          -6.3597  -10.1242   30.4296 C.ar    1  UNL1        0.0234
     18 C          -5.8834   -8.8156   30.1987 C.ar    1  UNL1        0.0019
     19 C          -5.2387   -8.4945   29.0009 C.ar    1  UNL1        0.0295
     20 C          -5.0686   -9.4656   28.0133 C.ar    1  UNL1        0.1424
     21 F          -4.4447   -9.1500   26.8517 F       1  UNL1       -0.2041
     22 C          -5.5483  -10.7600   28.2192 C.ar    1  UNL1        0.0590
     23 C          -6.1948  -11.0900   29.4146 C.ar    1  UNL1        0.1399
     24 F          -6.6606  -12.3542   29.5787 F       1  UNL1       -0.2044
     25 C          -9.1141  -10.0200   30.2034 C.3     1  UNL1        0.1207
     26 C          -9.6617   -8.6178   30.2376 C.ar    1  UNL1       -0.0021
     27 C          -8.9879   -7.5852   29.5703 C.ar    1  UNL1       -0.0026
     28 C          -9.5342   -6.3013   29.5291 C.ar    1  UNL1       -0.0001
     29 C         -10.7615   -6.0390   30.1432 C.ar    1  UNL1        0.0064
     30 C         -11.4524   -7.0612   30.8177 C.ar    1  UNL1        0.0752
     31 C         -10.8849   -8.3460   30.8741 C.ar    1  UNL1        0.0038
     32 C         -12.7743   -6.8022   31.4299 C.2     1  UNL1        0.3380
     33 O         -12.8606   -6.1875   32.5272 O.2     1  UNL1       -0.2451
     34 O         -13.9380   -7.2241   30.7919 O.3     1  UNL1       -0.4771
     35 H         -14.8488   -7.0372   31.1938 H       1  UNL1        0.2954
@<TRIPOS>BOND
     1    15    16    1
     2    16    17    1
     3    17    18   ar
     4    18    19   ar
     5    19    20   ar
     6    20    21    1
     7    20    22   ar
     8    22    23   ar
     9    23    24    1
    10    16     1    1
    11     1    25    1
    12    25    26    1
    13    26    27   ar
    14    27    28   ar
    15    28    29   ar
    16    29    30   ar
    17    30    32    1
    18    32    33    2
    19    32    34    1
    20    30    31   ar
    21     1     2   am
    22     2     3    2
    23     2     4    1
    24     4     5   ar
    25     5     6   ar
    26     6     7   ar
    27     7     8   ar
    28     8     9   ar
    29     9    10   ar
    30    10    11   ar
    31    11    12   ar
    32    12    13   ar
    33    13    14    1
    34    23    17   ar
    35    31    26   ar
    36    13     4   ar
    37    12     7   ar
    38    34    35    1
@<TRIPOS>MOLECULE
*****
 35 38 0 0 0
SMALL
GASTEIGER

@<TRIPOS>ATOM
      1 N         -10.5552  -11.0001   31.8296 N.am    1  UNL1       -0.2685
      2 C          -9.2663  -10.5094   32.2454 C.2     1  UNL1        0.2676
      3 O          -9.0973  -10.1045   33.4262 O.2     1  UNL1       -0.2682
      4 C          -8.1567  -10.4421   31.2810 C.ar    1  UNL1        0.1400
      5 N          -7.8546  -11.5715   30.5879 N.ar    1  UNL1       -0.2388
      6 C          -6.8141  -11.6414   29.7238 C.ar    1  UNL1        0.0990
      7 C          -5.9900  -10.5311   29.5294 C.ar    1  UNL1        0.0196
      8 C          -4.8888  -10.6101   28.6637 C.ar    1  UNL1        0.0016
      9 C          -4.0556   -9.5053   28.4875 C.ar    1  UNL1        0.0000
     10 C          -4.3170   -8.3168   29.1688 C.ar    1  UNL1        0.0000
     11 C          -5.4119   -8.2242   30.0325 C.ar    1  UNL1        0.0005
     12 C          -6.2647   -9.3300   30.2302 C.ar    1  UNL1        0.0085
     13 C          -7.3667   -9.2816   31.1185 C.ar    1  UNL1        0.0522
     14 I          -7.7634   -7.5462   32.3089 I       1  UNL1       -0.0408
     15 C         -12.9796  -10.8614   31.3286 C.3     1  UNL1        0.0265
     16 C         -11.7532  -10.1435   31.9147 C.3     1  UNL1        0.1007
     17 C         -11.4828   -8.7725   31.3093 C.ar    1  UNL1        0.0234
     18 C         -11.8427   -7.5778   31.9692 C.ar    1  UNL1        0.0019
     19 C         -11.6130   -6.3367   31.3688 C.ar    1  UNL1        0.0295
     20 C         -11.0330   -6.2669   30.1016 C.ar    1  UNL1        0.1424
     21 F         -10.8135   -5.0614   29.5214 F       1  UNL1       -0.2041
     22 C         -10.6862   -7.4395   29.4287 C.ar    1  UNL1        0.0590
     23 C         -10.9129   -8.6856   30.0218 C.ar    1  UNL1        0.1399
     24 F         -10.5757   -9.8072   29.3359 F       1  UNL1       -0.2044
     25 C         -10.6705  -12.3988   31.3854 C.3     1  UNL1        0.1207
     26 C         -11.1037  -13.2882   32.5205 C.ar    1  UNL1       -0.0021
     27 C         -10.6293  -13.0505   33.8182 C.ar    1  UNL1       -0.0026
     28 C         -11.0919  -13.8196   34.8873 C.ar    1  UNL1       -0.0001
     29 C         -12.0388  -14.8244   34.6732 C.ar    1  UNL1        0.0064
     30 C         -12.5266  -15.0783   33.3791 C.ar    1  UNL1        0.0752
     31 C         -12.0391  -14.3147   32.3043 C.ar    1  UNL1        0.0038
     32 C         -13.5637  -16.1088   33.1519 C.2     1  UNL1        0.3380
     33 O         -14.7289  -15.9537   33.6077 O.2     1  UNL1       -0.2451
     34 O         -13.2654  -17.2554   32.4200 O.3     1  UNL1       -0.4771
     35 H         -13.9725  -17.9591   32.2442 H       1  UNL1        0.2954
@<TRIPOS>BOND
     1    15    16    1
     2    16    17    1
     3    17    18   ar
     4    18    19   ar
     5    19    20   ar
     6    20    21    1
     7    20    22   ar
     8    22    23   ar
     9    23    24    1
    10    16     1    1
    11     1    25    1
    12    25    26    1
    13    26    27   ar
    14    27    28   ar
    15    28    29   ar
    16    29    30   ar
    17    30    32    1
    18    32    33    2
    19    32    34    1
    20    30    31   ar
    21     1     2   am
    22     2     3    2
    23     2     4    1
    24     4     5   ar
    25     5     6   ar
    26     6     7   ar
    27     7     8   ar
    28     8     9   ar
    29     9    10   ar
    30    10    11   ar
    31    11    12   ar
    32    12    13   ar
    33    13    14    1
    34    23    17   ar
    35    31    26   ar
    36    13     4   ar
    37    12     7   ar
    38    34    35    1
@<TRIPOS>MOLECULE
*****
 35 38 0 0 0
SMALL
GASTEIGER

@<TRIPOS>ATOM
      1 N          -8.3421   -9.8020   30.4476 N.am    1  UNL1       -0.2685
      2 C          -8.8738  -10.1162   31.7489 C.2     1  UNL1        0.2676
      3 O          -8.4327   -9.5242   32.7695 O.2     1  UNL1       -0.2682
      4 C          -9.9035  -11.1578   31.8928 C.ar    1  UNL1        0.1400
      5 N         -10.8705  -11.2242   30.9400 N.ar    1  UNL1       -0.2388
      6 C         -11.9018  -12.0996   31.0063 C.ar    1  UNL1        0.0990
      7 C         -12.0131  -12.9690   32.0932 C.ar    1  UNL1        0.0196
      8 C         -13.0997  -13.8518   32.1850 C.ar    1  UNL1        0.0016
      9 C         -13.2187  -14.7045   33.2824 C.ar    1  UNL1        0.0000
     10 C         -12.2552  -14.6852   34.2906 C.ar    1  UNL1        0.0000
     11 C         -11.1668  -13.8121   34.2103 C.ar    1  UNL1        0.0005
     12 C         -11.0287  -12.9372   33.1128 C.ar    1  UNL1        0.0085
     13 C          -9.9546  -12.0198   33.0116 C.ar    1  UNL1        0.0522
     14 I          -8.5053  -11.8236   34.5760 I       1  UNL1       -0.0408
     15 C          -6.4752  -11.4295   30.3312 C.3     1  UNL1        0.0265
     16 C          -6.9042   -9.9635   30.1598 C.3     1  UNL1        0.1007
     17 C          -6.0759   -8.9713   30.9653 C.ar    1  UNL1        0.0234
     18 C          -5.5867   -9.2759   32.2538 C.ar    1  UNL1        0.0019
     19 C          -4.8603   -8.3287   32.9810 C.ar    1  UNL1        0.0295
     20 C          -4.6200   -7.0641   32.4423 C.ar    1  UNL1        0.1424
     21 F          -3.9169   -6.1470   33.1514 F       1  UNL1       -0.2041
     22 C          -5.1109   -6.7414   31.1762 C.ar    1  UNL1        0.0590
     23 C          -5.8390   -7.6830   30.4418 C.ar    1  UNL1        0.1399
     24 F          -6.3131   -7.3338   29.2190 F       1  UNL1       -0.2044
     25 C          -9.2472   -9.2462   29.4284 C.3     1  UNL1        0.1207
     26 C          -9.8412   -7.9425   29.8919 C.ar    1  UNL1       -0.0021
     27 C          -9.2107   -6.7317   29.5725 C.ar    1  UNL1       -0.0026
     28 C          -9.8003   -5.5174   29.9280 C.ar    1  UNL1       -0.0001
     29 C         -11.0280   -5.5000   30.5949 C.ar    1  UNL1        0.0064
     30 C         -11.6758   -6.7037   30.9243 C.ar    1  UNL1        0.0752
     31 C         -11.0648   -7.9229   30.5830 C.ar    1  UNL1        0.0038
     32 C         -12.9979   -6.6923   31.5884 C.2     1  UNL1        0.3380
     33 O         -13.1080   -6.3132   32.7857 O.2     1  UNL1       -0.2451
     34 O         -14.1367   -7.0883   30.8917 O.3     1  UNL1       -0.4771
     35 H         -15.0490   -7.0683   31.3314 H       1  UNL1        0.2954
@<TRIPOS>BOND
     1    15    16    1
     2    16    17    1
     3    17    18   ar
     4    18    19   ar
     5    19    20   ar
     6    20    21    1
     7    20    22   ar
     8    22    23   ar
     9    23    24    1
    10    16     1    1
    11     1    25    1
    12    25    26    1
    13    26    27   ar
    14    27    28   ar
    15    28    29   ar
    16    29    30   ar
    17    30    32    1
    18    32    33    2
    19    32    34    1
    20    30    31   ar
    21     1     2   am
    22     2     3    2
    23     2     4    1
    24     4     5   ar
    25     5     6   ar
    26     6     7   ar
    27     7     8   ar
    28     8     9   ar
    29     9    10   ar
    30    10    11   ar
    31    11    12   ar
    32    12    13   ar
    33    13    14    1
    34    23    17   ar
    35    31    26   ar
    36    13     4   ar
    37    12     7   ar
    38    34    35    1
@<TRIPOS>MOLECULE
*****
 35 38 0 0 0
SMALL
GASTEIGER

@<TRIPOS>ATOM
      1 N         -10.1598  -11.0868   32.3239 N.am    1  UNL1       -0.2685
      2 C         -11.0757  -10.1407   31.7400 C.2     1  UNL1        0.2676
      3 O         -12.3146  -10.3668   31.7628 O.2     1  UNL1       -0.2682
      4 C         -10.5632   -8.9291   31.0802 C.ar    1  UNL1        0.1400
      5 N          -9.3103   -8.9789   30.5557 N.ar    1  UNL1       -0.2388
      6 C          -8.7149   -7.9051   29.9842 C.ar    1  UNL1        0.0990
      7 C          -9.3823   -6.6798   29.9327 C.ar    1  UNL1        0.0196
      8 C          -8.7553   -5.5552   29.3753 C.ar    1  UNL1        0.0016
      9 C          -9.4171   -4.3277   29.3441 C.ar    1  UNL1        0.0000
     10 C         -10.7065   -4.2152   29.8636 C.ar    1  UNL1        0.0000
     11 C         -11.3432   -5.3281   30.4198 C.ar    1  UNL1        0.0005
     12 C         -10.6913   -6.5779   30.4670 C.ar    1  UNL1        0.0085
     13 C         -11.2944   -7.7201   31.0479 C.ar    1  UNL1        0.0522
     14 I         -13.2134   -7.6089   31.9918 I       1  UNL1       -0.0408
     15 C         -10.2073  -12.5416   30.3166 C.3     1  UNL1        0.0265
     16 C         -10.1113  -12.4829   31.8496 C.3     1  UNL1        0.1007
     17 C         -11.1434  -13.3370   32.5738 C.ar    1  UNL1        0.0234
     18 C         -12.3201  -13.7894   31.9387 C.ar    1  UNL1        0.0019
     19 C         -13.2645  -14.5412   32.6434 C.ar    1  UNL1        0.0295
     20 C         -13.0573  -14.8440   33.9898 C.ar    1  UNL1        0.1424
     21 F         -13.9765  -15.5717   34.6708 F       1  UNL1       -0.2041
     22 C         -11.9068  -14.3902   34.6368 C.ar    1  UNL1        0.0590
     23 C         -10.9569  -13.6371   33.9395 C.ar    1  UNL1        0.1399
     24 F          -9.8551  -13.2005   34.6008 F       1  UNL1       -0.2044
     25 C          -9.3215  -10.6554   33.4543 C.3     1  UNL1        0.1207
     26 C          -7.9545  -10.2387   32.9801 C.ar    1  UNL1       -0.0021
     27 C          -7.1508  -11.1446   32.2737 C.ar    1  UNL1       -0.0026
     28 C          -5.9181  -10.7381   31.7602 C.ar    1  UNL1       -0.0001
     29 C          -5.4815   -9.4227   31.9372 C.ar    1  UNL1        0.0064
     30 C          -6.2730   -8.4994   32.6431 C.ar    1  UNL1        0.0752
     31 C          -7.5028   -8.9224   33.1767 C.ar    1  UNL1        0.0038
     32 C          -5.8387   -7.0930   32.7940 C.2     1  UNL1        0.3380
     33 O          -4.6191   -6.8142   32.9491 O.2     1  UNL1       -0.2451
     34 O          -6.7735   -6.0616   32.7529 O.3     1  UNL1       -0.4771
     35 H          -6.4852   -5.0943   32.8383 H       1  UNL1        0.2954
@<TRIPOS>BOND
     1    15    16    1
     2    16    17    1
     3    17    18   ar
     4    18    19   ar
     5    19    20   ar
     6    20    21    1
     7    20    22   ar
     8    22    23   ar
     9    23    24    1
    10    16     1    1
    11     1    25    1
    12    25    26    1
    13    26    27   ar
    14    27    28   ar
    15    28    29   ar
    16    29    30   ar
    17    30    32    1
    18    32    33    2
    19    32    34    1
    20    30    31   ar
    21     1     2   am
    22     2     3    2
    23     2     4    1
    24     4     5   ar
    25     5     6   ar
    26     6     7   ar
    27     7     8   ar
    28     8     9   ar
    29     9    10   ar
    30    10    11   ar
    31    11    12   ar
    32    12    13   ar
    33    13    14    1
    34    23    17   ar
    35    31    26   ar
    36    13     4   ar
    37    12     7   ar
    38    34    35    1
