@<TRIPOS>MOLECULE
*****
 46 51 0 0 0
SMALL
GASTEIGER

@<TRIPOS>ATOM
      1 C          11.4109   81.1417   25.7783 C.ar    1  UNL1        0.0743
      2 C          12.2590   81.8655   26.6290 C.ar    1  UNL1        0.0196
      3 C          13.0786   82.8716   26.1172 C.ar    1  UNL1        0.0356
      4 C          13.0588   83.1513   24.7405 C.ar    1  UNL1        0.1323
      5 N          12.2417   82.4200   23.9320 N.ar    1  UNL1       -0.2235
      6 C          11.4342   81.4333   24.4031 C.ar    1  UNL1        0.1179
      7 S          10.3900   80.5513   23.2440 S.3     1  UNL1       -0.1215
      8 H          11.3755   79.5719   23.0203 H       1  UNL1        0.1086
      9 N          13.8919   84.1857   24.1710 N.pl3   1  UNL1       -0.2932
     10 C          14.0365   85.4859   24.8484 C.3     1  UNL1        0.0923
     11 C          14.5363   86.5664   23.8839 C.3     1  UNL1        0.0252
     12 C          15.8558   86.1505   23.1975 C.3     1  UNL1        0.0472
     13 C          15.8765   84.6506   22.7864 C.3     1  UNL1        0.0252
     14 C          14.4946   83.9905   22.8432 C.3     1  UNL1        0.0923
     15 C          16.1356   87.0691   21.9973 C.3     1  UNL1        0.2054
     16 O          14.9214   87.3376   21.2984 O.3     1  UNL1       -0.4755
     17 C          14.3649   86.4983   20.3223 C.ar    1  UNL1        0.1388
     18 C          13.0040   86.5518   19.9687 C.ar    1  UNL1        0.0369
     19 C          12.4989   85.6932   18.9901 C.ar    1  UNL1        0.0033
     20 C          13.3403   84.7762   18.3562 C.ar    1  UNL1        0.0066
     21 C          14.7026   84.7086   18.6964 C.ar    1  UNL1        0.0785
     22 C          15.2036   85.5768   19.6828 C.ar    1  UNL1        0.0433
     23 C          15.5997   83.7395   18.0288 C.2     1  UNL1        0.3381
     24 O          15.7503   83.7659   16.7771 O.2     1  UNL1       -0.2451
     25 O          16.2870   82.7875   18.7776 O.3     1  UNL1       -0.4771
     26 H          16.9035   82.1196   18.3305 H       1  UNL1        0.2954
     27 C          11.0164   78.7085   26.3633 C.2     1  UNL1        0.2840
     28 O          12.1320   78.3628   25.8900 O.2     1  UNL1       -0.2665
     29 N          10.5875   80.0785   26.2864 N.am    1  UNL1       -0.2763
     30 H           9.6357   80.3285   26.6318 H       1  UNL1        0.1553
     31 C           7.8576   78.2174   25.8591 C.3     1  UNL1        0.0345
     32 C           8.7976   77.4473   26.7365 C.ar    1  UNL1        0.0202
     33 C          10.1600   77.6739   26.9684 C.ar    1  UNL1        0.1946
     34 O          10.6159   76.8124   27.8606 O.2     1  UNL1       -0.4492
     35 C           9.6261   76.0234   28.2008 C.ar    1  UNL1        0.1452
     36 C           9.6582   74.9678   29.1053 C.ar    1  UNL1        0.0375
     37 C           8.4701   74.2477   29.3215 C.ar    1  UNL1        0.0031
     38 C           7.2739   74.5920   28.6352 C.ar    1  UNL1        0.0002
     39 C           7.2846   75.6755   27.7242 C.ar    1  UNL1        0.0028
     40 C           8.4816   76.3657   27.5336 C.ar    1  UNL1        0.0337
     41 C           6.0249   73.8244   28.8714 C.ar    1  UNL1        0.0000
     42 C           5.1478   74.1866   29.9115 C.ar    1  UNL1        0.0000
     43 C           3.9730   73.4611   30.1322 C.ar    1  UNL1        0.0000
     44 C           3.6602   72.3692   29.3196 C.ar    1  UNL1        0.0000
     45 C           4.5218   71.9999   28.2845 C.ar    1  UNL1        0.0000
     46 C           5.6985   72.7211   28.0597 C.ar    1  UNL1        0.0000
@<TRIPOS>BOND
     1    31    32    1
     2    32    33   ar
     3    33    27    1
     4    27    28    2
     5    27    29   am
     6    29     1    1
     7     1     2   ar
     8     2     3   ar
     9     3     4   ar
    10     4     9    1
    11     9    10    1
    12    10    11    1
    13    11    12    1
    14    12    15    1
    15    15    16    1
    16    16    17    1
    17    17    18   ar
    18    18    19   ar
    19    19    20   ar
    20    20    21   ar
    21    21    23    1
    22    23    24    2
    23    23    25    1
    24    21    22   ar
    25    12    13    1
    26    13    14    1
    27     4     5   ar
    28     5     6   ar
    29     6     7    1
    30    33    34   ar
    31    34    35   ar
    32    35    36   ar
    33    36    37   ar
    34    37    38   ar
    35    38    41    1
    36    41    42   ar
    37    42    43   ar
    38    43    44   ar
    39    44    45   ar
    40    45    46   ar
    41    38    39   ar
    42    39    40   ar
    43    40    32   ar
    44     6     1   ar
    45    40    35   ar
    46    14     9    1
    47    46    41   ar
    48    22    17   ar
    49    29    30    1
    50    25    26    1
    51     7     8    1
@<TRIPOS>MOLECULE
*****
 46 51 0 0 0
SMALL
GASTEIGER

@<TRIPOS>ATOM
      1 C          11.5430   80.9461   25.1817 C.ar    1  UNL1        0.0743
      2 C          11.0061   82.2395   25.1064 C.ar    1  UNL1        0.0196
      3 C          11.8102   83.3150   24.7288 C.ar    1  UNL1        0.0356
      4 C          13.1665   83.0988   24.4329 C.ar    1  UNL1        0.1323
      5 N          13.6691   81.8365   24.5338 N.ar    1  UNL1       -0.2235
      6 C          12.9094   80.7708   24.9008 C.ar    1  UNL1        0.1179
      7 S          13.6791   79.1544   24.9815 S.3     1  UNL1       -0.1215
      8 H          14.0127   79.3227   26.3384 H       1  UNL1        0.1086
      9 N          14.0328   84.1859   24.0375 N.pl3   1  UNL1       -0.2932
     10 C          14.3767   85.2526   24.9935 C.3     1  UNL1        0.0923
     11 C          14.8757   86.5096   24.2733 C.3     1  UNL1        0.0252
     12 C          16.0669   86.1966   23.3414 C.3     1  UNL1        0.0472
     13 C          15.8950   84.8569   22.5700 C.3     1  UNL1        0.0252
     14 C          14.4684   84.3011   22.6371 C.3     1  UNL1        0.0923
     15 C          16.3070   87.3737   22.3828 C.3     1  UNL1        0.2054
     16 O          15.0817   88.0648   22.1465 O.3     1  UNL1       -0.4755
     17 C          14.0650   87.6095   21.2945 C.ar    1  UNL1        0.1388
     18 C          12.7000   87.7814   21.5903 C.ar    1  UNL1        0.0369
     19 C          11.7260   87.3088   20.7083 C.ar    1  UNL1        0.0033
     20 C          12.0994   86.6629   19.5277 C.ar    1  UNL1        0.0066
     21 C          13.4582   86.4824   19.2156 C.ar    1  UNL1        0.0785
     22 C          14.4331   86.9613   20.1089 C.ar    1  UNL1        0.0433
     23 C          13.8610   85.7989   17.9664 C.2     1  UNL1        0.3381
     24 O          14.4800   86.4275   17.0654 O.2     1  UNL1       -0.2451
     25 O          13.5596   84.4531   17.7737 O.3     1  UNL1       -0.4771
     26 H          13.8308   83.9758   16.9224 H       1  UNL1        0.2954
     27 C           9.5936   79.3581   24.8708 C.2     1  UNL1        0.2840
     28 O           9.1928   79.9725   23.8462 O.2     1  UNL1       -0.2665
     29 N          10.7349   79.8346   25.6039 N.am    1  UNL1       -0.2763
     30 H          11.0109   79.3432   26.4814 H       1  UNL1        0.1553
     31 C           7.8831   78.9840   27.5926 C.3     1  UNL1        0.0345
     32 C           8.0935   78.0067   26.4760 C.ar    1  UNL1        0.0202
     33 C           8.8505   78.1638   25.3083 C.ar    1  UNL1        0.1946
     34 O           8.8372   77.0438   24.6071 O.2     1  UNL1       -0.4492
     35 C           8.0910   76.1769   25.2471 C.ar    1  UNL1        0.1452
     36 C           7.7943   74.8727   24.8670 C.ar    1  UNL1        0.0375
     37 C           6.9659   74.1117   25.7106 C.ar    1  UNL1        0.0031
     38 C           6.4500   74.6622   26.9153 C.ar    1  UNL1        0.0002
     39 C           6.7786   75.9938   27.2657 C.ar    1  UNL1        0.0028
     40 C           7.6013   76.7192   26.4039 C.ar    1  UNL1        0.0337
     41 C           5.5759   73.8493   27.7986 C.ar    1  UNL1        0.0000
     42 C           5.4216   72.4674   27.5777 C.ar    1  UNL1        0.0000
     43 C           4.5969   71.7047   28.4104 C.ar    1  UNL1        0.0000
     44 C           3.9190   72.3101   29.4708 C.ar    1  UNL1        0.0000
     45 C           4.0640   73.6799   29.7006 C.ar    1  UNL1        0.0000
     46 C           4.8865   74.4478   28.8706 C.ar    1  UNL1        0.0000
@<TRIPOS>BOND
     1    31    32    1
     2    32    33   ar
     3    33    27    1
     4    27    28    2
     5    27    29   am
     6    29     1    1
     7     1     2   ar
     8     2     3   ar
     9     3     4   ar
    10     4     9    1
    11     9    10    1
    12    10    11    1
    13    11    12    1
    14    12    15    1
    15    15    16    1
    16    16    17    1
    17    17    18   ar
    18    18    19   ar
    19    19    20   ar
    20    20    21   ar
    21    21    23    1
    22    23    24    2
    23    23    25    1
    24    21    22   ar
    25    12    13    1
    26    13    14    1
    27     4     5   ar
    28     5     6   ar
    29     6     7    1
    30    33    34   ar
    31    34    35   ar
    32    35    36   ar
    33    36    37   ar
    34    37    38   ar
    35    38    41    1
    36    41    42   ar
    37    42    43   ar
    38    43    44   ar
    39    44    45   ar
    40    45    46   ar
    41    38    39   ar
    42    39    40   ar
    43    40    32   ar
    44     6     1   ar
    45    40    35   ar
    46    14     9    1
    47    46    41   ar
    48    22    17   ar
    49    29    30    1
    50    25    26    1
    51     7     8    1
@<TRIPOS>MOLECULE
*****
 46 51 0 0 0
SMALL
GASTEIGER

@<TRIPOS>ATOM
      1 C          11.3357   81.0730   25.7353 C.ar    1  UNL1        0.0743
      2 C          12.2057   81.7741   26.5829 C.ar    1  UNL1        0.0196
      3 C          13.0210   82.7855   26.0748 C.ar    1  UNL1        0.0356
      4 C          12.9747   83.0936   24.7049 C.ar    1  UNL1        0.1323
      5 N          12.1365   82.3840   23.8987 N.ar    1  UNL1       -0.2235
      6 C          11.3325   81.3927   24.3662 C.ar    1  UNL1        0.1179
      7 S          10.2590   80.5410   23.2112 S.3     1  UNL1       -0.1215
      8 H          11.2333   79.5605   22.9471 H       1  UNL1        0.1086
      9 N          13.8026   84.1344   24.1395 N.pl3   1  UNL1       -0.2932
     10 C          14.3369   85.2101   24.9926 C.3     1  UNL1        0.0923
     11 C          14.7555   86.4273   24.1615 C.3     1  UNL1        0.0252
     12 C          15.7655   86.0430   23.0581 C.3     1  UNL1        0.0472
     13 C          15.4215   84.6924   22.3675 C.3     1  UNL1        0.0252
     14 C          14.0062   84.1967   22.6838 C.3     1  UNL1        0.0923
     15 C          15.8870   87.1850   22.0366 C.3     1  UNL1        0.2054
     16 O          14.6948   87.9682   22.0404 O.3     1  UNL1       -0.4755
     17 C          13.7710   88.0131   20.9861 C.ar    1  UNL1        0.1388
     18 C          12.3838   87.9016   21.1938 C.ar    1  UNL1        0.0369
     19 C          11.5056   87.9519   20.1093 C.ar    1  UNL1        0.0033
     20 C          11.9976   88.1132   18.8122 C.ar    1  UNL1        0.0066
     21 C          13.3804   88.2266   18.5856 C.ar    1  UNL1        0.0785
     22 C          14.2582   88.1750   19.6831 C.ar    1  UNL1        0.0433
     23 C          13.9085   88.3977   17.2139 C.2     1  UNL1        0.3381
     24 O          14.3797   89.5075   16.8447 O.2     1  UNL1       -0.2451
     25 O          13.8900   87.3330   16.3165 O.3     1  UNL1       -0.4771
     26 H          14.2491   87.4395   15.3752 H       1  UNL1        0.2954
     27 C          10.9983   78.6678   26.4561 C.2     1  UNL1        0.2840
     28 O          12.1702   78.3506   26.1184 O.2     1  UNL1       -0.2665
     29 N          10.5160   80.0046   26.2385 N.am    1  UNL1       -0.2763
     30 H           9.5241   80.2265   26.4720 H       1  UNL1        0.1553
     31 C           7.8351   78.2066   25.9510 C.3     1  UNL1        0.0345
     32 C           8.7705   77.4192   26.8179 C.ar    1  UNL1        0.0202
     33 C          10.1349   77.6328   27.0503 C.ar    1  UNL1        0.1946
     34 O          10.5855   76.7574   27.9317 O.2     1  UNL1       -0.4492
     35 C           9.5902   75.9720   28.2642 C.ar    1  UNL1        0.1452
     36 C           9.6157   74.9056   29.1562 C.ar    1  UNL1        0.0375
     37 C           8.4224   74.1920   29.3658 C.ar    1  UNL1        0.0031
     38 C           7.2279   74.5535   28.6854 C.ar    1  UNL1        0.0002
     39 C           7.2455   75.6475   27.7871 C.ar    1  UNL1        0.0028
     40 C           8.4475   76.3308   27.6028 C.ar    1  UNL1        0.0337
     41 C           5.9735   73.7926   28.9145 C.ar    1  UNL1        0.0000
     42 C           5.6648   72.6671   28.1269 C.ar    1  UNL1        0.0000
     43 C           4.4822   71.9533   28.3443 C.ar    1  UNL1        0.0000
     44 C           3.5967   72.3526   29.3477 C.ar    1  UNL1        0.0000
     45 C           3.8914   73.4671   30.1359 C.ar    1  UNL1        0.0000
     46 C           5.0720   74.1853   29.9224 C.ar    1  UNL1        0.0000
@<TRIPOS>BOND
     1    31    32    1
     2    32    33   ar
     3    33    27    1
     4    27    28    2
     5    27    29   am
     6    29     1    1
     7     1     2   ar
     8     2     3   ar
     9     3     4   ar
    10     4     9    1
    11     9    10    1
    12    10    11    1
    13    11    12    1
    14    12    15    1
    15    15    16    1
    16    16    17    1
    17    17    18   ar
    18    18    19   ar
    19    19    20   ar
    20    20    21   ar
    21    21    23    1
    22    23    24    2
    23    23    25    1
    24    21    22   ar
    25    12    13    1
    26    13    14    1
    27     4     5   ar
    28     5     6   ar
    29     6     7    1
    30    33    34   ar
    31    34    35   ar
    32    35    36   ar
    33    36    37   ar
    34    37    38   ar
    35    38    41    1
    36    41    42   ar
    37    42    43   ar
    38    43    44   ar
    39    44    45   ar
    40    45    46   ar
    41    38    39   ar
    42    39    40   ar
    43    40    32   ar
    44     6     1   ar
    45    40    35   ar
    46    14     9    1
    47    46    41   ar
    48    22    17   ar
    49    29    30    1
    50    25    26    1
    51     7     8    1
@<TRIPOS>MOLECULE
*****
 46 51 0 0 0
SMALL
GASTEIGER

@<TRIPOS>ATOM
      1 C          11.3232   81.1784   25.8504 C.ar    1  UNL1        0.0743
      2 C          12.1339   81.9404   26.7042 C.ar    1  UNL1        0.0196
      3 C          12.9792   82.9204   26.1839 C.ar    1  UNL1        0.0356
      4 C          13.0232   83.1354   24.7962 C.ar    1  UNL1        0.1323
      5 N          12.2416   82.3678   23.9862 N.ar    1  UNL1       -0.2235
      6 C          11.4102   81.4052   24.4656 C.ar    1  UNL1        0.1179
      7 S          10.4171   80.4709   23.3025 S.3     1  UNL1       -0.1215
      8 H          11.4087   79.4810   23.1701 H       1  UNL1        0.1086
      9 N          13.8848   84.1410   24.2176 N.pl3   1  UNL1       -0.2932
     10 C          14.1852   85.3809   24.9542 C.3     1  UNL1        0.0923
     11 C          14.6868   86.4822   24.0144 C.3     1  UNL1        0.0252
     12 C          15.9092   86.0166   23.1932 C.3     1  UNL1        0.0472
     13 C          15.7793   84.5486   22.6955 C.3     1  UNL1        0.0252
     14 C          14.3595   83.9884   22.8335 C.3     1  UNL1        0.0923
     15 C          16.1602   86.9878   22.0287 C.3     1  UNL1        0.2054
     16 O          15.9009   86.3344   20.7875 O.3     1  UNL1       -0.4755
     17 C          14.6479   86.2925   20.1589 C.ar    1  UNL1        0.1388
     18 C          14.2690   85.2430   19.3016 C.ar    1  UNL1        0.0369
     19 C          13.0091   85.2487   18.6996 C.ar    1  UNL1        0.0033
     20 C          12.1170   86.2951   18.9441 C.ar    1  UNL1        0.0066
     21 C          12.4781   87.3521   19.7978 C.ar    1  UNL1        0.0785
     22 C          13.7488   87.3389   20.4003 C.ar    1  UNL1        0.0433
     23 C          11.5380   88.4639   20.0613 C.2     1  UNL1        0.3381
     24 O          11.8419   89.3783   20.8746 O.2     1  UNL1       -0.2451
     25 O          10.3066   88.5110   19.4125 O.3     1  UNL1       -0.4771
     26 H           9.6558   89.2677   19.5856 H       1  UNL1        0.2954
     27 C          10.0292   80.0876   27.7355 C.2     1  UNL1        0.2840
     28 O          10.4533   80.9244   28.5768 O.2     1  UNL1       -0.2665
     29 N          10.4740   80.1411   26.3695 N.am    1  UNL1       -0.2763
     30 H          10.1547   79.4022   25.7064 H       1  UNL1        0.1553
     31 C           8.9221   77.5530   26.0551 C.3     1  UNL1        0.0345
     32 C           8.6289   77.9373   27.4738 C.ar    1  UNL1        0.0202
     33 C           9.0936   79.0456   28.1927 C.ar    1  UNL1        0.1946
     34 O           8.5507   79.0628   29.3974 O.2     1  UNL1       -0.4492
     35 C           7.7774   78.0101   29.5055 C.ar    1  UNL1        0.1452
     36 C           7.0180   77.6277   30.6058 C.ar    1  UNL1        0.0375
     37 C           6.2544   76.4515   30.5040 C.ar    1  UNL1        0.0031
     38 C           6.2603   75.6797   29.3103 C.ar    1  UNL1        0.0002
     39 C           7.0462   76.1062   28.2128 C.ar    1  UNL1        0.0028
     40 C           7.7922   77.2767   28.3505 C.ar    1  UNL1        0.0337
     41 C           5.4500   74.4391   29.2141 C.ar    1  UNL1        0.0000
     42 C           4.3802   74.2121   30.1009 C.ar    1  UNL1        0.0000
     43 C           3.6197   73.0424   30.0086 C.ar    1  UNL1        0.0000
     44 C           3.9164   72.0884   29.0326 C.ar    1  UNL1        0.0000
     45 C           4.9748   72.3019   28.1469 C.ar    1  UNL1        0.0000
     46 C           5.7393   73.4692   28.2352 C.ar    1  UNL1        0.0000
@<TRIPOS>BOND
     1    31    32    1
     2    32    33   ar
     3    33    27    1
     4    27    28    2
     5    27    29   am
     6    29     1    1
     7     1     2   ar
     8     2     3   ar
     9     3     4   ar
    10     4     9    1
    11     9    10    1
    12    10    11    1
    13    11    12    1
    14    12    15    1
    15    15    16    1
    16    16    17    1
    17    17    18   ar
    18    18    19   ar
    19    19    20   ar
    20    20    21   ar
    21    21    23    1
    22    23    24    2
    23    23    25    1
    24    21    22   ar
    25    12    13    1
    26    13    14    1
    27     4     5   ar
    28     5     6   ar
    29     6     7    1
    30    33    34   ar
    31    34    35   ar
    32    35    36   ar
    33    36    37   ar
    34    37    38   ar
    35    38    41    1
    36    41    42   ar
    37    42    43   ar
    38    43    44   ar
    39    44    45   ar
    40    45    46   ar
    41    38    39   ar
    42    39    40   ar
    43    40    32   ar
    44     6     1   ar
    45    40    35   ar
    46    14     9    1
    47    46    41   ar
    48    22    17   ar
    49    29    30    1
    50    25    26    1
    51     7     8    1
@<TRIPOS>MOLECULE
*****
 46 51 0 0 0
SMALL
GASTEIGER

@<TRIPOS>ATOM
      1 C          13.0355   83.0527   25.6907 C.ar    1  UNL1        0.0743
      2 C          13.0265   83.3309   24.3162 C.ar    1  UNL1        0.0196
      3 C          13.7312   84.4253   23.8145 C.ar    1  UNL1        0.0356
      4 C          14.4440   85.2562   24.6950 C.ar    1  UNL1        0.1323
      5 N          14.4199   84.9769   26.0282 N.ar    1  UNL1       -0.2235
      6 C          13.7408   83.9188   26.5446 C.ar    1  UNL1        0.1179
      7 S          13.7975   83.6429   28.3146 S.3     1  UNL1       -0.1215
      8 H          12.6460   84.4238   28.5264 H       1  UNL1        0.1086
      9 N          15.1870   86.3991   24.2152 N.pl3   1  UNL1       -0.2932
     10 C          14.7546   87.7664   24.5526 C.3     1  UNL1        0.0923
     11 C          15.3519   88.7960   23.5879 C.3     1  UNL1        0.0252
     12 C          16.8925   88.7000   23.5353 C.3     1  UNL1        0.0472
     13 C          17.4073   87.2323   23.5461 C.3     1  UNL1        0.0252
     14 C          16.3033   86.2039   23.2772 C.3     1  UNL1        0.0923
     15 C          17.4258   89.4769   22.3211 C.3     1  UNL1        0.2054
     16 O          17.3489   88.6628   21.1522 O.3     1  UNL1       -0.4755
     17 C          16.1582   88.3461   20.4823 C.ar    1  UNL1        0.1388
     18 C          15.2943   89.3330   19.9724 C.ar    1  UNL1        0.0369
     19 C          14.1197   88.9648   19.3132 C.ar    1  UNL1        0.0033
     20 C          13.7944   87.6158   19.1555 C.ar    1  UNL1        0.0066
     21 C          14.6454   86.6160   19.6582 C.ar    1  UNL1        0.0785
     22 C          15.8266   86.9950   20.3207 C.ar    1  UNL1        0.0433
     23 C          14.3069   85.1849   19.4946 C.2     1  UNL1        0.3381
     24 O          13.2702   84.8417   18.8642 O.2     1  UNL1       -0.2451
     25 O          15.1313   84.2019   20.0363 O.3     1  UNL1       -0.4771
     26 H          14.9088   83.2194   19.9301 H       1  UNL1        0.2954
     27 C          11.0128   81.5273   25.7059 C.2     1  UNL1        0.2840
     28 O          10.4485   82.1851   24.7911 O.2     1  UNL1       -0.2665
     29 N          12.2849   81.9495   26.2258 N.am    1  UNL1       -0.2763
     30 H          12.7033   81.4228   27.0227 H       1  UNL1        0.1553
     31 C           9.3815   79.2754   24.0502 C.3     1  UNL1        0.0345
     32 C           9.6369   79.3531   25.5250 C.ar    1  UNL1        0.0202
     33 C          10.3263   80.3392   26.2416 C.ar    1  UNL1        0.1946
     34 O          10.2735   80.0772   27.5357 O.2     1  UNL1       -0.4492
     35 C           9.6069   78.9598   27.6935 C.ar    1  UNL1        0.1452
     36 C           9.3181   78.3084   28.8876 C.ar    1  UNL1        0.0375
     37 C           8.5831   77.1114   28.8253 C.ar    1  UNL1        0.0031
     38 C           8.1493   76.5866   27.5776 C.ar    1  UNL1        0.0002
     39 C           8.4632   77.2829   26.3857 C.ar    1  UNL1        0.0028
     40 C           9.1954   78.4658   26.4857 C.ar    1  UNL1        0.0337
     41 C           7.3737   75.3214   27.5238 C.ar    1  UNL1        0.0000
     42 C           7.0509   74.7315   26.2868 C.ar    1  UNL1        0.0000
     43 C           6.3195   73.5408   26.2393 C.ar    1  UNL1        0.0000
     44 C           5.9033   72.9260   27.4223 C.ar    1  UNL1        0.0000
     45 C           6.2173   73.5009   28.6556 C.ar    1  UNL1        0.0000
     46 C           6.9476   74.6921   28.7092 C.ar    1  UNL1        0.0000
@<TRIPOS>BOND
     1    31    32    1
     2    32    33   ar
     3    33    27    1
     4    27    28    2
     5    27    29   am
     6    29     1    1
     7     1     2   ar
     8     2     3   ar
     9     3     4   ar
    10     4     9    1
    11     9    10    1
    12    10    11    1
    13    11    12    1
    14    12    15    1
    15    15    16    1
    16    16    17    1
    17    17    18   ar
    18    18    19   ar
    19    19    20   ar
    20    20    21   ar
    21    21    23    1
    22    23    24    2
    23    23    25    1
    24    21    22   ar
    25    12    13    1
    26    13    14    1
    27     4     5   ar
    28     5     6   ar
    29     6     7    1
    30    33    34   ar
    31    34    35   ar
    32    35    36   ar
    33    36    37   ar
    34    37    38   ar
    35    38    41    1
    36    41    42   ar
    37    42    43   ar
    38    43    44   ar
    39    44    45   ar
    40    45    46   ar
    41    38    39   ar
    42    39    40   ar
    43    40    32   ar
    44     6     1   ar
    45    40    35   ar
    46    14     9    1
    47    46    41   ar
    48    22    17   ar
    49    29    30    1
    50    25    26    1
    51     7     8    1
@<TRIPOS>MOLECULE
*****
 46 51 0 0 0
SMALL
GASTEIGER

@<TRIPOS>ATOM
      1 C          11.6052   81.0761   24.4842 C.ar    1  UNL1        0.0743
      2 C          10.2069   81.1724   24.5330 C.ar    1  UNL1        0.0196
      3 C           9.4331   80.0479   24.8205 C.ar    1  UNL1        0.0356
      4 C          10.0609   78.8126   25.0520 C.ar    1  UNL1        0.1323
      5 N          11.4194   78.7406   24.9782 N.ar    1  UNL1       -0.2235
      6 C          12.1977   79.8193   24.6985 C.ar    1  UNL1        0.1179
      7 S          13.9762   79.6046   24.6457 S.3     1  UNL1       -0.1215
      8 H          13.9542   79.3233   23.2669 H       1  UNL1        0.1086
      9 N           9.2954   77.6245   25.3534 N.pl3   1  UNL1       -0.2932
     10 C           9.7375   76.3069   24.8648 C.3     1  UNL1        0.0923
     11 C           8.5871   75.2950   24.8662 C.3     1  UNL1        0.0252
     12 C           7.9343   75.1773   26.2610 C.3     1  UNL1        0.0472
     13 C           7.7823   76.5507   26.9750 C.3     1  UNL1        0.0252
     14 C           7.9991   77.7445   26.0387 C.3     1  UNL1        0.0923
     15 C           6.5869   74.4461   26.1500 C.3     1  UNL1        0.2054
     16 O           5.8511   74.9508   25.0370 O.3     1  UNL1       -0.4755
     17 C           4.7688   75.8370   25.1370 C.ar    1  UNL1        0.1388
     18 C           4.3555   76.3873   26.3644 C.ar    1  UNL1        0.0369
     19 C           3.2706   77.2652   26.4100 C.ar    1  UNL1        0.0033
     20 C           2.5887   77.6028   25.2388 C.ar    1  UNL1        0.0066
     21 C           2.9874   77.0630   24.0035 C.ar    1  UNL1        0.0785
     22 C           4.0811   76.1797   23.9660 C.ar    1  UNL1        0.0433
     23 C           2.2695   77.4164   22.7588 C.2     1  UNL1        0.3381
     24 O           1.0158   77.5518   22.7610 O.2     1  UNL1       -0.2451
     25 O           2.9727   77.6028   21.5714 O.3     1  UNL1       -0.4771
     26 H           2.4909   77.8450   20.7138 H       1  UNL1        0.2954
     27 C          12.9213   83.1417   25.1319 C.2     1  UNL1        0.2840
     28 O          12.5928   83.0313   26.3434 O.2     1  UNL1       -0.2665
     29 N          12.4129   82.2186   24.1540 N.am    1  UNL1       -0.2763
     30 H          12.6519   82.3663   23.1497 H       1  UNL1        0.1553
     31 C          15.0925   83.1829   22.7324 C.3     1  UNL1        0.0345
     32 C          14.7377   84.2761   23.6942 C.ar    1  UNL1        0.0202
     33 C          13.8118   84.2494   24.7445 C.ar    1  UNL1        0.1946
     34 O          13.8408   85.3955   25.4017 O.2     1  UNL1       -0.4492
     35 C          14.7196   86.1727   24.8171 C.ar    1  UNL1        0.1452
     36 C          15.0679   87.4716   25.1709 C.ar    1  UNL1        0.0375
     37 C          16.0436   88.1265   24.3990 C.ar    1  UNL1        0.0031
     38 C          16.6541   87.4770   23.2918 C.ar    1  UNL1        0.0002
     39 C          16.2716   86.1531   22.9674 C.ar    1  UNL1        0.0028
     40 C          15.2993   85.5356   23.7541 C.ar    1  UNL1        0.0337
     41 C          17.6835   88.1785   22.4836 C.ar    1  UNL1        0.0000
     42 C          17.3577   88.7249   21.2275 C.ar    1  UNL1        0.0000
     43 C          18.3294   89.3839   20.4682 C.ar    1  UNL1        0.0000
     44 C          19.6338   89.5059   20.9523 C.ar    1  UNL1        0.0000
     45 C          19.9695   88.9685   22.1968 C.ar    1  UNL1        0.0000
     46 C          19.0022   88.3075   22.9600 C.ar    1  UNL1        0.0000
@<TRIPOS>BOND
     1    31    32    1
     2    32    33   ar
     3    33    27    1
     4    27    28    2
     5    27    29   am
     6    29     1    1
     7     1     2   ar
     8     2     3   ar
     9     3     4   ar
    10     4     9    1
    11     9    10    1
    12    10    11    1
    13    11    12    1
    14    12    15    1
    15    15    16    1
    16    16    17    1
    17    17    18   ar
    18    18    19   ar
    19    19    20   ar
    20    20    21   ar
    21    21    23    1
    22    23    24    2
    23    23    25    1
    24    21    22   ar
    25    12    13    1
    26    13    14    1
    27     4     5   ar
    28     5     6   ar
    29     6     7    1
    30    33    34   ar
    31    34    35   ar
    32    35    36   ar
    33    36    37   ar
    34    37    38   ar
    35    38    41    1
    36    41    42   ar
    37    42    43   ar
    38    43    44   ar
    39    44    45   ar
    40    45    46   ar
    41    38    39   ar
    42    39    40   ar
    43    40    32   ar
    44     6     1   ar
    45    40    35   ar
    46    14     9    1
    47    46    41   ar
    48    22    17   ar
    49    29    30    1
    50    25    26    1
    51     7     8    1
@<TRIPOS>MOLECULE
*****
 46 51 0 0 0
SMALL
GASTEIGER

@<TRIPOS>ATOM
      1 C          12.6997   82.7687   25.9521 C.ar    1  UNL1        0.0743
      2 C          12.6764   82.9606   24.5631 C.ar    1  UNL1        0.0196
      3 C          13.4460   83.9662   23.9780 C.ar    1  UNL1        0.0356
      4 C          14.2394   84.7952   24.7886 C.ar    1  UNL1        0.1323
      5 N          14.2286   84.6021   26.1372 N.ar    1  UNL1       -0.2235
      6 C          13.4874   83.6316   26.7341 C.ar    1  UNL1        0.1179
      7 S          13.5684   83.4631   28.5166 S.3     1  UNL1       -0.1215
      8 H          12.4825   84.3391   28.7015 H       1  UNL1        0.1086
      9 N          15.0513   85.8477   24.2216 N.pl3   1  UNL1       -0.2932
     10 C          15.5022   86.9750   25.0558 C.3     1  UNL1        0.0923
     11 C          15.9111   88.1770   24.1980 C.3     1  UNL1        0.0252
     12 C          16.9861   87.7942   23.1573 C.3     1  UNL1        0.0472
     13 C          16.7282   86.4061   22.5045 C.3     1  UNL1        0.0252
     14 C          15.3203   85.8646   22.7753 C.3     1  UNL1        0.0923
     15 C          17.1102   88.9019   22.0989 C.3     1  UNL1        0.2054
     16 O          15.8371   89.5058   21.8770 O.3     1  UNL1       -0.4755
     17 C          15.0181   89.2473   20.7683 C.ar    1  UNL1        0.1388
     18 C          15.4363   89.4952   19.4478 C.ar    1  UNL1        0.0369
     19 C          14.5819   89.2207   18.3779 C.ar    1  UNL1        0.0033
     20 C          13.3076   88.6988   18.6109 C.ar    1  UNL1        0.0066
     21 C          12.8728   88.4446   19.9234 C.ar    1  UNL1        0.0785
     22 C          13.7392   88.7236   20.9954 C.ar    1  UNL1        0.0433
     23 C          11.5239   87.8917   20.1775 C.2     1  UNL1        0.3381
     24 O          11.3711   86.9146   20.9598 O.2     1  UNL1       -0.2451
     25 O          10.4089   88.4459   19.5539 O.3     1  UNL1       -0.4771
     26 H           9.4812   88.0750   19.7209 H       1  UNL1        0.2954
     27 C          10.7442   81.1582   25.9359 C.2     1  UNL1        0.2840
     28 O          10.3508   81.5699   24.8118 O.2     1  UNL1       -0.2665
     29 N          11.8845   81.7598   26.5719 N.am    1  UNL1       -0.2763
     30 H          12.1544   81.4416   27.5277 H       1  UNL1        0.1553
     31 C           9.0708   78.7845   24.5080 C.3     1  UNL1        0.0345
     32 C           9.2853   79.0313   25.9707 C.ar    1  UNL1        0.0202
     33 C           9.9935   80.0706   26.5868 C.ar    1  UNL1        0.1946
     34 O           9.8916   79.9701   27.9004 O.2     1  UNL1       -0.4492
     35 C           9.1749   78.9059   28.1685 C.ar    1  UNL1        0.1452
     36 C           8.8242   78.4158   29.4216 C.ar    1  UNL1        0.0375
     37 C           8.0424   77.2485   29.4785 C.ar    1  UNL1        0.0031
     38 C           7.6244   76.5926   28.2888 C.ar    1  UNL1        0.0002
     39 C           8.0020   77.1265   27.0333 C.ar    1  UNL1        0.0028
     40 C           8.7793   78.2846   27.0154 C.ar    1  UNL1        0.0337
     41 C           6.7990   75.3602   28.3610 C.ar    1  UNL1        0.0000
     42 C           6.0068   75.0945   29.4942 C.ar    1  UNL1        0.0000
     43 C           5.2316   73.9326   29.5597 C.ar    1  UNL1        0.0000
     44 C           5.2371   73.0253   28.4980 C.ar    1  UNL1        0.0000
     45 C           6.0184   73.2775   27.3683 C.ar    1  UNL1        0.0000
     46 C           6.7964   74.4372   27.2977 C.ar    1  UNL1        0.0000
@<TRIPOS>BOND
     1    31    32    1
     2    32    33   ar
     3    33    27    1
     4    27    28    2
     5    27    29   am
     6    29     1    1
     7     1     2   ar
     8     2     3   ar
     9     3     4   ar
    10     4     9    1
    11     9    10    1
    12    10    11    1
    13    11    12    1
    14    12    15    1
    15    15    16    1
    16    16    17    1
    17    17    18   ar
    18    18    19   ar
    19    19    20   ar
    20    20    21   ar
    21    21    23    1
    22    23    24    2
    23    23    25    1
    24    21    22   ar
    25    12    13    1
    26    13    14    1
    27     4     5   ar
    28     5     6   ar
    29     6     7    1
    30    33    34   ar
    31    34    35   ar
    32    35    36   ar
    33    36    37   ar
    34    37    38   ar
    35    38    41    1
    36    41    42   ar
    37    42    43   ar
    38    43    44   ar
    39    44    45   ar
    40    45    46   ar
    41    38    39   ar
    42    39    40   ar
    43    40    32   ar
    44     6     1   ar
    45    40    35   ar
    46    14     9    1
    47    46    41   ar
    48    22    17   ar
    49    29    30    1
    50    25    26    1
    51     7     8    1
