@<TRIPOS>MOLECULE
*****
 51 56 0 0 0
SMALL
GASTEIGER

@<TRIPOS>ATOM
      1 O          14.8393   82.3882   24.3589 O.2     1  UNL1       -0.2701
      2 C          13.6250   82.7224   24.4334 C.2     1  UNL1        0.2483
      3 N          13.2345   84.0664   24.1118 N.am    1  UNL1       -0.2945
      4 H          12.2248   84.2644   23.9274 H       1  UNL1        0.1501
      5 C          12.6166   81.7102   24.8200 C.ar    1  UNL1        0.0808
      6 C          11.3122   82.1185   25.1414 C.ar    1  UNL1        0.0080
      7 C          10.3451   81.1818   25.5137 C.ar    1  UNL1        0.0148
      8 C          10.6574   79.8121   25.5643 C.ar    1  UNL1        0.0502
      9 C          11.9579   79.4022   25.2217 C.ar    1  UNL1        0.0443
     10 C          12.9286   80.3379   24.8505 C.ar    1  UNL1        0.1457
     11 F          14.1544   79.8909   24.4780 F       1  UNL1       -0.2040
     12 N           9.6566   78.8414   25.9455 N.pl3   1  UNL1       -0.3040
     13 C           8.9030   79.0085   27.1968 C.3     1  UNL1        0.1122
     14 C           8.5004   77.6484   27.7756 C.3     1  UNL1        0.1122
     15 N           7.8313   76.8090   26.7694 N.pl3   1  UNL1       -0.3041
     16 C           7.9534   77.1372   25.3416 C.3     1  UNL1        0.1122
     17 C           9.3316   77.7318   25.0355 C.3     1  UNL1        0.1122
     18 C           6.9880   75.7154   27.1956 C.ar    1  UNL1        0.0479
     19 C           6.8368   74.5746   26.3877 C.ar    1  UNL1        0.0145
     20 C           6.0118   73.5240   26.7927 C.ar    1  UNL1        0.0012
     21 C           5.3362   73.5901   28.0122 C.ar    1  UNL1        0.0039
     22 C           5.4954   74.7044   28.8525 C.ar    1  UNL1        0.0726
     23 C           6.3055   75.7721   28.4262 C.ar    1  UNL1        0.0184
     24 C           4.7334   74.7988   30.1509 C.3     1  UNL1        0.4186
     25 F           5.5604   75.2388   31.1698 F       1  UNL1       -0.1659
     26 F           3.6888   75.6917   30.0011 F       1  UNL1       -0.1659
     27 F           4.2224   73.5640   30.5124 F       1  UNL1       -0.1659
     28 C          14.2199   85.1229   23.8626 C.3     1  UNL1        0.1535
     29 C          14.5788   85.1516   22.4017 C.2     1  UNL1        0.2443
     30 O          15.7660   84.9051   22.0558 O.2     1  UNL1       -0.2730
     31 N          13.5721   85.4214   21.4116 N.am    1  UNL1       -0.2825
     32 H          12.5700   85.3405   21.6970 H       1  UNL1        0.1549
     33 C          13.8559   85.6927   20.0288 C.ar    1  UNL1        0.0535
     34 C          14.2742   84.6478   19.1935 C.ar    1  UNL1        0.0353
     35 C          14.5286   84.9010   17.8436 C.ar    1  UNL1        0.1002
     36 N          14.3547   86.1513   17.3397 N.ar    1  UNL1       -0.2422
     37 C          13.9308   87.1804   18.1200 C.ar    1  UNL1        0.1002
     38 C          13.6662   86.9706   19.4757 C.ar    1  UNL1        0.0353
     39 C          13.6767   86.4950   24.3022 C.3     1  UNL1        0.0569
     40 C          14.4880   87.0658   25.4317 C.ar    1  UNL1       -0.0012
     41 C          14.3191   86.7335   26.7719 C.ar    1  UNL1        0.0681
     42 N          15.2498   87.3440   27.5333 N.ar    1  UNL1       -0.3522
     43 C          16.0144   88.0556   26.6892 C.ar    1  UNL1        0.0568
     44 C          17.1148   88.8393   27.0300 C.ar    1  UNL1        0.0170
     45 C          17.7980   89.5018   25.9995 C.ar    1  UNL1        0.0020
     46 C          17.3734   89.3703   24.6623 C.ar    1  UNL1        0.0060
     47 C          16.2595   88.5731   24.3347 C.ar    1  UNL1        0.0226
     48 S          15.7567   88.4568   22.6178 S.3     1  UNL1       -0.1414
     49 C          15.5901   87.9167   25.3853 C.ar    1  UNL1        0.0185
     50 H          15.3583   87.2648   28.5690 H       1  UNL1        0.1660
     51 H          14.8907   89.5591   22.7418 H       1  UNL1        0.1071
@<TRIPOS>BOND
     1     1     2    2
     2     2     3   am
     3     3    28    1
     4    28    39    1
     5    39    40    1
     6    40    41   ar
     7    41    42   ar
     8    42    43   ar
     9    43    44   ar
    10    44    45   ar
    11    45    46   ar
    12    46    47   ar
    13    47    48    1
    14    47    49   ar
    15    28    29    1
    16    29    30    2
    17    29    31   am
    18    31    33    1
    19    33    34   ar
    20    34    35   ar
    21    35    36   ar
    22    36    37   ar
    23    37    38   ar
    24     2     5    1
    25     5     6   ar
    26     6     7   ar
    27     7     8   ar
    28     8    12    1
    29    12    13    1
    30    13    14    1
    31    14    15    1
    32    15    18    1
    33    18    19   ar
    34    19    20   ar
    35    20    21   ar
    36    21    22   ar
    37    22    24    1
    38    24    25    1
    39    24    26    1
    40    24    27    1
    41    22    23   ar
    42    15    16    1
    43    16    17    1
    44     8     9   ar
    45     9    10   ar
    46    10    11    1
    47    49    40   ar
    48    38    33   ar
    49    10     5   ar
    50    49    43   ar
    51    17    12    1
    52    23    18   ar
    53     3     4    1
    54    42    50    1
    55    48    51    1
    56    31    32    1
@<TRIPOS>MOLECULE
*****
 51 56 0 0 0
SMALL
GASTEIGER

@<TRIPOS>ATOM
      1 O           9.8836   77.0865   25.1429 O.2     1  UNL1       -0.2701
      2 C           9.7811   78.0386   24.3214 C.2     1  UNL1        0.2483
      3 N           8.8519   77.9421   23.2307 N.am    1  UNL1       -0.2945
      4 H           8.5889   78.8141   22.7179 H       1  UNL1        0.1501
      5 C          10.5994   79.2563   24.5168 C.ar    1  UNL1        0.0808
      6 C           9.9660   80.4994   24.6747 C.ar    1  UNL1        0.0080
      7 C          10.7176   81.6628   24.8556 C.ar    1  UNL1        0.0148
      8 C          12.1219   81.6092   24.8924 C.ar    1  UNL1        0.0502
      9 C          12.7545   80.3611   24.7556 C.ar    1  UNL1        0.0443
     10 C          12.0047   79.1951   24.5723 C.ar    1  UNL1        0.1457
     11 F          12.6564   78.0074   24.4975 F       1  UNL1       -0.2040
     12 N          12.9008   82.8117   25.0835 N.pl3   1  UNL1       -0.3040
     13 C          13.8233   82.9222   26.2230 C.3     1  UNL1        0.1122
     14 C          13.9577   84.3797   26.6753 C.3     1  UNL1        0.1122
     15 N          14.2748   85.2691   25.5469 N.pl3   1  UNL1       -0.3041
     16 C          14.0567   84.8103   24.1673 C.3     1  UNL1        0.1122
     17 C          12.8339   83.8913   24.0860 C.3     1  UNL1        0.1122
     18 C          14.8783   86.5580   25.7988 C.ar    1  UNL1        0.0479
     19 C          14.3835   87.3901   26.8185 C.ar    1  UNL1        0.0145
     20 C          14.9575   88.6407   27.0531 C.ar    1  UNL1        0.0012
     21 C          16.0385   89.0740   26.2841 C.ar    1  UNL1        0.0039
     22 C          16.5721   88.2484   25.2807 C.ar    1  UNL1        0.0726
     23 C          15.9717   87.0015   25.0300 C.ar    1  UNL1        0.0184
     24 C          17.7123   88.7308   24.4189 C.3     1  UNL1        0.4186
     25 F          18.5879   89.5060   25.1593 F       1  UNL1       -0.1659
     26 F          18.3937   87.6393   23.9136 F       1  UNL1       -0.1659
     27 F          17.2431   89.4963   23.3653 F       1  UNL1       -0.1659
     28 C           8.1328   76.7003   22.9306 C.3     1  UNL1        0.1535
     29 C           6.6491   76.9475   22.9706 C.2     1  UNL1        0.2443
     30 O           6.1055   77.5779   22.0235 O.2     1  UNL1       -0.2730
     31 N           5.8572   76.4395   24.0575 N.am    1  UNL1       -0.2825
     32 H           6.2748   75.6971   24.6629 H       1  UNL1        0.1549
     33 C           4.4904   76.8127   24.3002 C.ar    1  UNL1        0.0535
     34 C           3.5795   76.8228   23.2350 C.ar    1  UNL1        0.0353
     35 C           2.2449   77.1618   23.4694 C.ar    1  UNL1        0.1002
     36 N           1.8288   77.4637   24.7276 N.ar    1  UNL1       -0.2422
     37 C           2.6839   77.4430   25.7840 C.ar    1  UNL1        0.1002
     38 C           4.0274   77.1104   25.5932 C.ar    1  UNL1        0.0353
     39 C           8.5414   76.1486   21.5523 C.3     1  UNL1        0.0569
     40 C           9.8577   75.4261   21.6231 C.ar    1  UNL1       -0.0012
     41 C          11.1018   76.0391   21.5159 C.ar    1  UNL1        0.0681
     42 N          12.0909   75.1420   21.7041 N.ar    1  UNL1       -0.3522
     43 C          11.4879   73.9650   21.9378 C.ar    1  UNL1        0.0568
     44 C          12.1175   72.7506   22.2022 C.ar    1  UNL1        0.0170
     45 C          11.3118   71.6261   22.4343 C.ar    1  UNL1        0.0020
     46 C           9.9074   71.7348   22.3982 C.ar    1  UNL1        0.0060
     47 C           9.2867   72.9705   22.1306 C.ar    1  UNL1        0.0226
     48 S           7.4960   73.0439   22.0819 S.3     1  UNL1       -0.1414
     49 C          10.1154   74.0856   21.9019 C.ar    1  UNL1        0.0185
     50 H          13.1176   75.3323   21.6847 H       1  UNL1        0.1660
     51 H           7.4696   72.7684   20.7021 H       1  UNL1        0.1071
@<TRIPOS>BOND
     1     1     2    2
     2     2     3   am
     3     3    28    1
     4    28    39    1
     5    39    40    1
     6    40    41   ar
     7    41    42   ar
     8    42    43   ar
     9    43    44   ar
    10    44    45   ar
    11    45    46   ar
    12    46    47   ar
    13    47    48    1
    14    47    49   ar
    15    28    29    1
    16    29    30    2
    17    29    31   am
    18    31    33    1
    19    33    34   ar
    20    34    35   ar
    21    35    36   ar
    22    36    37   ar
    23    37    38   ar
    24     2     5    1
    25     5     6   ar
    26     6     7   ar
    27     7     8   ar
    28     8    12    1
    29    12    13    1
    30    13    14    1
    31    14    15    1
    32    15    18    1
    33    18    19   ar
    34    19    20   ar
    35    20    21   ar
    36    21    22   ar
    37    22    24    1
    38    24    25    1
    39    24    26    1
    40    24    27    1
    41    22    23   ar
    42    15    16    1
    43    16    17    1
    44     8     9   ar
    45     9    10   ar
    46    10    11    1
    47    49    40   ar
    48    38    33   ar
    49    10     5   ar
    50    49    43   ar
    51    17    12    1
    52    23    18   ar
    53     3     4    1
    54    42    50    1
    55    48    51    1
    56    31    32    1
@<TRIPOS>MOLECULE
*****
 51 56 0 0 0
SMALL
GASTEIGER

@<TRIPOS>ATOM
      1 O           9.6605   77.0769   25.1605 O.2     1  UNL1       -0.2701
      2 C           9.5792   78.0235   24.3303 C.2     1  UNL1        0.2483
      3 N           8.6457   77.9393   23.2424 N.am    1  UNL1       -0.2945
      4 H           8.4027   78.8126   22.7219 H       1  UNL1        0.1501
      5 C          10.4272   79.2228   24.5127 C.ar    1  UNL1        0.0808
      6 C           9.8365   80.4966   24.5099 C.ar    1  UNL1        0.0080
      7 C          10.6172   81.6431   24.6754 C.ar    1  UNL1        0.0148
      8 C          12.0075   81.5421   24.8574 C.ar    1  UNL1        0.0502
      9 C          12.5951   80.2651   24.8813 C.ar    1  UNL1        0.0443
     10 C          11.8163   79.1158   24.7139 C.ar    1  UNL1        0.1457
     11 F          12.4196   77.9032   24.7967 F       1  UNL1       -0.2040
     12 N          12.8160   82.7274   25.0327 N.pl3   1  UNL1       -0.3040
     13 C          13.7360   82.8329   26.1747 C.3     1  UNL1        0.1122
     14 C          13.9056   84.2936   26.6040 C.3     1  UNL1        0.1122
     15 N          14.2503   85.1561   25.4629 N.pl3   1  UNL1       -0.3041
     16 C          14.0267   84.6806   24.0898 C.3     1  UNL1        0.1122
     17 C          12.7811   83.7918   24.0175 C.3     1  UNL1        0.1122
     18 C          14.8854   86.4332   25.6967 C.ar    1  UNL1        0.0479
     19 C          14.5474   87.2019   26.8245 C.ar    1  UNL1        0.0145
     20 C          15.1508   88.4414   27.0435 C.ar    1  UNL1        0.0012
     21 C          16.1066   88.9263   26.1496 C.ar    1  UNL1        0.0039
     22 C          16.4854   88.1634   25.0325 C.ar    1  UNL1        0.0726
     23 C          15.8536   86.9283   24.8018 C.ar    1  UNL1        0.0184
     24 C          17.4862   88.7030   24.0412 C.3     1  UNL1        0.4186
     25 F          16.8501   89.4509   23.0655 F       1  UNL1       -0.1659
     26 F          18.3948   89.5067   24.7040 F       1  UNL1       -0.1659
     27 F          18.1674   87.6712   23.4186 F       1  UNL1       -0.1659
     28 C           7.8960   76.7126   22.9553 C.3     1  UNL1        0.1535
     29 C           6.4319   77.0302   22.8153 C.2     1  UNL1        0.2443
     30 O           6.0503   77.7605   21.8608 O.2     1  UNL1       -0.2730
     31 N           5.4775   76.4781   23.7376 N.am    1  UNL1       -0.2825
     32 H           5.7777   75.6699   24.3281 H       1  UNL1        0.1549
     33 C           4.1058   76.8993   23.8241 C.ar    1  UNL1        0.0535
     34 C           3.3395   76.9950   22.6545 C.ar    1  UNL1        0.0353
     35 C           1.9994   77.3810   22.7353 C.ar    1  UNL1        0.1002
     36 N           1.4377   77.6457   23.9443 N.ar    1  UNL1       -0.2422
     37 C           2.1495   77.5421   25.0977 C.ar    1  UNL1        0.1002
     38 C           3.4930   77.1603   25.0615 C.ar    1  UNL1        0.0353
     39 C           8.4172   76.0381   21.6730 C.3     1  UNL1        0.0569
     40 C           8.6439   74.5672   21.8846 C.ar    1  UNL1       -0.0012
     41 C           7.6470   73.5986   21.8301 C.ar    1  UNL1        0.0681
     42 N           8.1741   72.3659   21.9760 N.ar    1  UNL1       -0.3522
     43 C           9.4985   72.5404   22.1150 C.ar    1  UNL1        0.0568
     44 C          10.4524   71.5383   22.2791 C.ar    1  UNL1        0.0170
     45 C          11.7972   71.9199   22.3958 C.ar    1  UNL1        0.0020
     46 C          12.1596   73.2807   22.3468 C.ar    1  UNL1        0.0060
     47 C          11.1826   74.2813   22.1793 C.ar    1  UNL1        0.0226
     48 S          11.7023   75.9967   22.1405 S.3     1  UNL1       -0.1414
     49 C           9.8396   73.8747   22.0631 C.ar    1  UNL1        0.0185
     50 H           7.6543   71.4602   21.9677 H       1  UNL1        0.1660
     51 H          11.5520   76.1286   23.5336 H       1  UNL1        0.1071
@<TRIPOS>BOND
     1     1     2    2
     2     2     3   am
     3     3    28    1
     4    28    39    1
     5    39    40    1
     6    40    41   ar
     7    41    42   ar
     8    42    43   ar
     9    43    44   ar
    10    44    45   ar
    11    45    46   ar
    12    46    47   ar
    13    47    48    1
    14    47    49   ar
    15    28    29    1
    16    29    30    2
    17    29    31   am
    18    31    33    1
    19    33    34   ar
    20    34    35   ar
    21    35    36   ar
    22    36    37   ar
    23    37    38   ar
    24     2     5    1
    25     5     6   ar
    26     6     7   ar
    27     7     8   ar
    28     8    12    1
    29    12    13    1
    30    13    14    1
    31    14    15    1
    32    15    18    1
    33    18    19   ar
    34    19    20   ar
    35    20    21   ar
    36    21    22   ar
    37    22    24    1
    38    24    25    1
    39    24    26    1
    40    24    27    1
    41    22    23   ar
    42    15    16    1
    43    16    17    1
    44     8     9   ar
    45     9    10   ar
    46    10    11    1
    47    49    40   ar
    48    38    33   ar
    49    10     5   ar
    50    49    43   ar
    51    17    12    1
    52    23    18   ar
    53     3     4    1
    54    42    50    1
    55    48    51    1
    56    31    32    1
@<TRIPOS>MOLECULE
*****
 51 56 0 0 0
SMALL
GASTEIGER

@<TRIPOS>ATOM
      1 O          14.3625   83.5589   23.4423 O.2     1  UNL1       -0.2701
      2 C          13.2654   83.6597   24.0572 C.2     1  UNL1        0.2483
      3 N          12.6411   84.9456   24.1952 N.am    1  UNL1       -0.2945
      4 H          11.6333   84.9865   24.4696 H       1  UNL1        0.1501
      5 C          12.6226   82.4411   24.5980 C.ar    1  UNL1        0.0808
      6 C          11.2296   82.4108   24.7716 C.ar    1  UNL1        0.0080
      7 C          10.6013   81.2736   25.2849 C.ar    1  UNL1        0.0148
      8 C          11.3511   80.1351   25.6282 C.ar    1  UNL1        0.0502
      9 C          12.7434   80.1589   25.4340 C.ar    1  UNL1        0.0443
     10 C          13.3752   81.2965   24.9222 C.ar    1  UNL1        0.1457
     11 F          14.7136   81.2544   24.7030 F       1  UNL1       -0.2040
     12 N          10.7019   78.9563   26.1557 N.pl3   1  UNL1       -0.3040
     13 C           9.2408   78.9261   26.3167 C.3     1  UNL1        0.1122
     14 C           8.8405   78.0208   27.4858 C.3     1  UNL1        0.1122
     15 N           9.4692   76.6946   27.3829 N.pl3   1  UNL1       -0.3041
     16 C          10.6238   76.4969   26.4944 C.3     1  UNL1        0.1122
     17 C          11.4978   77.7541   26.4494 C.3     1  UNL1        0.1122
     18 C           8.8956   75.5732   28.0918 C.ar    1  UNL1        0.0479
     19 C           9.6261   74.9164   29.0977 C.ar    1  UNL1        0.0145
     20 C           9.0775   73.8249   29.7733 C.ar    1  UNL1        0.0012
     21 C           7.7909   73.3808   29.4646 C.ar    1  UNL1        0.0039
     22 C           7.0281   74.0397   28.4863 C.ar    1  UNL1        0.0726
     23 C           7.5967   75.1209   27.7893 C.ar    1  UNL1        0.0184
     24 C           5.6543   73.5362   28.1197 C.3     1  UNL1        0.4186
     25 F           4.8516   73.4494   29.2441 F       1  UNL1       -0.1659
     26 F           5.0750   74.4103   27.2190 F       1  UNL1       -0.1659
     27 F           5.7282   72.2794   27.5441 F       1  UNL1       -0.1659
     28 C          13.3166   86.1838   23.7955 C.3     1  UNL1        0.1535
     29 C          14.4240   86.4968   24.7649 C.2     1  UNL1        0.2443
     30 O          14.4851   85.8630   25.8532 O.2     1  UNL1       -0.2730
     31 N          15.4195   87.4808   24.4373 N.am    1  UNL1       -0.2825
     32 H          15.5071   87.7755   23.4386 H       1  UNL1        0.1549
     33 C          16.3707   88.0069   25.3779 C.ar    1  UNL1        0.0535
     34 C          17.7284   88.0512   25.0327 C.ar    1  UNL1        0.0353
     35 C          18.6540   88.5832   25.9336 C.ar    1  UNL1        0.1002
     36 N          18.2369   89.0707   27.1317 N.ar    1  UNL1       -0.2422
     37 C          16.9248   89.0599   27.4866 C.ar    1  UNL1        0.1002
     38 C          15.9664   88.5357   26.6155 C.ar    1  UNL1        0.0353
     39 C          13.8798   86.0655   22.3673 C.3     1  UNL1        0.0569
     40 C          13.2490   87.0734   21.4476 C.ar    1  UNL1       -0.0012
     41 C          12.4897   88.1602   21.8687 C.ar    1  UNL1        0.0681
     42 N          12.1344   88.9269   20.8176 N.ar    1  UNL1       -0.3522
     43 C          12.6672   88.3423   19.7322 C.ar    1  UNL1        0.0568
     44 C          12.5713   88.7943   18.4178 C.ar    1  UNL1        0.0170
     45 C          13.2097   88.0492   17.4154 C.ar    1  UNL1        0.0020
     46 C          13.9241   86.8793   17.7415 C.ar    1  UNL1        0.0060
     47 C          14.0123   86.4367   19.0757 C.ar    1  UNL1        0.0226
     48 S          14.9217   84.9323   19.4275 S.3     1  UNL1       -0.1414
     49 C          13.3646   87.2011   20.0651 C.ar    1  UNL1        0.0185
     50 H          11.5701   89.8050   20.8486 H       1  UNL1        0.1660
     51 H          13.7703   84.1378   19.2739 H       1  UNL1        0.1071
@<TRIPOS>BOND
     1     1     2    2
     2     2     3   am
     3     3    28    1
     4    28    39    1
     5    39    40    1
     6    40    41   ar
     7    41    42   ar
     8    42    43   ar
     9    43    44   ar
    10    44    45   ar
    11    45    46   ar
    12    46    47   ar
    13    47    48    1
    14    47    49   ar
    15    28    29    1
    16    29    30    2
    17    29    31   am
    18    31    33    1
    19    33    34   ar
    20    34    35   ar
    21    35    36   ar
    22    36    37   ar
    23    37    38   ar
    24     2     5    1
    25     5     6   ar
    26     6     7   ar
    27     7     8   ar
    28     8    12    1
    29    12    13    1
    30    13    14    1
    31    14    15    1
    32    15    18    1
    33    18    19   ar
    34    19    20   ar
    35    20    21   ar
    36    21    22   ar
    37    22    24    1
    38    24    25    1
    39    24    26    1
    40    24    27    1
    41    22    23   ar
    42    15    16    1
    43    16    17    1
    44     8     9   ar
    45     9    10   ar
    46    10    11    1
    47    49    40   ar
    48    38    33   ar
    49    10     5   ar
    50    49    43   ar
    51    17    12    1
    52    23    18   ar
    53     3     4    1
    54    42    50    1
    55    48    51    1
    56    31    32    1
@<TRIPOS>MOLECULE
*****
 51 56 0 0 0
SMALL
GASTEIGER

@<TRIPOS>ATOM
      1 O          10.6744   76.9733   25.5051 O.2     1  UNL1       -0.2701
      2 C          10.1791   78.0125   24.9888 C.2     1  UNL1        0.2483
      3 N           8.8676   77.9633   24.4058 N.am    1  UNL1       -0.2945
      4 H           8.3687   78.8624   24.2178 H       1  UNL1        0.1501
      5 C          10.9481   79.2767   25.0235 C.ar    1  UNL1        0.0808
      6 C          10.2977   80.4749   25.3592 C.ar    1  UNL1        0.0080
      7 C          11.0018   81.6809   25.3937 C.ar    1  UNL1        0.0148
      8 C          12.3766   81.7156   25.1023 C.ar    1  UNL1        0.0502
      9 C          13.0314   80.5120   24.7871 C.ar    1  UNL1        0.0443
     10 C          12.3287   79.3036   24.7498 C.ar    1  UNL1        0.1457
     11 F          13.0130   78.1607   24.4923 F       1  UNL1       -0.2040
     12 N          13.1073   82.9622   25.1415 N.pl3   1  UNL1       -0.3040
     13 C          13.9766   83.2744   26.2854 C.3     1  UNL1        0.1122
     14 C          14.0443   84.7865   26.5210 C.3     1  UNL1        0.1122
     15 N          14.3799   85.5119   25.2856 N.pl3   1  UNL1       -0.3041
     16 C          14.2355   84.8472   23.9823 C.3     1  UNL1        0.1122
     17 C          13.0477   83.8799   23.9930 C.3     1  UNL1        0.1122
     18 C          14.9300   86.8460   25.3656 C.ar    1  UNL1        0.0479
     19 C          14.2405   87.8618   26.0509 C.ar    1  UNL1        0.0145
     20 C          14.7650   89.1537   26.1168 C.ar    1  UNL1        0.0012
     21 C          15.9878   89.4482   25.5118 C.ar    1  UNL1        0.0039
     22 C          16.7118   88.4438   24.8486 C.ar    1  UNL1        0.0726
     23 C          16.1649   87.1510   24.7611 C.ar    1  UNL1        0.0184
     24 C          18.0124   88.7681   24.1566 C.3     1  UNL1        0.4186
     25 F          18.8355   89.5069   24.9888 F       1  UNL1       -0.1659
     26 F          18.6533   87.5909   23.8185 F       1  UNL1       -0.1659
     27 F          17.7875   89.5051   23.0066 F       1  UNL1       -0.1659
     28 C           8.1420   76.7014   24.2315 C.3     1  UNL1        0.1535
     29 C           8.9350   75.7742   23.3509 C.2     1  UNL1        0.2443
     30 O           8.9093   75.9420   22.1014 O.2     1  UNL1       -0.2730
     31 N           9.7396   74.7334   23.9303 N.am    1  UNL1       -0.2825
     32 H           9.9624   74.7961   24.9494 H       1  UNL1        0.1549
     33 C          10.3433   73.6690   23.1760 C.ar    1  UNL1        0.0535
     34 C           9.5439   72.6172   22.7077 C.ar    1  UNL1        0.0353
     35 C          10.1212   71.5924   21.9541 C.ar    1  UNL1        0.1002
     36 N          11.4482   71.6248   21.6625 N.ar    1  UNL1       -0.2422
     37 C          12.2452   72.6416   22.0853 C.ar    1  UNL1        0.1002
     38 C          11.7083   73.6858   22.8426 C.ar    1  UNL1        0.0353
     39 C           7.8664   76.0343   25.5916 C.3     1  UNL1        0.0569
     40 C           6.5020   76.3954   26.1091 C.ar    1  UNL1       -0.0012
     41 C           5.3095   76.1312   25.4433 C.ar    1  UNL1        0.0681
     42 N           4.2533   76.4966   26.1981 N.ar    1  UNL1       -0.3522
     43 C           4.7623   76.9837   27.3414 C.ar    1  UNL1        0.0568
     44 C           4.0388   77.4692   28.4286 C.ar    1  UNL1        0.0170
     45 C           4.7534   77.9271   29.5455 C.ar    1  UNL1        0.0020
     46 C           6.1620   77.8917   29.5549 C.ar    1  UNL1        0.0060
     47 C           6.8782   77.3965   28.4478 C.ar    1  UNL1        0.0226
     48 S           8.6698   77.3912   28.5115 S.3     1  UNL1       -0.1414
     49 C           6.1399   76.9413   27.3386 C.ar    1  UNL1        0.0185
     50 H           3.2442   76.4042   25.9452 H       1  UNL1        0.1660
     51 H           8.7464   78.6771   27.9449 H       1  UNL1        0.1071
@<TRIPOS>BOND
     1     1     2    2
     2     2     3   am
     3     3    28    1
     4    28    39    1
     5    39    40    1
     6    40    41   ar
     7    41    42   ar
     8    42    43   ar
     9    43    44   ar
    10    44    45   ar
    11    45    46   ar
    12    46    47   ar
    13    47    48    1
    14    47    49   ar
    15    28    29    1
    16    29    30    2
    17    29    31   am
    18    31    33    1
    19    33    34   ar
    20    34    35   ar
    21    35    36   ar
    22    36    37   ar
    23    37    38   ar
    24     2     5    1
    25     5     6   ar
    26     6     7   ar
    27     7     8   ar
    28     8    12    1
    29    12    13    1
    30    13    14    1
    31    14    15    1
    32    15    18    1
    33    18    19   ar
    34    19    20   ar
    35    20    21   ar
    36    21    22   ar
    37    22    24    1
    38    24    25    1
    39    24    26    1
    40    24    27    1
    41    22    23   ar
    42    15    16    1
    43    16    17    1
    44     8     9   ar
    45     9    10   ar
    46    10    11    1
    47    49    40   ar
    48    38    33   ar
    49    10     5   ar
    50    49    43   ar
    51    17    12    1
    52    23    18   ar
    53     3     4    1
    54    42    50    1
    55    48    51    1
    56    31    32    1
@<TRIPOS>MOLECULE
*****
 51 56 0 0 0
SMALL
GASTEIGER

@<TRIPOS>ATOM
      1 O          10.1061   76.3376   25.5487 O.2     1  UNL1       -0.2701
      2 C           9.7475   77.3322   24.8602 C.2     1  UNL1        0.2483
      3 N           8.5712   77.2452   24.0409 N.am    1  UNL1       -0.2945
      4 H           8.1423   78.1292   23.6845 H       1  UNL1        0.1501
      5 C          10.5298   78.5863   24.9355 C.ar    1  UNL1        0.0808
      6 C           9.8847   79.7866   25.2742 C.ar    1  UNL1        0.0080
      7 C          10.6014   80.9834   25.3467 C.ar    1  UNL1        0.0148
      8 C          11.9836   81.0066   25.0913 C.ar    1  UNL1        0.0502
      9 C          12.6325   79.8005   24.7731 C.ar    1  UNL1        0.0443
     10 C          11.9172   78.6013   24.6978 C.ar    1  UNL1        0.1457
     11 F          12.5948   77.4546   24.4390 F       1  UNL1       -0.2040
     12 N          12.7272   82.2435   25.1699 N.pl3   1  UNL1       -0.3040
     13 C          13.6705   82.4706   26.2745 C.3     1  UNL1        0.1122
     14 C          13.7677   83.9623   26.6095 C.3     1  UNL1        0.1122
     15 N          14.0309   84.7703   25.4084 N.pl3   1  UNL1       -0.3041
     16 C          13.7975   84.1990   24.0741 C.3     1  UNL1        0.1122
     17 C          12.6035   83.2395   24.0939 C.3     1  UNL1        0.1122
     18 C          14.5978   86.0928   25.5452 C.ar    1  UNL1        0.0479
     19 C          15.1593   86.7463   24.4342 C.ar    1  UNL1        0.0145
     20 C          15.7190   88.0180   24.5688 C.ar    1  UNL1        0.0012
     21 C          15.7164   88.6602   25.8079 C.ar    1  UNL1        0.0039
     22 C          15.1330   88.0423   26.9264 C.ar    1  UNL1        0.0726
     23 C          14.5961   86.7495   26.7910 C.ar    1  UNL1        0.0184
     24 C          15.1668   88.7146   28.2764 C.3     1  UNL1        0.4186
     25 F          15.2002   87.7716   29.2891 F       1  UNL1       -0.1659
     26 F          16.2960   89.5074   28.3614 F       1  UNL1       -0.1659
     27 F          14.0458   89.5058   28.4602 F       1  UNL1       -0.1659
     28 C           7.8583   75.9804   23.8374 C.3     1  UNL1        0.1535
     29 C           6.3986   76.1607   24.1548 C.2     1  UNL1        0.2443
     30 O           5.8851   75.4866   25.0884 O.2     1  UNL1       -0.2730
     31 N           5.6094   77.1159   23.4258 N.am    1  UNL1       -0.2825
     32 H           6.1118   77.8437   22.8691 H       1  UNL1        0.1549
     33 C           4.1760   77.1974   23.4979 C.ar    1  UNL1        0.0535
     34 C           3.5619   77.4569   24.7308 C.ar    1  UNL1        0.0353
     35 C           2.1708   77.5606   24.8024 C.ar    1  UNL1        0.1002
     36 N           1.4183   77.4273   23.6784 N.ar    1  UNL1       -0.2422
     37 C           1.9860   77.1953   22.4653 C.ar    1  UNL1        0.1002
     38 C           3.3739   77.0834   22.3497 C.ar    1  UNL1        0.0353
     39 C           8.0286   75.4809   22.3909 C.3     1  UNL1        0.0569
     40 C           8.5887   74.0863   22.3584 C.ar    1  UNL1       -0.0012
     41 C           7.8375   72.9292   22.5369 C.ar    1  UNL1        0.0681
     42 N           8.6057   71.8337   22.3680 N.ar    1  UNL1       -0.3522
     43 C           9.8372   72.2828   22.0760 C.ar    1  UNL1        0.0568
     44 C          10.9600   71.5031   21.8065 C.ar    1  UNL1        0.0170
     45 C          12.1634   72.1595   21.5086 C.ar    1  UNL1        0.0020
     46 C          12.2216   73.5672   21.4859 C.ar    1  UNL1        0.0060
     47 C          11.0767   74.3407   21.7596 C.ar    1  UNL1        0.0226
     48 S          11.2159   76.1278   21.7315 S.3     1  UNL1       -0.1414
     49 C           9.8799   73.6602   22.0547 C.ar    1  UNL1        0.0185
     50 H           8.2968   70.8385   22.4377 H       1  UNL1        0.1660
     51 H          11.5369   76.1771   23.1008 H       1  UNL1        0.1071
@<TRIPOS>BOND
     1     1     2    2
     2     2     3   am
     3     3    28    1
     4    28    39    1
     5    39    40    1
     6    40    41   ar
     7    41    42   ar
     8    42    43   ar
     9    43    44   ar
    10    44    45   ar
    11    45    46   ar
    12    46    47   ar
    13    47    48    1
    14    47    49   ar
    15    28    29    1
    16    29    30    2
    17    29    31   am
    18    31    33    1
    19    33    34   ar
    20    34    35   ar
    21    35    36   ar
    22    36    37   ar
    23    37    38   ar
    24     2     5    1
    25     5     6   ar
    26     6     7   ar
    27     7     8   ar
    28     8    12    1
    29    12    13    1
    30    13    14    1
    31    14    15    1
    32    15    18    1
    33    18    19   ar
    34    19    20   ar
    35    20    21   ar
    36    21    22   ar
    37    22    24    1
    38    24    25    1
    39    24    26    1
    40    24    27    1
    41    22    23   ar
    42    15    16    1
    43    16    17    1
    44     8     9   ar
    45     9    10   ar
    46    10    11    1
    47    49    40   ar
    48    38    33   ar
    49    10     5   ar
    50    49    43   ar
    51    17    12    1
    52    23    18   ar
    53     3     4    1
    54    42    50    1
    55    48    51    1
    56    31    32    1
@<TRIPOS>MOLECULE
*****
 51 56 0 0 0
SMALL
GASTEIGER

@<TRIPOS>ATOM
      1 O          12.1448   76.7273   24.1742 O.2     1  UNL1       -0.2701
      2 C          11.3135   77.6751   24.2259 C.2     1  UNL1        0.2483
      3 N           9.9101   77.4004   24.0948 N.am    1  UNL1       -0.2945
      4 H           9.2262   78.1333   24.3907 H       1  UNL1        0.1501
      5 C          11.7995   79.0541   24.4554 C.ar    1  UNL1        0.0808
      6 C          13.1419   79.2666   24.8079 C.ar    1  UNL1        0.0080
      7 C          13.6220   80.5588   25.0341 C.ar    1  UNL1        0.0148
      8 C          12.7722   81.6711   24.9037 C.ar    1  UNL1        0.0502
      9 C          11.4336   81.4588   24.5299 C.ar    1  UNL1        0.0443
     10 C          10.9498   80.1663   24.3048 C.ar    1  UNL1        0.1457
     11 F           9.6652   80.0145   23.8950 F       1  UNL1       -0.2040
     12 N          13.2686   83.0090   25.1336 N.pl3   1  UNL1       -0.3040
     13 C          12.9547   84.0875   24.1849 C.3     1  UNL1        0.1122
     14 C          14.0776   85.1291   24.1538 C.3     1  UNL1        0.1122
     15 N          14.4250   85.5905   25.5071 N.pl3   1  UNL1       -0.3041
     16 C          14.0058   84.8083   26.6791 C.3     1  UNL1        0.1122
     17 C          14.0157   83.3090   26.3651 C.3     1  UNL1        0.1122
     18 C          15.1037   86.8547   25.6803 C.ar    1  UNL1        0.0479
     19 C          14.6564   87.7785   26.6412 C.ar    1  UNL1        0.0145
     20 C          15.3035   89.0053   26.7995 C.ar    1  UNL1        0.0012
     21 C          16.4110   89.3232   26.0118 C.ar    1  UNL1        0.0039
     22 C          16.8973   88.4045   25.0670 C.ar    1  UNL1        0.0726
     23 C          16.2242   87.1821   24.8924 C.ar    1  UNL1        0.0184
     24 C          18.0671   88.7619   24.1842 C.3     1  UNL1        0.4186
     25 F          18.9976   89.5075   24.8872 F       1  UNL1       -0.1659
     26 F          18.6676   87.6013   23.7333 F       1  UNL1       -0.1659
     27 F          17.6514   89.5070   23.0941 F       1  UNL1       -0.1659
     28 C           9.4096   76.0718   23.7289 C.3     1  UNL1        0.1535
     29 C           8.0313   75.8712   24.2982 C.2     1  UNL1        0.2443
     30 O           7.7064   74.7337   24.7346 O.2     1  UNL1       -0.2730
     31 N           7.1103   76.9722   24.3759 N.am    1  UNL1       -0.2825
     32 H           7.4931   77.9394   24.2752 H       1  UNL1        0.1549
     33 C           5.7138   76.8326   24.6871 C.ar    1  UNL1        0.0535
     34 C           4.7926   76.6396   23.6486 C.ar    1  UNL1        0.0353
     35 C           3.4374   76.4797   23.9471 C.ar    1  UNL1        0.1002
     36 N           3.0175   76.4942   25.2397 N.ar    1  UNL1       -0.2422
     37 C           3.8893   76.6592   26.2694 C.ar    1  UNL1        0.1002
     38 C           5.2532   76.8238   26.0147 C.ar    1  UNL1        0.0353
     39 C           9.3820   75.8976   22.1993 C.3     1  UNL1        0.0569
     40 C           8.4412   76.8780   21.5562 C.ar    1  UNL1       -0.0012
     41 C           8.6936   78.2387   21.4155 C.ar    1  UNL1        0.0681
     42 N           7.7020   78.8364   20.7239 N.ar    1  UNL1       -0.3522
     43 C           6.8246   77.8672   20.4164 C.ar    1  UNL1        0.0568
     44 C           5.6450   78.0187   19.6906 C.ar    1  UNL1        0.0170
     45 C           4.8611   76.8786   19.4596 C.ar    1  UNL1        0.0020
     46 C           5.2662   75.6223   19.9528 C.ar    1  UNL1        0.0060
     47 C           6.4624   75.4863   20.6838 C.ar    1  UNL1        0.0226
     48 S           6.9177   73.8653   21.2995 S.3     1  UNL1       -0.1414
     49 C           7.2335   76.6440   20.9023 C.ar    1  UNL1        0.0185
     50 H           7.6405   79.8474   20.4695 H       1  UNL1        0.1660
     51 H           6.2379   74.0773   22.5134 H       1  UNL1        0.1071
@<TRIPOS>BOND
     1     1     2    2
     2     2     3   am
     3     3    28    1
     4    28    39    1
     5    39    40    1
     6    40    41   ar
     7    41    42   ar
     8    42    43   ar
     9    43    44   ar
    10    44    45   ar
    11    45    46   ar
    12    46    47   ar
    13    47    48    1
    14    47    49   ar
    15    28    29    1
    16    29    30    2
    17    29    31   am
    18    31    33    1
    19    33    34   ar
    20    34    35   ar
    21    35    36   ar
    22    36    37   ar
    23    37    38   ar
    24     2     5    1
    25     5     6   ar
    26     6     7   ar
    27     7     8   ar
    28     8    12    1
    29    12    13    1
    30    13    14    1
    31    14    15    1
    32    15    18    1
    33    18    19   ar
    34    19    20   ar
    35    20    21   ar
    36    21    22   ar
    37    22    24    1
    38    24    25    1
    39    24    26    1
    40    24    27    1
    41    22    23   ar
    42    15    16    1
    43    16    17    1
    44     8     9   ar
    45     9    10   ar
    46    10    11    1
    47    49    40   ar
    48    38    33   ar
    49    10     5   ar
    50    49    43   ar
    51    17    12    1
    52    23    18   ar
    53     3     4    1
    54    42    50    1
    55    48    51    1
    56    31    32    1
@<TRIPOS>MOLECULE
*****
 51 56 0 0 0
SMALL
GASTEIGER

@<TRIPOS>ATOM
      1 O          10.3262   77.7046   25.9716 O.2     1  UNL1       -0.2701
      2 C           9.1355   77.6248   26.3810 C.2     1  UNL1        0.2483
      3 N           8.8259   77.9601   27.7426 N.am    1  UNL1       -0.2945
      4 H           7.8288   78.1391   28.0003 H       1  UNL1        0.1501
      5 C           8.0701   77.2177   25.4377 C.ar    1  UNL1        0.0808
      6 C           8.3620   77.1043   24.0690 C.ar    1  UNL1        0.0080
      7 C           7.3715   76.7264   23.1594 C.ar    1  UNL1        0.0148
      8 C           6.0665   76.4433   23.5989 C.ar    1  UNL1        0.0502
      9 C           5.7807   76.5364   24.9723 C.ar    1  UNL1        0.0443
     10 C           6.7697   76.9165   25.8849 C.ar    1  UNL1        0.1457
     11 F           6.4611   76.9418   27.2059 F       1  UNL1       -0.2040
     12 N           5.0416   76.0483   22.6593 N.pl3   1  UNL1       -0.3040
     13 C           4.0243   77.0164   22.2241 C.3     1  UNL1        0.1122
     14 C           2.7075   76.3089   21.8892 C.3     1  UNL1        0.1122
     15 N           2.9171   75.1872   20.9605 N.pl3   1  UNL1       -0.3041
     16 C           4.2662   74.6350   20.7695 C.3     1  UNL1        0.1122
     17 C           5.0703   74.6996   22.0718 C.3     1  UNL1        0.1122
     18 C           1.8091   74.6894   20.1772 C.ar    1  UNL1        0.0479
     19 C           1.2022   75.5019   19.2033 C.ar    1  UNL1        0.0145
     20 C           0.1234   75.0262   18.4561 C.ar    1  UNL1        0.0012
     21 C          -0.3575   73.7320   18.6603 C.ar    1  UNL1        0.0039
     22 C           0.2516   72.8890   19.6045 C.ar    1  UNL1        0.0726
     23 C           1.3199   73.3835   20.3741 C.ar    1  UNL1        0.0184
     24 C          -0.2924   71.5052   19.8584 C.3     1  UNL1        0.4186
     25 F          -1.2169   71.5271   20.8884 F       1  UNL1       -0.1659
     26 F          -0.9074   71.0408   18.7108 F       1  UNL1       -0.1659
     27 F           0.7241   70.6335   20.2092 F       1  UNL1       -0.1659
     28 C           9.8723   78.2303   28.7332 C.3     1  UNL1        0.1535
     29 C           9.7395   79.6392   29.2444 C.2     1  UNL1        0.2443
     30 O           9.9941   80.6006   28.4692 O.2     1  UNL1       -0.2730
     31 N           9.2933   79.8851   30.5886 N.am    1  UNL1       -0.2825
     32 H           8.8280   79.1024   31.1014 H       1  UNL1        0.1549
     33 C           9.3523   81.1683   31.2339 C.ar    1  UNL1        0.0535
     34 C           8.9123   81.2940   32.5587 C.ar    1  UNL1        0.0353
     35 C           8.9894   82.5334   33.1983 C.ar    1  UNL1        0.1002
     36 N           9.5045   83.6076   32.5441 N.ar    1  UNL1       -0.2422
     37 C           9.9578   83.5124   31.2661 C.ar    1  UNL1        0.1002
     38 C           9.8979   82.2915   30.5893 C.ar    1  UNL1        0.0353
     39 C           9.7919   77.2321   29.9028 C.3     1  UNL1        0.0569
     40 C           8.9594   76.0340   29.5404 C.ar    1  UNL1       -0.0012
     41 C           9.4403   74.9098   28.8771 C.ar    1  UNL1        0.0681
     42 N           8.4767   73.9721   28.7722 N.ar    1  UNL1       -0.3522
     43 C           7.3892   74.4860   29.3694 C.ar    1  UNL1        0.0568
     44 C           6.1522   73.8617   29.5149 C.ar    1  UNL1        0.0170
     45 C           5.1354   74.5592   30.1837 C.ar    1  UNL1        0.0020
     46 C           5.3711   75.8532   30.6892 C.ar    1  UNL1        0.0060
     47 C           6.6281   76.4696   30.5346 C.ar    1  UNL1        0.0226
     48 S           6.8637   78.1237   31.1848 S.3     1  UNL1       -0.1414
     49 C           7.6337   75.7502   29.8610 C.ar    1  UNL1        0.0185
     50 H           8.5674   73.0317   28.3272 H       1  UNL1        0.1660
     51 H           6.4609   78.7145   29.9726 H       1  UNL1        0.1071
@<TRIPOS>BOND
     1     1     2    2
     2     2     3   am
     3     3    28    1
     4    28    39    1
     5    39    40    1
     6    40    41   ar
     7    41    42   ar
     8    42    43   ar
     9    43    44   ar
    10    44    45   ar
    11    45    46   ar
    12    46    47   ar
    13    47    48    1
    14    47    49   ar
    15    28    29    1
    16    29    30    2
    17    29    31   am
    18    31    33    1
    19    33    34   ar
    20    34    35   ar
    21    35    36   ar
    22    36    37   ar
    23    37    38   ar
    24     2     5    1
    25     5     6   ar
    26     6     7   ar
    27     7     8   ar
    28     8    12    1
    29    12    13    1
    30    13    14    1
    31    14    15    1
    32    15    18    1
    33    18    19   ar
    34    19    20   ar
    35    20    21   ar
    36    21    22   ar
    37    22    24    1
    38    24    25    1
    39    24    26    1
    40    24    27    1
    41    22    23   ar
    42    15    16    1
    43    16    17    1
    44     8     9   ar
    45     9    10   ar
    46    10    11    1
    47    49    40   ar
    48    38    33   ar
    49    10     5   ar
    50    49    43   ar
    51    17    12    1
    52    23    18   ar
    53     3     4    1
    54    42    50    1
    55    48    51    1
    56    31    32    1
@<TRIPOS>MOLECULE
*****
 51 56 0 0 0
SMALL
GASTEIGER

@<TRIPOS>ATOM
      1 O          10.3460   75.4342   23.6700 O.2     1  UNL1       -0.2701
      2 C           9.4026   76.0975   24.1818 C.2     1  UNL1        0.2483
      3 N           9.6440   76.8935   25.3525 N.am    1  UNL1       -0.2945
      4 H           8.9452   77.6257   25.6134 H       1  UNL1        0.1501
      5 C           8.0672   76.0695   23.5442 C.ar    1  UNL1        0.0808
      6 C           7.9513   76.3146   22.1666 C.ar    1  UNL1        0.0080
      7 C           6.7010   76.2983   21.5439 C.ar    1  UNL1        0.0148
      8 C           5.5366   76.0267   22.2834 C.ar    1  UNL1        0.0502
      9 C           5.6561   75.7604   23.6587 C.ar    1  UNL1        0.0443
     10 C           6.9062   75.7781   24.2851 C.ar    1  UNL1        0.1457
     11 F           6.9782   75.4636   25.6030 F       1  UNL1       -0.2040
     12 N           4.2427   76.0055   21.6396 N.pl3   1  UNL1       -0.3040
     13 C           3.4342   77.2312   21.5636 C.3     1  UNL1        0.1122
     14 C           1.9390   76.8978   21.5606 C.3     1  UNL1        0.1122
     15 N           1.6119   75.8886   20.5411 N.pl3   1  UNL1       -0.3041
     16 C           2.6801   75.0685   19.9514 C.3     1  UNL1        0.1122
     17 C           3.7738   74.7751   20.9830 C.3     1  UNL1        0.1122
     18 C           0.2531   75.7673   20.0638 C.ar    1  UNL1        0.0479
     19 C          -0.7303   76.6862   20.4704 C.ar    1  UNL1        0.0145
     20 C          -2.0457   76.5614   20.0203 C.ar    1  UNL1        0.0012
     21 C          -2.3965   75.5278   19.1505 C.ar    1  UNL1        0.0039
     22 C          -1.4261   74.6157   18.7039 C.ar    1  UNL1        0.0726
     23 C          -0.1087   74.7296   19.1831 C.ar    1  UNL1        0.0184
     24 C          -1.8101   73.4720   17.7984 C.3     1  UNL1        0.4186
     25 F          -1.0781   72.3389   18.1083 F       1  UNL1       -0.1659
     26 F          -3.1554   73.1972   17.9587 F       1  UNL1       -0.1659
     27 F          -1.5702   73.7918   16.4731 F       1  UNL1       -0.1659
     28 C          10.9125   76.8328   26.0850 C.3     1  UNL1        0.1535
     29 C          11.9012   77.7878   25.4732 C.2     1  UNL1        0.2443
     30 O          11.4780   78.8361   24.9147 O.2     1  UNL1       -0.2730
     31 N          13.3121   77.5250   25.5568 N.am    1  UNL1       -0.2825
     32 H          13.6384   76.8181   26.2538 H       1  UNL1        0.1549
     33 C          14.3103   78.2476   24.8166 C.ar    1  UNL1        0.0535
     34 C          14.9186   77.6424   23.7084 C.ar    1  UNL1        0.0353
     35 C          15.8721   78.3487   22.9714 C.ar    1  UNL1        0.1002
     36 N          16.1953   79.6226   23.3178 N.ar    1  UNL1       -0.2422
     37 C          15.6080   80.2434   24.3749 C.ar    1  UNL1        0.1002
     38 C          14.6502   79.5723   25.1394 C.ar    1  UNL1        0.0353
     39 C          10.7035   77.1673   27.5734 C.3     1  UNL1        0.0569
     40 C          10.1052   76.0043   28.3145 C.ar    1  UNL1       -0.0012
     41 C          10.8110   74.8729   28.7105 C.ar    1  UNL1        0.0681
     42 N          10.0215   74.0478   29.4280 N.ar    1  UNL1       -0.3522
     43 C           8.8219   74.6473   29.4989 C.ar    1  UNL1        0.0568
     44 C           7.6933   74.1647   30.1582 C.ar    1  UNL1        0.0170
     45 C           6.5282   74.9453   30.1300 C.ar    1  UNL1        0.0020
     46 C           6.5127   76.1799   29.4510 C.ar    1  UNL1        0.0060
     47 C           7.6629   76.6539   28.7904 C.ar    1  UNL1        0.0226
     48 S           7.5781   78.2244   27.9299 S.3     1  UNL1       -0.1414
     49 C           8.8209   75.8541   28.8331 C.ar    1  UNL1        0.0185
     50 H          10.2966   73.1342   29.8526 H       1  UNL1        0.1660
     51 H           7.1831   77.6053   26.7294 H       1  UNL1        0.1071
@<TRIPOS>BOND
     1     1     2    2
     2     2     3   am
     3     3    28    1
     4    28    39    1
     5    39    40    1
     6    40    41   ar
     7    41    42   ar
     8    42    43   ar
     9    43    44   ar
    10    44    45   ar
    11    45    46   ar
    12    46    47   ar
    13    47    48    1
    14    47    49   ar
    15    28    29    1
    16    29    30    2
    17    29    31   am
    18    31    33    1
    19    33    34   ar
    20    34    35   ar
    21    35    36   ar
    22    36    37   ar
    23    37    38   ar
    24     2     5    1
    25     5     6   ar
    26     6     7   ar
    27     7     8   ar
    28     8    12    1
    29    12    13    1
    30    13    14    1
    31    14    15    1
    32    15    18    1
    33    18    19   ar
    34    19    20   ar
    35    20    21   ar
    36    21    22   ar
    37    22    24    1
    38    24    25    1
    39    24    26    1
    40    24    27    1
    41    22    23   ar
    42    15    16    1
    43    16    17    1
    44     8     9   ar
    45     9    10   ar
    46    10    11    1
    47    49    40   ar
    48    38    33   ar
    49    10     5   ar
    50    49    43   ar
    51    17    12    1
    52    23    18   ar
    53     3     4    1
    54    42    50    1
    55    48    51    1
    56    31    32    1
