@<TRIPOS>MOLECULE
*****
 45 50 0 0 0
SMALL
GASTEIGER

@<TRIPOS>ATOM
      1 C          59.3603   86.3200    7.6367 C.ar    1  UNL1        0.0702
      2 C          60.0738   86.5278    8.8221 C.ar    1  UNL1        0.0191
      3 C          59.8825   85.6843    9.9174 C.ar    1  UNL1        0.0356
      4 C          58.9538   84.6307    9.8320 C.ar    1  UNL1        0.1318
      5 N          58.2530   84.4678    8.6743 N.ar    1  UNL1       -0.2279
      6 C          58.4255   85.2743    7.5942 C.ar    1  UNL1        0.1149
      7 N          58.7329   83.7270   10.9410 N.pl3   1  UNL1       -0.2932
      8 C          59.5140   83.8576   12.1845 C.3     1  UNL1        0.0923
      9 C          59.3769   82.6171   13.0798 C.3     1  UNL1        0.0252
     10 C          59.4600   81.3396   12.2263 C.3     1  UNL1        0.0472
     11 C          58.3303   81.2896   11.1619 C.3     1  UNL1        0.0252
     12 C          57.7169   82.6659   10.8534 C.3     1  UNL1        0.0923
     13 C          59.4433   80.0877   13.1240 C.3     1  UNL1        0.2054
     14 O          60.7687   79.7020   13.4930 O.3     1  UNL1       -0.4755
     15 C          61.9189   80.4968   13.3584 C.ar    1  UNL1        0.1388
     16 C          62.7135   80.8794   14.4557 C.ar    1  UNL1        0.0369
     17 C          63.8458   81.6725   14.2602 C.ar    1  UNL1        0.0033
     18 C          64.2006   82.0889   12.9755 C.ar    1  UNL1        0.0066
     19 C          63.4233   81.7122   11.8667 C.ar    1  UNL1        0.0785
     20 C          62.2845   80.9132   12.0718 C.ar    1  UNL1        0.0433
     21 C          63.7941   82.1482   10.5021 C.2     1  UNL1        0.3381
     22 O          64.6311   81.4900    9.8267 O.2     1  UNL1       -0.2451
     23 O          63.2215   83.2914    9.9503 O.3     1  UNL1       -0.4771
     24 H          63.4686   83.5985    9.0171 H       1  UNL1        0.2954
     25 C          59.8229   88.6165    6.6578 C.2     1  UNL1        0.2839
     26 O          59.6319   89.1923    7.7616 O.2     1  UNL1       -0.2665
     27 N          59.5522   87.2112    6.5244 N.am    1  UNL1       -0.2766
     28 H          59.4119   86.8255    5.5632 H       1  UNL1        0.1553
     29 C          57.9404   90.1664    4.5213 C.3     1  UNL1        0.0345
     30 C          59.4370   90.0393    4.5246 C.ar    1  UNL1        0.0207
     31 C          60.2452   89.3944    5.4745 C.ar    1  UNL1        0.1946
     32 O          61.5159   89.5605    5.1669 O.2     1  UNL1       -0.4492
     33 C          61.5820   90.2567    4.0614 C.ar    1  UNL1        0.1457
     34 C          62.7386   90.6484    3.4007 C.ar    1  UNL1        0.0375
     35 C          62.6052   91.3855    2.2175 C.ar    1  UNL1        0.0036
     36 C          61.3263   91.7090    1.7043 C.ar    1  UNL1        0.0064
     37 C          60.1556   91.3071    2.4054 C.ar    1  UNL1        0.0373
     38 BR         58.4106   91.7788    1.7421 Br      1  UNL1       -0.0489
     39 C          60.3283   90.5765    3.5988 C.ar    1  UNL1        0.0399
     40 C          61.2479   92.4625    0.4352 C.ar    1  UNL1        0.0005
     41 C          60.0100   92.9199   -0.0469 C.ar    1  UNL1        0.0000
     42 C          59.9396   93.6139   -1.2588 C.ar    1  UNL1        0.0000
     43 C          61.1007   93.8470   -2.0010 C.ar    1  UNL1        0.0000
     44 C          62.3338   93.3827   -1.5345 C.ar    1  UNL1        0.0000
     45 C          62.4085   92.6883   -0.3230 C.ar    1  UNL1        0.0000
@<TRIPOS>BOND
     1    29    30    1
     2    30    31   ar
     3    31    25    1
     4    25    26    2
     5    25    27   am
     6    27     1    1
     7     1     2   ar
     8     2     3   ar
     9     3     4   ar
    10     4     7    1
    11     7     8    1
    12     8     9    1
    13     9    10    1
    14    10    13    1
    15    13    14    1
    16    14    15    1
    17    15    16   ar
    18    16    17   ar
    19    17    18   ar
    20    18    19   ar
    21    19    21    1
    22    21    22    2
    23    21    23    1
    24    19    20   ar
    25    10    11    1
    26    11    12    1
    27     4     5   ar
    28     5     6   ar
    29    31    32   ar
    30    32    33   ar
    31    33    34   ar
    32    34    35   ar
    33    35    36   ar
    34    36    40    1
    35    40    41   ar
    36    41    42   ar
    37    42    43   ar
    38    43    44   ar
    39    44    45   ar
    40    36    37   ar
    41    37    38    1
    42    37    39   ar
    43    39    30   ar
    44     6     1   ar
    45    39    33   ar
    46    12     7    1
    47    45    40   ar
    48    20    15   ar
    49    27    28    1
    50    23    24    1
@<TRIPOS>MOLECULE
*****
 45 50 0 0 0
SMALL
GASTEIGER

@<TRIPOS>ATOM
      1 C          59.5933   86.3274    7.7292 C.ar    1  UNL1        0.0702
      2 C          60.7047   85.8898    8.4577 C.ar    1  UNL1        0.0191
      3 C          60.5367   85.0800    9.5819 C.ar    1  UNL1        0.0356
      4 C          59.2407   84.7177    9.9926 C.ar    1  UNL1        0.1318
      5 N          58.1747   85.1801    9.2800 N.ar    1  UNL1       -0.2279
      6 C          58.3145   85.9663    8.1804 C.ar    1  UNL1        0.1149
      7 N          59.0232   83.8711   11.1464 N.pl3   1  UNL1       -0.2932
      8 C          59.9789   83.8697   12.2689 C.3     1  UNL1        0.0923
      9 C          59.7560   82.6759   13.2094 C.3     1  UNL1        0.0252
     10 C          59.5004   81.3996   12.3891 C.3     1  UNL1        0.0472
     11 C          58.2431   81.5417   11.4887 C.3     1  UNL1        0.0252
     12 C          57.8380   83.0022   11.2269 C.3     1  UNL1        0.0923
     13 C          59.3932   80.1737   13.3160 C.3     1  UNL1        0.2054
     14 O          60.2047   79.0978   12.8412 O.3     1  UNL1       -0.4755
     15 C          61.0910   79.1604   11.7533 C.ar    1  UNL1        0.1388
     16 C          61.1347   78.1756   10.7483 C.ar    1  UNL1        0.0369
     17 C          62.0391   78.2910    9.6909 C.ar    1  UNL1        0.0033
     18 C          62.9039   79.3850    9.6201 C.ar    1  UNL1        0.0066
     19 C          62.8712   80.3815   10.6108 C.ar    1  UNL1        0.0785
     20 C          61.9574   80.2582   11.6725 C.ar    1  UNL1        0.0433
     21 C          63.7834   81.5446   10.5414 C.2     1  UNL1        0.3381
     22 O          63.5948   82.4543    9.6889 O.2     1  UNL1       -0.2451
     23 O          64.8605   81.6455   11.4183 O.3     1  UNL1       -0.4771
     24 H          65.4909   82.4375   11.3792 H       1  UNL1        0.2954
     25 C          59.8124   88.6151    6.6502 C.2     1  UNL1        0.2839
     26 O          59.3987   89.2082    7.6815 O.2     1  UNL1       -0.2665
     27 N          59.7815   87.1796    6.5862 N.am    1  UNL1       -0.2766
     28 H          59.8232   86.7273    5.6449 H       1  UNL1        0.1553
     29 C          57.9640   90.1818    4.4961 C.3     1  UNL1        0.0345
     30 C          59.4594   90.0415    4.5137 C.ar    1  UNL1        0.0207
     31 C          60.2527   89.3894    5.4711 C.ar    1  UNL1        0.1946
     32 O          61.5277   89.5444    5.1757 O.2     1  UNL1       -0.4492
     33 C          61.6105   90.2401    4.0710 C.ar    1  UNL1        0.1457
     34 C          62.7768   90.6216    3.4215 C.ar    1  UNL1        0.0375
     35 C          62.6612   91.3601    2.2372 C.ar    1  UNL1        0.0036
     36 C          61.3901   91.6948    1.7119 C.ar    1  UNL1        0.0064
     37 C          60.2092   91.3031    2.4017 C.ar    1  UNL1        0.0373
     38 BR         58.4749   91.7902    1.7218 Br      1  UNL1       -0.0489
     39 C          60.3641   90.5709    3.5965 C.ar    1  UNL1        0.0399
     40 C          61.3305   92.4491    0.4422 C.ar    1  UNL1        0.0005
     41 C          60.1636   93.1424    0.0792 C.ar    1  UNL1        0.0000
     42 C          60.1060   93.8368   -1.1332 C.ar    1  UNL1        0.0000
     43 C          61.2070   93.8357   -1.9941 C.ar    1  UNL1        0.0000
     44 C          62.3661   93.1365   -1.6459 C.ar    1  UNL1        0.0000
     45 C          62.4279   92.4409   -0.4344 C.ar    1  UNL1        0.0000
@<TRIPOS>BOND
     1    29    30    1
     2    30    31   ar
     3    31    25    1
     4    25    26    2
     5    25    27   am
     6    27     1    1
     7     1     2   ar
     8     2     3   ar
     9     3     4   ar
    10     4     7    1
    11     7     8    1
    12     8     9    1
    13     9    10    1
    14    10    13    1
    15    13    14    1
    16    14    15    1
    17    15    16   ar
    18    16    17   ar
    19    17    18   ar
    20    18    19   ar
    21    19    21    1
    22    21    22    2
    23    21    23    1
    24    19    20   ar
    25    10    11    1
    26    11    12    1
    27     4     5   ar
    28     5     6   ar
    29    31    32   ar
    30    32    33   ar
    31    33    34   ar
    32    34    35   ar
    33    35    36   ar
    34    36    40    1
    35    40    41   ar
    36    41    42   ar
    37    42    43   ar
    38    43    44   ar
    39    44    45   ar
    40    36    37   ar
    41    37    38    1
    42    37    39   ar
    43    39    30   ar
    44     6     1   ar
    45    39    33   ar
    46    12     7    1
    47    45    40   ar
    48    20    15   ar
    49    27    28    1
    50    23    24    1
@<TRIPOS>MOLECULE
*****
 45 50 0 0 0
SMALL
GASTEIGER

@<TRIPOS>ATOM
      1 C          59.6471   88.6319    6.2262 C.ar    1  UNL1        0.0702
      2 C          58.6776   89.5947    5.9255 C.ar    1  UNL1        0.0191
      3 C          58.8921   90.5143    4.8977 C.ar    1  UNL1        0.0356
      4 C          60.0979   90.4815    4.1734 C.ar    1  UNL1        0.1318
      5 N          61.0361   89.5501    4.5053 N.ar    1  UNL1       -0.2279
      6 C          60.8474   88.6427    5.4993 C.ar    1  UNL1        0.1149
      7 N          60.3556   91.4103    3.0934 N.pl3   1  UNL1       -0.2932
      8 C          59.9185   92.8150    3.1892 C.3     1  UNL1        0.0923
      9 C          59.9751   93.5265    1.8291 C.3     1  UNL1        0.0252
     10 C          59.4261   92.6026    0.7281 C.3     1  UNL1        0.0472
     11 C          60.2518   91.2920    0.6181 C.3     1  UNL1        0.0252
     12 C          61.0683   90.9736    1.8821 C.3     1  UNL1        0.0923
     13 C          59.3664   93.3450   -0.6205 C.3     1  UNL1        0.2054
     14 O          60.6533   93.8444   -0.9896 O.3     1  UNL1       -0.4755
     15 C          61.8495   93.1085   -0.9801 C.ar    1  UNL1        0.1388
     16 C          62.1920   92.1977   -1.9975 C.ar    1  UNL1        0.0369
     17 C          63.3955   91.4928   -1.9331 C.ar    1  UNL1        0.0033
     18 C          64.2696   91.6882   -0.8618 C.ar    1  UNL1        0.0066
     19 C          63.9480   92.5976    0.1605 C.ar    1  UNL1        0.0785
     20 C          62.7342   93.3038    0.0883 C.ar    1  UNL1        0.0433
     21 C          64.8702   92.8112    1.2979 C.2     1  UNL1        0.3381
     22 O          64.6475   93.7250    2.1378 O.2     1  UNL1       -0.2451
     23 O          65.9945   92.0040    1.4514 O.3     1  UNL1       -0.4771
     24 H          66.6321   92.1419    2.2264 H       1  UNL1        0.2954
     25 C          59.2721   86.2870    7.1245 C.2     1  UNL1        0.2839
     26 O          59.0579   85.8159    5.9762 O.2     1  UNL1       -0.2665
     27 N          59.4209   87.7055    7.3027 N.am    1  UNL1       -0.2766
     28 H          59.2826   88.0990    8.2610 H       1  UNL1        0.1553
     29 C          60.6088   83.3442    7.3773 C.3     1  UNL1        0.0345
     30 C          59.8339   84.1079    8.4128 C.ar    1  UNL1        0.0207
     31 C          59.2886   85.3971    8.3042 C.ar    1  UNL1        0.1946
     32 O          58.7419   85.7493    9.4505 O.2     1  UNL1       -0.4492
     33 C          58.8799   84.7573   10.2919 C.ar    1  UNL1        0.1457
     34 C          58.4406   84.7248   11.6086 C.ar    1  UNL1        0.0375
     35 C          58.6735   83.5620   12.3534 C.ar    1  UNL1        0.0036
     36 C          59.3262   82.4476   11.7739 C.ar    1  UNL1        0.0064
     37 C          59.7780   82.5089   10.4264 C.ar    1  UNL1        0.0373
     38 BR         60.7066   81.0168    9.6398 Br      1  UNL1       -0.0489
     39 C          59.5365   83.6994    9.7108 C.ar    1  UNL1        0.0399
     40 C          59.5165   81.2366   12.5997 C.ar    1  UNL1        0.0005
     41 C          60.7415   80.9997   13.2456 C.ar    1  UNL1        0.0000
     42 C          60.9226   79.8418   14.0083 C.ar    1  UNL1        0.0000
     43 C          59.8876   78.9096   14.1231 C.ar    1  UNL1        0.0000
     44 C          58.6710   79.1319   13.4717 C.ar    1  UNL1        0.0000
     45 C          58.4858   80.2886   12.7082 C.ar    1  UNL1        0.0000
@<TRIPOS>BOND
     1    29    30    1
     2    30    31   ar
     3    31    25    1
     4    25    26    2
     5    25    27   am
     6    27     1    1
     7     1     2   ar
     8     2     3   ar
     9     3     4   ar
    10     4     7    1
    11     7     8    1
    12     8     9    1
    13     9    10    1
    14    10    13    1
    15    13    14    1
    16    14    15    1
    17    15    16   ar
    18    16    17   ar
    19    17    18   ar
    20    18    19   ar
    21    19    21    1
    22    21    22    2
    23    21    23    1
    24    19    20   ar
    25    10    11    1
    26    11    12    1
    27     4     5   ar
    28     5     6   ar
    29    31    32   ar
    30    32    33   ar
    31    33    34   ar
    32    34    35   ar
    33    35    36   ar
    34    36    40    1
    35    40    41   ar
    36    41    42   ar
    37    42    43   ar
    38    43    44   ar
    39    44    45   ar
    40    36    37   ar
    41    37    38    1
    42    37    39   ar
    43    39    30   ar
    44     6     1   ar
    45    39    33   ar
    46    12     7    1
    47    45    40   ar
    48    20    15   ar
    49    27    28    1
    50    23    24    1
@<TRIPOS>MOLECULE
*****
 45 50 0 0 0
SMALL
GASTEIGER

@<TRIPOS>ATOM
      1 C          59.9852   87.4292    7.8386 C.ar    1  UNL1        0.0702
      2 C          60.4212   88.0959    8.9888 C.ar    1  UNL1        0.0191
      3 C          60.2484   87.5178   10.2472 C.ar    1  UNL1        0.0356
      4 C          59.6164   86.2656   10.3583 C.ar    1  UNL1        0.1318
      5 N          59.1775   85.6507    9.2238 N.ar    1  UNL1       -0.2279
      6 C          59.3383   86.1928    7.9880 C.ar    1  UNL1        0.1149
      7 N          59.4269   85.6267   11.6433 N.pl3   1  UNL1       -0.2932
      8 C          58.5423   86.2270   12.6584 C.3     1  UNL1        0.0923
      9 C          58.7480   85.5949   14.0432 C.3     1  UNL1        0.0252
     10 C          60.2499   85.4056   14.3180 C.3     1  UNL1        0.0472
     11 C          60.9106   84.4760   13.2639 C.3     1  UNL1        0.0252
     12 C          60.1056   84.3594   11.9586 C.3     1  UNL1        0.0923
     13 C          60.4758   84.8830   15.7496 C.3     1  UNL1        0.2054
     14 O          61.3696   85.7322   16.4717 O.3     1  UNL1       -0.4755
     15 C          62.4027   86.4994   15.9086 C.ar    1  UNL1        0.1388
     16 C          63.4514   85.9326   15.1597 C.ar    1  UNL1        0.0369
     17 C          64.4523   86.7463   14.6254 C.ar    1  UNL1        0.0033
     18 C          64.4190   88.1277   14.8265 C.ar    1  UNL1        0.0066
     19 C          63.3770   88.7128   15.5664 C.ar    1  UNL1        0.0785
     20 C          62.3726   87.8866   16.1011 C.ar    1  UNL1        0.0433
     21 C          63.3340   90.1761   15.7821 C.2     1  UNL1        0.3381
     22 O          64.2240   90.9208   15.2888 O.2     1  UNL1       -0.2451
     23 O          62.3088   90.7454   16.5332 O.3     1  UNL1       -0.4771
     24 H          62.2702   91.7459   16.6869 H       1  UNL1        0.2954
     25 C          59.3374   89.1310    6.0694 C.2     1  UNL1        0.2839
     26 O          58.2543   89.4107    6.6483 O.2     1  UNL1       -0.2665
     27 N          60.1503   88.0479    6.5510 N.am    1  UNL1       -0.2766
     28 H          60.8553   87.6336    5.9000 H       1  UNL1        0.1553
     29 C          62.2881   89.3078    4.7377 C.3     1  UNL1        0.0345
     30 C          61.0185   89.9679    4.2813 C.ar    1  UNL1        0.0207
     31 C          59.7379   89.8567    4.8460 C.ar    1  UNL1        0.1946
     32 O          58.8687   90.5298    4.1191 O.2     1  UNL1       -0.4492
     33 C          59.5114   91.0901    3.1271 C.ar    1  UNL1        0.1457
     34 C          58.9607   91.8863    2.1317 C.ar    1  UNL1        0.0375
     35 C          59.8174   92.4077    1.1543 C.ar    1  UNL1        0.0036
     36 C          61.2070   92.1406    1.1901 C.ar    1  UNL1        0.0064
     37 C          61.7464   91.3122    2.2130 C.ar    1  UNL1        0.0373
     38 BR         63.6279   90.9045    2.2477 Br      1  UNL1       -0.0489
     39 C          60.8527   90.7954    3.1732 C.ar    1  UNL1        0.0399
     40 C          62.0659   92.7436    0.1493 C.ar    1  UNL1        0.0005
     41 C          61.4982   93.2972   -1.0106 C.ar    1  UNL1        0.0000
     42 C          62.3173   93.8474   -2.0014 C.ar    1  UNL1        0.0000
     43 C          63.7063   93.8399   -1.8459 C.ar    1  UNL1        0.0000
     44 C          64.2787   93.2783   -0.7010 C.ar    1  UNL1        0.0000
     45 C          63.4631   92.7272    0.2922 C.ar    1  UNL1        0.0000
@<TRIPOS>BOND
     1    29    30    1
     2    30    31   ar
     3    31    25    1
     4    25    26    2
     5    25    27   am
     6    27     1    1
     7     1     2   ar
     8     2     3   ar
     9     3     4   ar
    10     4     7    1
    11     7     8    1
    12     8     9    1
    13     9    10    1
    14    10    13    1
    15    13    14    1
    16    14    15    1
    17    15    16   ar
    18    16    17   ar
    19    17    18   ar
    20    18    19   ar
    21    19    21    1
    22    21    22    2
    23    21    23    1
    24    19    20   ar
    25    10    11    1
    26    11    12    1
    27     4     5   ar
    28     5     6   ar
    29    31    32   ar
    30    32    33   ar
    31    33    34   ar
    32    34    35   ar
    33    35    36   ar
    34    36    40    1
    35    40    41   ar
    36    41    42   ar
    37    42    43   ar
    38    43    44   ar
    39    44    45   ar
    40    36    37   ar
    41    37    38    1
    42    37    39   ar
    43    39    30   ar
    44     6     1   ar
    45    39    33   ar
    46    12     7    1
    47    45    40   ar
    48    20    15   ar
    49    27    28    1
    50    23    24    1
@<TRIPOS>MOLECULE
*****
 45 50 0 0 0
SMALL
GASTEIGER

@<TRIPOS>ATOM
      1 C          60.1809   88.5462    6.0747 C.ar    1  UNL1        0.0702
      2 C          59.0824   89.0835    5.3949 C.ar    1  UNL1        0.0191
      3 C          59.2699   90.0439    4.3998 C.ar    1  UNL1        0.0356
      4 C          60.5702   90.4851    4.0929 C.ar    1  UNL1        0.1318
      5 N          61.6198   89.9643    4.7894 N.ar    1  UNL1       -0.2279
      6 C          61.4614   89.0257    5.7593 C.ar    1  UNL1        0.1149
      7 N          60.8090   91.4717    3.0609 N.pl3   1  UNL1       -0.2932
      8 C          59.7795   92.4716    2.7239 C.3     1  UNL1        0.0923
      9 C          60.0856   93.1841    1.3979 C.3     1  UNL1        0.0252
     10 C          60.5681   92.1648    0.3514 C.3     1  UNL1        0.0472
     11 C          61.8604   91.4389    0.8148 C.3     1  UNL1        0.0252
     12 C          62.0886   91.5030    2.3344 C.3     1  UNL1        0.0923
     13 C          60.7650   92.8462   -1.0162 C.3     1  UNL1        0.2054
     14 O          59.8659   92.3130   -1.9904 O.3     1  UNL1       -0.4755
     15 C          58.4712   92.4793   -1.9935 C.ar    1  UNL1        0.1388
     16 C          57.8547   93.7449   -1.9994 C.ar    1  UNL1        0.0369
     17 C          56.4623   93.8476   -2.0007 C.ar    1  UNL1        0.0033
     18 C          55.6712   92.6970   -1.9997 C.ar    1  UNL1        0.0066
     19 C          56.2683   91.4246   -1.9998 C.ar    1  UNL1        0.0785
     20 C          57.6712   91.3294   -1.9987 C.ar    1  UNL1        0.0433
     21 C          55.4364   90.2008   -2.0006 C.2     1  UNL1        0.3381
     22 O          54.1782   90.2837   -2.0001 O.2     1  UNL1       -0.2451
     23 O          56.0363   88.9440   -2.0017 O.3     1  UNL1       -0.4771
     24 H          55.4759   88.1000   -2.0022 H       1  UNL1        0.2954
     25 C          58.7183   86.9067    7.3470 C.2     1  UNL1        0.2839
     26 O          57.6619   87.3483    6.8223 O.2     1  UNL1       -0.2665
     27 N          59.9698   87.5737    7.1129 N.am    1  UNL1       -0.2766
     28 H          60.7538   87.3992    7.7816 H       1  UNL1        0.1553
     29 C          59.9279   83.9340    6.8875 C.3     1  UNL1        0.0345
     30 C          59.1563   84.4543    8.0665 C.ar    1  UNL1        0.0207
     31 C          58.6666   85.7542    8.2705 C.ar    1  UNL1        0.1946
     32 O          58.1032   85.8383    9.4590 O.2     1  UNL1       -0.4492
     33 C          58.1780   84.6645   10.0316 C.ar    1  UNL1        0.1457
     34 C          57.7018   84.3293   11.2920 C.ar    1  UNL1        0.0375
     35 C          57.8671   83.0096   11.7304 C.ar    1  UNL1        0.0036
     36 C          58.4899   82.0433   10.9045 C.ar    1  UNL1        0.0064
     37 C          58.9807   82.4133    9.6216 C.ar    1  UNL1        0.0373
     38 BR         59.8696   81.1197    8.5065 Br      1  UNL1       -0.0489
     39 C          58.8071   83.7531    9.2182 C.ar    1  UNL1        0.0399
     40 C          58.6086   80.6589   11.4087 C.ar    1  UNL1        0.0005
     41 C          59.3859   80.3784   12.5450 C.ar    1  UNL1        0.0000
     42 C          59.5113   79.0638   13.0048 C.ar    1  UNL1        0.0000
     43 C          58.8710   78.0213   12.3292 C.ar    1  UNL1        0.0000
     44 C          58.1076   78.2912   11.1899 C.ar    1  UNL1        0.0000
     45 C          57.9795   79.6044   10.7268 C.ar    1  UNL1        0.0000
@<TRIPOS>BOND
     1    29    30    1
     2    30    31   ar
     3    31    25    1
     4    25    26    2
     5    25    27   am
     6    27     1    1
     7     1     2   ar
     8     2     3   ar
     9     3     4   ar
    10     4     7    1
    11     7     8    1
    12     8     9    1
    13     9    10    1
    14    10    13    1
    15    13    14    1
    16    14    15    1
    17    15    16   ar
    18    16    17   ar
    19    17    18   ar
    20    18    19   ar
    21    19    21    1
    22    21    22    2
    23    21    23    1
    24    19    20   ar
    25    10    11    1
    26    11    12    1
    27     4     5   ar
    28     5     6   ar
    29    31    32   ar
    30    32    33   ar
    31    33    34   ar
    32    34    35   ar
    33    35    36   ar
    34    36    40    1
    35    40    41   ar
    36    41    42   ar
    37    42    43   ar
    38    43    44   ar
    39    44    45   ar
    40    36    37   ar
    41    37    38    1
    42    37    39   ar
    43    39    30   ar
    44     6     1   ar
    45    39    33   ar
    46    12     7    1
    47    45    40   ar
    48    20    15   ar
    49    27    28    1
    50    23    24    1
@<TRIPOS>MOLECULE
*****
 45 50 0 0 0
SMALL
GASTEIGER

@<TRIPOS>ATOM
      1 C          61.0681   86.9679    8.5049 C.ar    1  UNL1        0.0702
      2 C          60.4216   85.7403    8.6847 C.ar    1  UNL1        0.0191
      3 C          60.4782   85.0874    9.9169 C.ar    1  UNL1        0.0356
      4 C          61.2044   85.6608   10.9769 C.ar    1  UNL1        0.1318
      5 N          61.8467   86.8443   10.7659 N.ar    1  UNL1       -0.2279
      6 C          61.8024   87.4995    9.5761 C.ar    1  UNL1        0.1149
      7 N          61.2795   85.0216   12.2736 N.pl3   1  UNL1       -0.2932
      8 C          62.5431   85.0073   13.0328 C.3     1  UNL1        0.0923
      9 C          62.5027   84.0019   14.1933 C.3     1  UNL1        0.0252
     10 C          61.8452   82.6900   13.7309 C.3     1  UNL1        0.0472
     11 C          60.3880   82.9215   13.2464 C.3     1  UNL1        0.0252
     12 C          60.0932   84.3820   12.8648 C.3     1  UNL1        0.0923
     13 C          61.9050   81.6319   14.8491 C.3     1  UNL1        0.2054
     14 O          61.6655   80.3221   14.3308 O.3     1  UNL1       -0.4755
     15 C          61.3622   80.0145   12.9943 C.ar    1  UNL1        0.1388
     16 C          62.2334   80.3082   11.9281 C.ar    1  UNL1        0.0369
     17 C          61.8766   79.9797   10.6188 C.ar    1  UNL1        0.0033
     18 C          60.6556   79.3547   10.3574 C.ar    1  UNL1        0.0066
     19 C          59.7751   79.0481   11.4092 C.ar    1  UNL1        0.0785
     20 C          60.1417   79.3819   12.7250 C.ar    1  UNL1        0.0433
     21 C          58.4803   78.3841   11.1400 C.2     1  UNL1        0.3381
     22 O          57.5784   78.9819   10.4926 O.2     1  UNL1       -0.2451
     23 O          58.2454   77.0909   11.5999 O.3     1  UNL1       -0.4771
     24 H          57.3625   76.6274   11.4211 H       1  UNL1        0.2954
     25 C          60.1372   88.7076    6.9071 C.2     1  UNL1        0.2839
     26 O          59.1635   88.9685    7.6624 O.2     1  UNL1       -0.2665
     27 N          61.0192   87.6175    7.2227 N.am    1  UNL1       -0.2766
     28 H          61.6081   87.2220    6.4552 H       1  UNL1        0.1553
     29 C          57.8595   89.9073    4.9364 C.3     1  UNL1        0.0345
     30 C          59.3520   89.9567    4.7747 C.ar    1  UNL1        0.0207
     31 C          60.3308   89.4638    5.6523 C.ar    1  UNL1        0.1946
     32 O          61.5309   89.7605    5.1956 O.2     1  UNL1       -0.4492
     33 C          61.3915   90.3982    4.0620 C.ar    1  UNL1        0.1457
     34 C          62.4134   90.8859    3.2584 C.ar    1  UNL1        0.0375
     35 C          62.0638   91.5365    2.0686 C.ar    1  UNL1        0.0036
     36 C          60.7070   91.6795    1.6914 C.ar    1  UNL1        0.0064
     37 C          59.6769   91.1821    2.5370 C.ar    1  UNL1        0.0373
     38 BR         57.8260   91.4093    2.0575 Br      1  UNL1       -0.0489
     39 C          60.0655   90.5431    3.7321 C.ar    1  UNL1        0.0399
     40 C          60.4004   92.3481    0.4093 C.ar    1  UNL1        0.0005
     41 C          61.3926   93.0735   -0.2714 C.ar    1  UNL1        0.0000
     42 C          61.0910   93.7214   -1.4733 C.ar    1  UNL1        0.0000
     43 C          59.7970   93.6580   -1.9977 C.ar    1  UNL1        0.0000
     44 C          58.8013   92.9499   -1.3187 C.ar    1  UNL1        0.0000
     45 C          59.0989   92.3004   -0.1166 C.ar    1  UNL1        0.0000
@<TRIPOS>BOND
     1    29    30    1
     2    30    31   ar
     3    31    25    1
     4    25    26    2
     5    25    27   am
     6    27     1    1
     7     1     2   ar
     8     2     3   ar
     9     3     4   ar
    10     4     7    1
    11     7     8    1
    12     8     9    1
    13     9    10    1
    14    10    13    1
    15    13    14    1
    16    14    15    1
    17    15    16   ar
    18    16    17   ar
    19    17    18   ar
    20    18    19   ar
    21    19    21    1
    22    21    22    2
    23    21    23    1
    24    19    20   ar
    25    10    11    1
    26    11    12    1
    27     4     5   ar
    28     5     6   ar
    29    31    32   ar
    30    32    33   ar
    31    33    34   ar
    32    34    35   ar
    33    35    36   ar
    34    36    40    1
    35    40    41   ar
    36    41    42   ar
    37    42    43   ar
    38    43    44   ar
    39    44    45   ar
    40    36    37   ar
    41    37    38    1
    42    37    39   ar
    43    39    30   ar
    44     6     1   ar
    45    39    33   ar
    46    12     7    1
    47    45    40   ar
    48    20    15   ar
    49    27    28    1
    50    23    24    1
