@<TRIPOS>MOLECULE
*****
 54 60 0 0 0
SMALL
GASTEIGER

@<TRIPOS>ATOM
      1 N          -5.6725   -6.3478   30.5865 N.3     1  UNL1       -0.2638
      2 C          -4.9686   -6.7946   31.7954 C.3     1  UNL1        0.0739
      3 C          -4.6098   -8.2687   31.6092 C.3     1  UNL1        0.0374
      4 C          -5.2991   -8.7110   30.3072 C.3     1  UNL1        0.1239
      5 C          -6.2572   -7.5565   30.0003 C.3     1  UNL1        0.0913
      6 C          -6.0753  -10.0050   30.4636 C.2     1  UNL1        0.2359
      7 O          -6.8585  -10.1659   31.4398 O.2     1  UNL1       -0.2739
      8 N          -5.8239  -11.0980   29.5660 N.am    1  UNL1       -0.2832
      9 H          -4.8802  -11.1566   29.1203 H       1  UNL1        0.1549
     10 C          -6.7889  -12.1120   29.2431 C.ar    1  UNL1        0.0505
     11 C          -8.0776  -12.1253   29.8447 C.ar    1  UNL1        0.0162
     12 C          -9.0342  -13.0876   29.4724 C.ar    1  UNL1        0.0198
     13 C          -8.6706  -14.0219   28.5078 C.ar    1  UNL1        0.0754
     14 N          -9.4236  -14.9939   27.9699 N.ar    1  UNL1       -0.2757
     15 N          -8.6997  -15.6322   27.0577 N.ar    1  UNL1       -0.1726
     16 C          -7.4675  -15.0673   27.0178 C.ar    1  UNL1        0.1036
     17 C          -7.4328  -14.0256   27.9317 C.ar    1  UNL1        0.0376
     18 C          -6.4727  -13.0652   28.2510 C.ar    1  UNL1        0.0177
     19 H         -10.4156  -15.2203   28.2038 H       1  UNL1        0.1889
     20 C          -6.3847  -15.5288   26.1266 C.ar    1  UNL1        0.0388
     21 C          -6.3799  -15.2114   24.7600 C.ar    1  UNL1        0.0079
     22 C          -5.3518  -15.6722   23.9376 C.ar    1  UNL1        0.0578
     23 C          -4.3259  -16.4426   24.4866 C.ar    1  UNL1        0.2247
     24 N          -4.3297  -16.7187   25.8207 N.ar    1  UNL1       -0.2101
     25 C          -5.3145  -16.2726   26.6447 C.ar    1  UNL1        0.1036
     26 O          -3.3104  -16.9237   23.6530 O.3     1  UNL1       -0.4640
     27 C          -3.4781  -17.1477   22.2537 C.3     1  UNL1        0.1678
     28 C          -2.1857  -16.7709   21.5329 C.3     1  UNL1        0.0473
     29 C          -3.8330  -18.6133   21.9874 C.3     1  UNL1        0.0473
     30 S          -4.0783   -8.9906   28.9447 S.3     1  UNL1       -0.1308
     31 C          -5.2036   -9.3814   27.5600 C.3     1  UNL1        0.0696
     32 C          -6.6841   -5.3164   30.8904 C.3     1  UNL1        0.1587
     33 C         -10.0796   -9.2969   31.0827 C.2     1  UNL1       -0.0231
     34 C         -10.3699   -8.6384   29.9485 C.2     1  UNL1       -0.0089
     35 C          -9.6597   -7.3764   29.5229 C.3     1  UNL1        0.1196
     36 N          -8.7831   -6.8091   30.5639 N.am    1  UNL1       -0.2740
     37 C          -7.9967   -5.6436   30.2198 C.2     1  UNL1        0.2423
     38 O          -8.3597   -4.9180   29.2537 O.2     1  UNL1       -0.2733
     39 C          -8.9270   -7.2719   31.9522 C.3     1  UNL1        0.0984
     40 C          -8.9827   -8.7970   31.9830 C.3     1  UNL1        0.0476
     41 C         -12.1392  -12.9557   32.0326 C.ar    1  UNL1        0.0375
     42 C         -12.7190  -12.0174   31.1629 C.ar    1  UNL1        0.0031
     43 C         -12.0531  -10.8263   30.8575 C.ar    1  UNL1       -0.0002
     44 C         -10.8055  -10.5409   31.4363 C.ar    1  UNL1       -0.0042
     45 C         -10.2356  -11.4701   32.3228 C.ar    1  UNL1       -0.0002
     46 C         -10.8927  -12.6687   32.6122 C.ar    1  UNL1        0.0031
     47 C         -14.1990  -15.6895   32.9511 C.ar    1  UNL1        0.1379
     48 N         -13.9737  -14.3602   32.9903 N.ar    1  UNL1       -0.2106
     49 C         -12.8104  -14.2438   32.3085 C.ar    1  UNL1        0.1828
     50 N         -12.3463  -15.4332   31.8730 N.ar    1  UNL1       -0.1487
     51 N         -13.2296  -16.3309   32.2674 N.ar    1  UNL1       -0.2343
     52 C         -13.0890  -17.7622   32.0243 C.3     1  UNL1        0.1551
     53 C         -16.6738  -15.5415   33.3251 C.3     1  UNL1        0.0084
     54 C         -15.3978  -16.3387   33.5842 C.3     1  UNL1        0.0654
@<TRIPOS>BOND
     1    53    54    1
     2    54    47    1
     3    47    48   ar
     4    48    49   ar
     5    49    41    1
     6    41    42   ar
     7    42    43   ar
     8    43    44   ar
     9    44    33    1
    10    33    34    2
    11    34    35    1
    12    35    36    1
    13    36    37   am
    14    37    38    2
    15    37    32    1
    16    32     1    1
    17     1     2    1
    18     2     3    1
    19     3     4    1
    20     4    30    1
    21    30    31    1
    22     4     6    1
    23     6     7    2
    24     6     8   am
    25     8    10    1
    26    10    11   ar
    27    11    12   ar
    28    12    13   ar
    29    13    14   ar
    30    14    15   ar
    31    15    16   ar
    32    16    20    1
    33    20    21   ar
    34    21    22   ar
    35    22    23   ar
    36    23    26    1
    37    26    27    1
    38    27    28    1
    39    27    29    1
    40    23    24   ar
    41    24    25   ar
    42    16    17   ar
    43    17    18   ar
    44     4     5    1
    45    36    39    1
    46    39    40    1
    47    44    45   ar
    48    45    46   ar
    49    49    50   ar
    50    50    51   ar
    51    51    52    1
    52    51    47   ar
    53    46    41   ar
    54    40    33    1
    55     5     1    1
    56    18    10   ar
    57    17    13   ar
    58    25    20   ar
    59     8     9    1
    60    14    19    1
@<TRIPOS>MOLECULE
*****
 54 60 0 0 0
SMALL
GASTEIGER

@<TRIPOS>ATOM
      1 N          -4.6764  -10.1560   30.5098 N.3     1  UNL1       -0.2638
      2 C          -4.4285   -9.7909   29.1092 C.3     1  UNL1        0.0739
      3 C          -5.0232   -8.4022   28.8760 C.3     1  UNL1        0.0374
      4 C          -5.7914   -8.0495   30.1611 C.3     1  UNL1        0.1239
      5 C          -5.8490   -9.3788   30.9190 C.3     1  UNL1        0.0913
      6 C          -7.1954   -7.5447   29.8864 C.2     1  UNL1        0.2359
      7 O          -7.7260   -7.7172   28.7546 O.2     1  UNL1       -0.2739
      8 N          -7.8752   -6.7587   30.8781 N.am    1  UNL1       -0.2832
      9 H          -7.2921   -6.2101   31.5503 H       1  UNL1        0.1549
     10 C          -9.3042   -6.6821   31.0031 C.ar    1  UNL1        0.0505
     11 C          -9.9953   -5.4486   30.8491 C.ar    1  UNL1        0.0162
     12 C         -11.4000   -5.3995   30.9122 C.ar    1  UNL1        0.0198
     13 C         -12.0797   -6.5924   31.1373 C.ar    1  UNL1        0.0754
     14 N         -13.4055   -6.7936   31.1910 N.ar    1  UNL1       -0.2757
     15 N         -13.6280   -8.0882   31.3865 N.ar    1  UNL1       -0.1726
     16 C         -12.4309   -8.7204   31.4669 C.ar    1  UNL1        0.1036
     17 C         -11.4263   -7.7804   31.2976 C.ar    1  UNL1        0.0376
     18 C         -10.0373   -7.8714   31.2059 C.ar    1  UNL1        0.0177
     19 H         -14.1536   -6.0729   31.0870 H       1  UNL1        0.1889
     20 C         -12.2863  -10.1716   31.6965 C.ar    1  UNL1        0.0388
     21 C         -11.5445  -10.9782   30.8205 C.ar    1  UNL1        0.0079
     22 C         -11.4356  -12.3492   31.0534 C.ar    1  UNL1        0.0578
     23 C         -12.0624  -12.9086   32.1676 C.ar    1  UNL1        0.2247
     24 N         -12.7557  -12.1077   33.0245 N.ar    1  UNL1       -0.2101
     25 C         -12.8676  -10.7678   32.8251 C.ar    1  UNL1        0.1036
     26 O         -11.9714  -14.2881   32.3832 O.3     1  UNL1       -0.4640
     27 C         -12.9386  -15.0374   33.1175 C.3     1  UNL1        0.1678
     28 C         -13.0030  -16.4539   32.5508 C.3     1  UNL1        0.0473
     29 C         -12.5709  -15.0704   34.6037 C.3     1  UNL1        0.0473
     30 S          -4.9361   -6.7255   31.1308 S.3     1  UNL1       -0.1308
     31 C          -5.0255   -7.4303   32.8136 C.3     1  UNL1        0.0696
     32 C          -4.8733  -11.6102   30.6710 C.3     1  UNL1        0.1587
     33 C          -7.8193  -14.3777   27.3434 C.2     1  UNL1       -0.0231
     34 C          -8.6841  -13.6128   28.0300 C.2     1  UNL1       -0.0089
     35 C          -8.2613  -12.6872   29.1447 C.3     1  UNL1        0.1196
     36 N          -6.8583  -12.8637   29.5623 N.am    1  UNL1       -0.2740
     37 C          -6.3376  -11.9640   30.5695 C.2     1  UNL1        0.2423
     38 O          -7.1410  -11.3658   31.3367 O.2     1  UNL1       -0.2733
     39 C          -6.1337  -14.0739   29.1466 C.3     1  UNL1        0.0984
     40 C          -6.3487  -14.3154   27.6548 C.3     1  UNL1        0.0476
     41 C          -9.1164  -16.9685   24.1596 C.ar    1  UNL1        0.0375
     42 C          -8.6208  -15.6851   23.8761 C.ar    1  UNL1        0.0031
     43 C          -8.2037  -14.8408   24.9098 C.ar    1  UNL1       -0.0002
     44 C          -8.2981  -15.2559   26.2484 C.ar    1  UNL1       -0.0042
     45 C          -8.8137  -16.5315   26.5328 C.ar    1  UNL1       -0.0002
     46 C          -9.2121  -17.3819   25.4983 C.ar    1  UNL1        0.0031
     47 C          -9.5313  -18.9381   21.2426 C.ar    1  UNL1        0.1379
     48 N          -8.8623  -17.9516   21.8740 N.ar    1  UNL1       -0.2106
     49 C          -9.4988  -17.8878   23.0666 C.ar    1  UNL1        0.1828
     50 N         -10.5017  -18.7845   23.1650 N.ar    1  UNL1       -0.1487
     51 N         -10.5053  -19.4477   22.0240 N.ar    1  UNL1       -0.2343
     52 C         -11.4648  -20.4987   21.7045 C.3     1  UNL1        0.1551
     53 C          -7.6889  -19.5343   19.6499 C.3     1  UNL1        0.0084
     54 C          -9.1961  -19.3986   19.8516 C.3     1  UNL1        0.0654
@<TRIPOS>BOND
     1    53    54    1
     2    54    47    1
     3    47    48   ar
     4    48    49   ar
     5    49    41    1
     6    41    42   ar
     7    42    43   ar
     8    43    44   ar
     9    44    33    1
    10    33    34    2
    11    34    35    1
    12    35    36    1
    13    36    37   am
    14    37    38    2
    15    37    32    1
    16    32     1    1
    17     1     2    1
    18     2     3    1
    19     3     4    1
    20     4    30    1
    21    30    31    1
    22     4     6    1
    23     6     7    2
    24     6     8   am
    25     8    10    1
    26    10    11   ar
    27    11    12   ar
    28    12    13   ar
    29    13    14   ar
    30    14    15   ar
    31    15    16   ar
    32    16    20    1
    33    20    21   ar
    34    21    22   ar
    35    22    23   ar
    36    23    26    1
    37    26    27    1
    38    27    28    1
    39    27    29    1
    40    23    24   ar
    41    24    25   ar
    42    16    17   ar
    43    17    18   ar
    44     4     5    1
    45    36    39    1
    46    39    40    1
    47    44    45   ar
    48    45    46   ar
    49    49    50   ar
    50    50    51   ar
    51    51    52    1
    52    51    47   ar
    53    46    41   ar
    54    40    33    1
    55     5     1    1
    56    18    10   ar
    57    17    13   ar
    58    25    20   ar
    59     8     9    1
    60    14    19    1
@<TRIPOS>MOLECULE
*****
 54 60 0 0 0
SMALL
GASTEIGER

@<TRIPOS>ATOM
      1 N          -4.9919   -7.9173   30.2294 N.3     1  UNL1       -0.2638
      2 C          -4.5803   -8.8490   31.2872 C.3     1  UNL1        0.0739
      3 C          -4.6500  -10.2650   30.7158 C.3     1  UNL1        0.0374
      4 C          -5.2975  -10.1297   29.3271 C.3     1  UNL1        0.1239
      5 C          -5.8390   -8.6973   29.3235 C.3     1  UNL1        0.0913
      6 C          -6.4296  -11.1155   29.1081 C.2     1  UNL1        0.2359
      7 O          -7.6276  -10.7197   29.0960 O.2     1  UNL1       -0.2739
      8 N          -6.1445  -12.5217   29.0384 N.am    1  UNL1       -0.2832
      9 H          -5.2932  -12.8725   29.5332 H       1  UNL1        0.1549
     10 C          -6.9554  -13.4727   28.3301 C.ar    1  UNL1        0.0505
     11 C          -8.2745  -13.7859   28.7602 C.ar    1  UNL1        0.0162
     12 C          -9.0796  -14.6721   28.0212 C.ar    1  UNL1        0.0198
     13 C          -8.5369  -15.2312   26.8687 C.ar    1  UNL1        0.0754
     14 N          -9.1270  -16.0577   25.9912 N.ar    1  UNL1       -0.2757
     15 N          -8.2666  -16.3192   25.0139 N.ar    1  UNL1       -0.1726
     16 C          -7.1108  -15.6592   25.2738 C.ar    1  UNL1        0.1036
     17 C          -7.2681  -14.9465   26.4523 C.ar    1  UNL1        0.0376
     18 C          -6.4555  -14.0457   27.1408 C.ar    1  UNL1        0.0177
     19 H         -10.0996  -16.4339   26.0409 H       1  UNL1        0.1889
     20 C          -5.9177  -15.7269   24.4068 C.ar    1  UNL1        0.0388
     21 C          -5.8108  -14.9392   23.2508 C.ar    1  UNL1        0.0079
     22 C          -4.6784  -15.0331   22.4417 C.ar    1  UNL1        0.0578
     23 C          -3.6515  -15.9090   22.7961 C.ar    1  UNL1        0.2247
     24 N          -3.7577  -16.6465   23.9368 N.ar    1  UNL1       -0.2101
     25 C          -4.8461  -16.5652   24.7471 C.ar    1  UNL1        0.1036
     26 O          -2.5290  -16.0182   21.9680 O.3     1  UNL1       -0.4640
     27 C          -2.3308  -17.0880   21.0448 C.3     1  UNL1        0.1678
     28 C          -1.9599  -18.3500   21.8203 C.3     1  UNL1        0.0473
     29 C          -3.5985  -17.3199   20.2176 C.3     1  UNL1        0.0473
     30 S          -4.0754  -10.4210   27.9683 S.3     1  UNL1       -0.1308
     31 C          -4.6325   -9.1850   26.7443 C.3     1  UNL1        0.0696
     32 C          -5.6845   -6.7349   30.7788 C.3     1  UNL1        0.1587
     33 C          -9.7033  -10.0623   31.2129 C.2     1  UNL1       -0.0231
     34 C         -10.0618   -9.1979   30.2492 C.2     1  UNL1       -0.0089
     35 C          -9.2075   -8.0248   29.8342 C.3     1  UNL1        0.1196
     36 N          -8.0600   -7.7812   30.7274 N.am    1  UNL1       -0.2740
     37 C          -7.1364   -6.7276   30.3645 C.2     1  UNL1        0.2423
     38 O          -7.5207   -5.8113   29.5870 O.2     1  UNL1       -0.2733
     39 C          -8.0343   -8.4203   32.0516 C.3     1  UNL1        0.0984
     40 C          -8.3829   -9.9001   31.9154 C.3     1  UNL1        0.0476
     41 C         -12.2138  -13.4303   32.1538 C.ar    1  UNL1        0.0375
     42 C         -12.6657  -12.4273   31.2804 C.ar    1  UNL1        0.0031
     43 C         -11.8531  -11.3303   30.9779 C.ar    1  UNL1       -0.0002
     44 C         -10.5824  -11.2041   31.5632 C.ar    1  UNL1       -0.0042
     45 C         -10.1392  -12.1968   32.4533 C.ar    1  UNL1       -0.0002
     46 C         -10.9440  -13.3023   32.7399 C.ar    1  UNL1        0.0031
     47 C         -14.6291  -15.8764   33.0157 C.ar    1  UNL1        0.1379
     48 N         -14.2592  -14.5792   33.0203 N.ar    1  UNL1       -0.2106
     49 C         -13.0438  -14.6230   32.4267 C.ar    1  UNL1        0.1828
     50 N         -12.6859  -15.8751   32.0753 N.ar    1  UNL1       -0.1487
     51 N         -13.6908  -16.6514   32.4347 N.ar    1  UNL1       -0.2343
     52 C         -13.6948  -18.0994   32.2592 C.3     1  UNL1        0.1551
     53 C         -17.0547  -15.3438   33.3616 C.3     1  UNL1        0.0084
     54 C         -15.9362  -16.3600   33.5787 C.3     1  UNL1        0.0654
@<TRIPOS>BOND
     1    53    54    1
     2    54    47    1
     3    47    48   ar
     4    48    49   ar
     5    49    41    1
     6    41    42   ar
     7    42    43   ar
     8    43    44   ar
     9    44    33    1
    10    33    34    2
    11    34    35    1
    12    35    36    1
    13    36    37   am
    14    37    38    2
    15    37    32    1
    16    32     1    1
    17     1     2    1
    18     2     3    1
    19     3     4    1
    20     4    30    1
    21    30    31    1
    22     4     6    1
    23     6     7    2
    24     6     8   am
    25     8    10    1
    26    10    11   ar
    27    11    12   ar
    28    12    13   ar
    29    13    14   ar
    30    14    15   ar
    31    15    16   ar
    32    16    20    1
    33    20    21   ar
    34    21    22   ar
    35    22    23   ar
    36    23    26    1
    37    26    27    1
    38    27    28    1
    39    27    29    1
    40    23    24   ar
    41    24    25   ar
    42    16    17   ar
    43    17    18   ar
    44     4     5    1
    45    36    39    1
    46    39    40    1
    47    44    45   ar
    48    45    46   ar
    49    49    50   ar
    50    50    51   ar
    51    51    52    1
    52    51    47   ar
    53    46    41   ar
    54    40    33    1
    55     5     1    1
    56    18    10   ar
    57    17    13   ar
    58    25    20   ar
    59     8     9    1
    60    14    19    1
@<TRIPOS>MOLECULE
*****
 54 60 0 0 0
SMALL
GASTEIGER

@<TRIPOS>ATOM
      1 N         -11.3419  -13.6058   31.5108 N.3     1  UNL1       -0.2638
      2 C         -10.2184  -13.5290   32.4533 C.3     1  UNL1        0.0739
      3 C         -10.5241  -12.4154   33.4549 C.3     1  UNL1        0.0374
      4 C         -11.7982  -11.7229   32.9420 C.3     1  UNL1        0.1239
      5 C         -11.9602  -12.2777   31.5239 C.3     1  UNL1        0.0913
      6 C         -11.6689  -10.2120   32.8991 C.2     1  UNL1        0.2359
      7 O         -10.9369   -9.6098   33.7320 O.2     1  UNL1       -0.2739
      8 N         -12.4794   -9.4545   31.9865 N.am    1  UNL1       -0.2832
      9 H         -13.3931   -9.8655   31.6883 H       1  UNL1        0.1549
     10 C         -12.1108   -8.1703   31.4587 C.ar    1  UNL1        0.0505
     11 C         -13.0502   -7.1052   31.3805 C.ar    1  UNL1        0.0162
     12 C         -12.6589   -5.8347   30.9196 C.ar    1  UNL1        0.0198
     13 C         -11.3315   -5.6650   30.5392 C.ar    1  UNL1        0.0754
     14 N         -10.7275   -4.5439   30.1157 N.ar    1  UNL1       -0.2757
     15 N          -9.4456   -4.8127   29.8959 N.ar    1  UNL1       -0.1726
     16 C          -9.2296   -6.1222   30.1742 C.ar    1  UNL1        0.1036
     17 C         -10.4238   -6.6831   30.5995 C.ar    1  UNL1        0.0376
     18 C         -10.7685   -7.9448   31.0844 C.ar    1  UNL1        0.0177
     19 H         -11.1670   -3.6058   29.9856 H       1  UNL1        0.1889
     20 C          -7.9174   -6.7833   30.0298 C.ar    1  UNL1        0.0388
     21 C          -6.7224   -6.0976   30.2943 C.ar    1  UNL1        0.0079
     22 C          -5.4954   -6.7421   30.1362 C.ar    1  UNL1        0.0578
     23 C          -5.4676   -8.0744   29.7220 C.ar    1  UNL1        0.2247
     24 N          -6.6375   -8.7351   29.4962 N.ar    1  UNL1       -0.2101
     25 C          -7.8457   -8.1324   29.6532 C.ar    1  UNL1        0.1036
     26 O          -4.2338   -8.7089   29.5406 O.3     1  UNL1       -0.4640
     27 C          -4.0989  -10.0764   29.1562 C.3     1  UNL1        0.1678
     28 C          -4.6763  -10.9607   30.2590 C.3     1  UNL1        0.0473
     29 C          -4.8221  -10.3313   27.8306 C.3     1  UNL1        0.0473
     30 S         -13.2609  -12.0960   34.0126 S.3     1  UNL1       -0.1308
     31 C         -12.8222  -13.7649   34.6116 C.3     1  UNL1        0.0696
     32 C         -10.8999  -14.0141   30.1626 C.3     1  UNL1        0.1587
     33 C          -6.8930  -14.8980   26.9110 C.2     1  UNL1       -0.0231
     34 C          -6.4731  -13.9223   27.7333 C.2     1  UNL1       -0.0089
     35 C          -7.3450  -13.3155   28.8055 C.3     1  UNL1        0.1196
     36 N          -8.7588  -13.7255   28.7229 N.am    1  UNL1       -0.2740
     37 C          -9.6564  -13.2593   29.7583 C.2     1  UNL1        0.2423
     38 O          -9.3472  -12.2354   30.4274 O.2     1  UNL1       -0.2733
     39 C          -9.2506  -14.3583   27.4899 C.3     1  UNL1        0.0984
     40 C          -8.2831  -15.4553   27.0534 C.3     1  UNL1        0.0476
     41 C          -4.3120  -16.6098   23.9211 C.ar    1  UNL1        0.0375
     42 C          -4.1691  -16.9645   25.2727 C.ar    1  UNL1        0.0031
     43 C          -5.0037  -16.4054   26.2454 C.ar    1  UNL1       -0.0002
     44 C          -5.9806  -15.4620   25.8868 C.ar    1  UNL1       -0.0042
     45 C          -6.1091  -15.0915   24.5376 C.ar    1  UNL1       -0.0002
     46 C          -5.2878  -15.6652   23.5637 C.ar    1  UNL1        0.0031
     47 C          -2.6952  -18.6220   21.4927 C.ar    1  UNL1        0.1379
     48 N          -3.6474  -18.5138   22.4419 N.ar    1  UNL1       -0.2106
     49 C          -3.4745  -17.2456   22.8818 C.ar    1  UNL1        0.1828
     50 N          -2.4739  -16.6086   22.2395 N.ar    1  UNL1       -0.1487
     51 N          -2.0014  -17.4731   21.3614 N.ar    1  UNL1       -0.2343
     52 C          -0.8792  -17.1899   20.4736 C.3     1  UNL1        0.1551
     53 C          -3.7527  -20.3271   19.9891 C.3     1  UNL1        0.0084
     54 C          -2.4743  -19.8731   20.6893 C.3     1  UNL1        0.0654
@<TRIPOS>BOND
     1    53    54    1
     2    54    47    1
     3    47    48   ar
     4    48    49   ar
     5    49    41    1
     6    41    42   ar
     7    42    43   ar
     8    43    44   ar
     9    44    33    1
    10    33    34    2
    11    34    35    1
    12    35    36    1
    13    36    37   am
    14    37    38    2
    15    37    32    1
    16    32     1    1
    17     1     2    1
    18     2     3    1
    19     3     4    1
    20     4    30    1
    21    30    31    1
    22     4     6    1
    23     6     7    2
    24     6     8   am
    25     8    10    1
    26    10    11   ar
    27    11    12   ar
    28    12    13   ar
    29    13    14   ar
    30    14    15   ar
    31    15    16   ar
    32    16    20    1
    33    20    21   ar
    34    21    22   ar
    35    22    23   ar
    36    23    26    1
    37    26    27    1
    38    27    28    1
    39    27    29    1
    40    23    24   ar
    41    24    25   ar
    42    16    17   ar
    43    17    18   ar
    44     4     5    1
    45    36    39    1
    46    39    40    1
    47    44    45   ar
    48    45    46   ar
    49    49    50   ar
    50    50    51   ar
    51    51    52    1
    52    51    47   ar
    53    46    41   ar
    54    40    33    1
    55     5     1    1
    56    18    10   ar
    57    17    13   ar
    58    25    20   ar
    59     8     9    1
    60    14    19    1
@<TRIPOS>MOLECULE
*****
 54 60 0 0 0
SMALL
GASTEIGER

@<TRIPOS>ATOM
      1 N          -4.8682   -7.8557   31.6617 N.3     1  UNL1       -0.2638
      2 C          -4.7401   -8.5988   30.4016 C.3     1  UNL1        0.0739
      3 C          -5.5693   -7.8710   29.3436 C.3     1  UNL1        0.0374
      4 C          -6.3355   -6.7670   30.0920 C.3     1  UNL1        0.1239
      5 C          -6.1383   -7.1318   31.5661 C.3     1  UNL1        0.0913
      6 C          -7.8141   -6.7452   29.7536 C.2     1  UNL1        0.2359
      7 O          -8.2508   -7.3854   28.7577 O.2     1  UNL1       -0.2739
      8 N          -8.7011   -5.8931   30.4957 N.am    1  UNL1       -0.2832
      9 H          -8.2984   -5.0356   30.9375 H       1  UNL1        0.1549
     10 C         -10.1042   -6.1480   30.6687 C.ar    1  UNL1        0.0505
     11 C         -11.0773   -5.1480   30.3926 C.ar    1  UNL1        0.0162
     12 C         -12.4507   -5.4315   30.5066 C.ar    1  UNL1        0.0198
     13 C         -12.8159   -6.7137   30.9041 C.ar    1  UNL1        0.0754
     14 N         -14.0518   -7.2201   31.0364 N.ar    1  UNL1       -0.2757
     15 N         -13.9492   -8.4938   31.3984 N.ar    1  UNL1       -0.1726
     16 C         -12.6332   -8.8027   31.5068 C.ar    1  UNL1        0.1036
     17 C         -11.8904   -7.6781   31.1824 C.ar    1  UNL1        0.0376
     18 C         -10.5223   -7.4425   31.0458 C.ar    1  UNL1        0.0177
     19 H         -14.9544   -6.7207   30.8752 H       1  UNL1        0.1889
     20 C         -12.1360  -10.1340   31.9070 C.ar    1  UNL1        0.0388
     21 C         -12.2592  -11.2439   31.0578 C.ar    1  UNL1        0.0079
     22 C         -11.7934  -12.4936   31.4666 C.ar    1  UNL1        0.0578
     23 C         -11.1974  -12.6278   32.7212 C.ar    1  UNL1        0.2247
     24 N         -11.0597  -11.5349   33.5230 N.ar    1  UNL1       -0.2101
     25 C         -11.4960  -10.3048   33.1432 C.ar    1  UNL1        0.1036
     26 O         -10.7546  -13.8883   33.1371 O.3     1  UNL1       -0.4640
     27 C         -11.5864  -14.8360   33.8049 C.3     1  UNL1        0.1678
     28 C         -12.4330  -14.1062   34.8454 C.3     1  UNL1        0.0473
     29 C         -12.4828  -15.5617   32.7975 C.3     1  UNL1        0.0473
     30 S          -5.6789   -5.0836   29.6920 S.3     1  UNL1       -0.1308
     31 C          -6.8545   -4.0356   30.6174 C.3     1  UNL1        0.0696
     32 C          -4.8103   -8.7505   32.8345 C.3     1  UNL1        0.1587
     33 C          -7.1912  -12.3774   29.9040 C.2     1  UNL1       -0.0231
     34 C          -8.1365  -11.9243   30.7439 C.2     1  UNL1       -0.0089
     35 C          -7.8647  -10.8939   31.8128 C.3     1  UNL1        0.1196
     36 N          -6.4326  -10.5983   32.0014 N.am    1  UNL1       -0.2740
     37 C          -6.0782   -9.5625   32.9481 C.2     1  UNL1        0.2423
     38 O          -6.8995   -9.2457   33.8519 O.2     1  UNL1       -0.2733
     39 C          -5.4312  -11.5139   31.4344 C.3     1  UNL1        0.0984
     40 C          -5.7900  -11.8357   29.9860 C.3     1  UNL1        0.0476
     41 C          -8.1822  -15.2140   26.8214 C.ar    1  UNL1        0.0375
     42 C          -9.1746  -14.7305   27.6899 C.ar    1  UNL1        0.0031
     43 C          -8.8530  -13.8128   28.6948 C.ar    1  UNL1       -0.0002
     44 C          -7.5274  -13.3807   28.8649 C.ar    1  UNL1       -0.0042
     45 C          -6.5312  -13.8808   28.0096 C.ar    1  UNL1       -0.0002
     46 C          -6.8568  -14.7828   26.9935 C.ar    1  UNL1        0.0031
     47 C          -9.3921  -17.6942   24.5977 C.ar    1  UNL1        0.1379
     48 N          -9.3558  -17.1982   25.8515 N.ar    1  UNL1       -0.2106
     49 C          -8.5289  -16.1352   25.7181 C.ar    1  UNL1        0.1828
     50 N          -8.0824  -15.9841   24.4543 N.ar    1  UNL1       -0.1487
     51 N          -8.6395  -16.9560   23.7567 N.ar    1  UNL1       -0.2343
     52 C          -8.3927  -17.1732   22.3356 C.3     1  UNL1        0.1551
     53 C         -11.6701  -18.5689   24.0212 C.3     1  UNL1        0.0084
     54 C         -10.1942  -18.9071   24.2168 C.3     1  UNL1        0.0654
@<TRIPOS>BOND
     1    53    54    1
     2    54    47    1
     3    47    48   ar
     4    48    49   ar
     5    49    41    1
     6    41    42   ar
     7    42    43   ar
     8    43    44   ar
     9    44    33    1
    10    33    34    2
    11    34    35    1
    12    35    36    1
    13    36    37   am
    14    37    38    2
    15    37    32    1
    16    32     1    1
    17     1     2    1
    18     2     3    1
    19     3     4    1
    20     4    30    1
    21    30    31    1
    22     4     6    1
    23     6     7    2
    24     6     8   am
    25     8    10    1
    26    10    11   ar
    27    11    12   ar
    28    12    13   ar
    29    13    14   ar
    30    14    15   ar
    31    15    16   ar
    32    16    20    1
    33    20    21   ar
    34    21    22   ar
    35    22    23   ar
    36    23    26    1
    37    26    27    1
    38    27    28    1
    39    27    29    1
    40    23    24   ar
    41    24    25   ar
    42    16    17   ar
    43    17    18   ar
    44     4     5    1
    45    36    39    1
    46    39    40    1
    47    44    45   ar
    48    45    46   ar
    49    49    50   ar
    50    50    51   ar
    51    51    52    1
    52    51    47   ar
    53    46    41   ar
    54    40    33    1
    55     5     1    1
    56    18    10   ar
    57    17    13   ar
    58    25    20   ar
    59     8     9    1
    60    14    19    1
