@<TRIPOS>MOLECULE
*****
 36 39 0 0 0
SMALL
GASTEIGER

@<TRIPOS>ATOM
      1 N         -28.7625   47.6625   -6.9372 N.am    1  UNL1       -0.2685
      2 C         -27.6363   47.3723   -7.7818 C.2     1  UNL1        0.2672
      3 O         -27.5071   46.2173   -8.2695 O.2     1  UNL1       -0.2682
      4 C         -26.6553   48.4306   -8.0956 C.ar    1  UNL1        0.1347
      5 C         -26.4940   48.9080   -9.4061 C.ar    1  UNL1        0.0238
      6 C         -25.5815   49.9412   -9.6570 C.ar    1  UNL1        0.0031
      7 C         -25.4007   50.4427  -10.9554 C.ar    1  UNL1        0.0001
      8 C         -24.4879   51.4765  -11.1867 C.ar    1  UNL1        0.0000
      9 C         -23.7518   52.0156  -10.1275 C.ar    1  UNL1        0.0000
     10 C         -23.9234   51.5245   -8.8297 C.ar    1  UNL1        0.0015
     11 C         -24.8366   50.4874   -8.5874 C.ar    1  UNL1        0.0192
     12 C         -25.0282   49.9791   -7.2975 C.ar    1  UNL1        0.0989
     13 N         -25.9218   48.9780   -7.0872 N.ar    1  UNL1       -0.2393
     14 C         -30.0804   47.9650   -7.5267 C.3     1  UNL1        0.1007
     15 C         -30.7885   46.6820   -7.9867 C.3     1  UNL1        0.0265
     16 C         -29.9454   49.0074   -8.6297 C.ar    1  UNL1        0.0234
     17 C         -30.0703   48.6561   -9.9907 C.ar    1  UNL1        0.0019
     18 C         -29.8572   49.6056  -10.9934 C.ar    1  UNL1        0.0295
     19 C         -29.5059   50.9133  -10.6572 C.ar    1  UNL1        0.1424
     20 F         -29.2933   51.8308  -11.6325 F       1  UNL1       -0.2041
     21 C         -29.3611   51.2730   -9.3164 C.ar    1  UNL1        0.0590
     22 C         -29.5710   50.3287   -8.3064 C.ar    1  UNL1        0.1399
     23 F         -29.3891   50.7036   -7.0156 F       1  UNL1       -0.2044
     24 C         -28.5394   47.8511   -5.4964 C.3     1  UNL1        0.1204
     25 C         -26.8869   46.5434   -3.9789 C.ar    1  UNL1       -0.0183
     26 C         -28.0247   46.5768   -4.8446 C.ar    1  UNL1       -0.0061
     27 C         -28.6470   45.3689   -5.2052 C.ar    1  UNL1       -0.0029
     28 C         -28.2219   44.1574   -4.6778 C.ar    1  UNL1       -0.0001
     29 C         -27.1565   44.1183   -3.7891 C.ar    1  UNL1        0.0061
     30 C         -26.4809   45.2915   -3.4197 C.ar    1  UNL1        0.0713
     31 C         -25.3498   45.1422   -2.4695 C.2     1  UNL1        0.3377
     32 O         -24.1742   45.4455   -2.8041 O.2     1  UNL1       -0.2451
     33 O         -25.5942   44.7114   -1.1679 O.3     1  UNL1       -0.4771
     34 H         -24.8388   44.6211   -0.4990 H       1  UNL1        0.2954
     35 C         -26.5930   48.5389   -2.4625 C.3     1  UNL1        0.0050
     36 C         -26.0858   47.8070   -3.7052 C.3     1  UNL1        0.0263
@<TRIPOS>BOND
     1    35    36    1
     2    36    25    1
     3    25    26   ar
     4    26    24    1
     5    24     1    1
     6     1     2   am
     7     2     3    2
     8     2     4    1
     9     4     5   ar
    10     5     6   ar
    11     6     7   ar
    12     7     8   ar
    13     8     9   ar
    14     9    10   ar
    15    10    11   ar
    16    11    12   ar
    17    12    13   ar
    18     1    14    1
    19    14    15    1
    20    14    16    1
    21    16    17   ar
    22    17    18   ar
    23    18    19   ar
    24    19    20    1
    25    19    21   ar
    26    21    22   ar
    27    22    23    1
    28    26    27   ar
    29    27    28   ar
    30    28    29   ar
    31    29    30   ar
    32    30    31    1
    33    31    32    2
    34    31    33    1
    35    30    25   ar
    36    13     4   ar
    37    22    16   ar
    38    11     6   ar
    39    33    34    1
@<TRIPOS>MOLECULE
*****
 36 39 0 0 0
SMALL
GASTEIGER

@<TRIPOS>ATOM
      1 N         -30.2627   49.3965   -6.2099 N.am    1  UNL1       -0.2685
      2 C         -30.4209   50.0749   -7.4672 C.2     1  UNL1        0.2672
      3 O         -31.5570   50.5060   -7.8017 O.2     1  UNL1       -0.2682
      4 C         -29.2523   50.2873   -8.3449 C.ar    1  UNL1        0.1347
      5 C         -28.0701   50.8653   -7.8554 C.ar    1  UNL1        0.0238
      6 C         -26.9692   51.0133   -8.7094 C.ar    1  UNL1        0.0031
      7 C         -25.7722   51.5836   -8.2487 C.ar    1  UNL1        0.0001
      8 C         -24.6824   51.7204   -9.1143 C.ar    1  UNL1        0.0000
      9 C         -24.7789   51.2903  -10.4409 C.ar    1  UNL1        0.0000
     10 C         -25.9659   50.7205  -10.9112 C.ar    1  UNL1        0.0015
     11 C         -27.0649   50.5790  -10.0508 C.ar    1  UNL1        0.0192
     12 C         -28.2637   50.0104  -10.4962 C.ar    1  UNL1        0.0989
     13 N         -29.3124   49.8796   -9.6429 N.ar    1  UNL1       -0.2393
     14 C         -30.1355   50.1648   -4.9572 C.3     1  UNL1        0.1007
     15 C         -30.2522   51.6737   -5.2191 C.3     1  UNL1        0.0265
     16 C         -28.8591   49.7780   -4.2207 C.ar    1  UNL1        0.0234
     17 C         -27.6167   50.3608   -4.5496 C.ar    1  UNL1        0.0019
     18 C         -26.4421   49.9325   -3.9259 C.ar    1  UNL1        0.0295
     19 C         -26.4850   48.9116   -2.9758 C.ar    1  UNL1        0.1424
     20 F         -25.3427   48.4936   -2.3770 F       1  UNL1       -0.2041
     21 C         -27.7032   48.3125   -2.6515 C.ar    1  UNL1        0.0590
     22 C         -28.8835   48.7339   -3.2721 C.ar    1  UNL1        0.1399
     23 F         -30.0447   48.1072   -2.9579 F       1  UNL1       -0.2044
     24 C         -30.0284   47.9452   -6.2108 C.3     1  UNL1        0.1204
     25 C         -29.0146   46.8288   -8.3249 C.ar    1  UNL1       -0.0183
     26 C         -28.8621   47.5734   -7.1136 C.ar    1  UNL1       -0.0061
     27 C         -27.5690   47.8958   -6.6657 C.ar    1  UNL1       -0.0029
     28 C         -26.4477   47.5686   -7.4154 C.ar    1  UNL1       -0.0001
     29 C         -26.5864   46.8988   -8.6231 C.ar    1  UNL1        0.0061
     30 C         -27.8522   46.5266   -9.1011 C.ar    1  UNL1        0.0713
     31 C         -27.8931   45.8068  -10.3991 C.2     1  UNL1        0.3377
     32 O         -28.6041   46.2226  -11.3518 O.2     1  UNL1       -0.2451
     33 O         -27.0929   44.6833  -10.5907 O.3     1  UNL1       -0.4771
     34 H         -27.0924   44.1894  -11.4752 H       1  UNL1        0.2954
     35 C         -30.6061   44.8706   -8.3020 C.3     1  UNL1        0.0050
     36 C         -30.3816   46.3150   -8.7500 C.3     1  UNL1        0.0263
@<TRIPOS>BOND
     1    35    36    1
     2    36    25    1
     3    25    26   ar
     4    26    24    1
     5    24     1    1
     6     1     2   am
     7     2     3    2
     8     2     4    1
     9     4     5   ar
    10     5     6   ar
    11     6     7   ar
    12     7     8   ar
    13     8     9   ar
    14     9    10   ar
    15    10    11   ar
    16    11    12   ar
    17    12    13   ar
    18     1    14    1
    19    14    15    1
    20    14    16    1
    21    16    17   ar
    22    17    18   ar
    23    18    19   ar
    24    19    20    1
    25    19    21   ar
    26    21    22   ar
    27    22    23    1
    28    26    27   ar
    29    27    28   ar
    30    28    29   ar
    31    29    30   ar
    32    30    31    1
    33    31    32    2
    34    31    33    1
    35    30    25   ar
    36    13     4   ar
    37    22    16   ar
    38    11     6   ar
    39    33    34    1
@<TRIPOS>MOLECULE
*****
 36 39 0 0 0
SMALL
GASTEIGER

@<TRIPOS>ATOM
      1 N         -27.6016   48.9042   -6.0052 N.am    1  UNL1       -0.2685
      2 C         -27.1345   47.7012   -5.3721 C.2     1  UNL1        0.2672
      3 O         -26.1548   47.0801   -5.8650 O.2     1  UNL1       -0.2682
      4 C         -27.7835   47.2154   -4.1377 C.ar    1  UNL1        0.1347
      5 C         -28.2639   48.1097   -3.1677 C.ar    1  UNL1        0.0238
      6 C         -28.9098   47.6110   -2.0288 C.ar    1  UNL1        0.0031
      7 C         -29.4046   48.4796   -1.0434 C.ar    1  UNL1        0.0001
      8 C         -30.0496   47.9643    0.0853 C.ar    1  UNL1        0.0000
      9 C         -30.2051   46.5835    0.2380 C.ar    1  UNL1        0.0000
     10 C         -29.7167   45.7083   -0.7368 C.ar    1  UNL1        0.0015
     11 C         -29.0680   46.2154   -1.8727 C.ar    1  UNL1        0.0192
     12 C         -28.5716   45.3610   -2.8639 C.ar    1  UNL1        0.0989
     13 N         -27.9514   45.8760   -3.9571 N.ar    1  UNL1       -0.2393
     14 C         -26.9099   50.1865   -5.7751 C.3     1  UNL1        0.1007
     15 C         -27.8126   51.1748   -5.0217 C.3     1  UNL1        0.0265
     16 C         -26.3682   50.7437   -7.0856 C.ar    1  UNL1        0.0234
     17 C         -26.9892   51.8335   -7.7321 C.ar    1  UNL1        0.0019
     18 C         -26.5336   52.2768   -8.9763 C.ar    1  UNL1        0.0295
     19 C         -25.4626   51.6356   -9.5997 C.ar    1  UNL1        0.1424
     20 F         -25.0270   52.0638  -10.8101 F       1  UNL1       -0.2041
     21 C         -24.8483   50.5452   -8.9820 C.ar    1  UNL1        0.0590
     22 C         -25.2989   50.0939   -7.7373 C.ar    1  UNL1        0.1399
     23 F         -24.7008   49.0110   -7.1812 F       1  UNL1       -0.2044
     24 C         -28.8869   48.8781   -6.7184 C.3     1  UNL1        0.1204
     25 C         -28.5704   47.2247   -8.6956 C.ar    1  UNL1       -0.0183
     26 C         -29.1094   47.5416   -7.4095 C.ar    1  UNL1       -0.0061
     27 C         -29.9749   46.6266   -6.7849 C.ar    1  UNL1       -0.0029
     28 C         -30.2539   45.3950   -7.3609 C.ar    1  UNL1       -0.0001
     29 C         -29.6886   45.0508   -8.5809 C.ar    1  UNL1        0.0061
     30 C         -28.8422   45.9398   -9.2611 C.ar    1  UNL1        0.0713
     31 C         -28.2949   45.4804  -10.5626 C.2     1  UNL1        0.3377
     32 O         -28.8915   45.7284  -11.6436 O.2     1  UNL1       -0.2451
     33 O         -27.0745   44.8106  -10.6002 O.3     1  UNL1       -0.4771
     34 H         -26.6750   44.5056  -11.4799 H       1  UNL1        0.2954
     35 C         -28.6836   49.2775  -10.1589 C.3     1  UNL1        0.0050
     36 C         -27.7720   48.2580   -9.4756 C.3     1  UNL1        0.0263
@<TRIPOS>BOND
     1    35    36    1
     2    36    25    1
     3    25    26   ar
     4    26    24    1
     5    24     1    1
     6     1     2   am
     7     2     3    2
     8     2     4    1
     9     4     5   ar
    10     5     6   ar
    11     6     7   ar
    12     7     8   ar
    13     8     9   ar
    14     9    10   ar
    15    10    11   ar
    16    11    12   ar
    17    12    13   ar
    18     1    14    1
    19    14    15    1
    20    14    16    1
    21    16    17   ar
    22    17    18   ar
    23    18    19   ar
    24    19    20    1
    25    19    21   ar
    26    21    22   ar
    27    22    23    1
    28    26    27   ar
    29    27    28   ar
    30    28    29   ar
    31    29    30   ar
    32    30    31    1
    33    31    32    2
    34    31    33    1
    35    30    25   ar
    36    13     4   ar
    37    22    16   ar
    38    11     6   ar
    39    33    34    1
@<TRIPOS>MOLECULE
*****
 36 39 0 0 0
SMALL
GASTEIGER

@<TRIPOS>ATOM
      1 N         -29.8826   47.2444   -4.3788 N.am    1  UNL1       -0.2685
      2 C         -30.3735   48.4522   -4.9842 C.2     1  UNL1        0.2672
      3 O         -31.5835   48.7732   -4.8373 O.2     1  UNL1       -0.2682
      4 C         -29.4567   49.3216   -5.7487 C.ar    1  UNL1        0.1347
      5 C         -29.6837   49.6045   -7.1051 C.ar    1  UNL1        0.0238
      6 C         -28.8134   50.4662   -7.7855 C.ar    1  UNL1        0.0031
      7 C         -29.0161   50.7718   -9.1403 C.ar    1  UNL1        0.0001
      8 C         -28.1392   51.6366   -9.8026 C.ar    1  UNL1        0.0000
      9 C         -27.0577   52.2010   -9.1198 C.ar    1  UNL1        0.0000
     10 C         -26.8457   51.9044   -7.7701 C.ar    1  UNL1        0.0015
     11 C         -27.7197   51.0378   -7.0968 C.ar    1  UNL1        0.0192
     12 C         -27.5306   50.7261   -5.7455 C.ar    1  UNL1        0.0989
     13 N         -28.3932   49.8881   -5.1140 N.ar    1  UNL1       -0.2393
     14 C         -29.5240   47.2181   -2.9483 C.3     1  UNL1        0.1007
     15 C         -30.0618   48.4587   -2.2199 C.3     1  UNL1        0.0265
     16 C         -28.0226   47.0227   -2.7776 C.ar    1  UNL1        0.0234
     17 C         -27.1294   48.1136   -2.8357 C.ar    1  UNL1        0.0019
     18 C         -25.7491   47.9080   -2.7651 C.ar    1  UNL1        0.0295
     19 C         -25.2381   46.6150   -2.6478 C.ar    1  UNL1        0.1424
     20 F         -23.8981   46.4181   -2.5862 F       1  UNL1       -0.2041
     21 C         -26.1071   45.5236   -2.6065 C.ar    1  UNL1        0.0590
     22 C         -27.4899   45.7201   -2.6780 C.ar    1  UNL1        0.1399
     23 F         -28.3037   44.6351   -2.6689 F       1  UNL1       -0.2044
     24 C         -29.5541   46.1005   -5.2417 C.3     1  UNL1        0.1204
     25 C         -28.8846   46.3012   -7.7427 C.ar    1  UNL1       -0.0183
     26 C         -28.6004   46.5036   -6.3559 C.ar    1  UNL1       -0.0061
     27 C         -27.3405   47.0017   -5.9803 C.ar    1  UNL1       -0.0029
     28 C         -26.4003   47.3678   -6.9335 C.ar    1  UNL1       -0.0001
     29 C         -26.6873   47.2327   -8.2848 C.ar    1  UNL1        0.0061
     30 C         -27.9181   46.7121   -8.7131 C.ar    1  UNL1        0.0713
     31 C         -28.1245   46.6006  -10.1793 C.2     1  UNL1        0.3377
     32 O         -28.8393   47.4303  -10.8009 O.2     1  UNL1       -0.2451
     33 O         -27.4760   45.5959  -10.8930 O.3     1  UNL1       -0.4771
     34 H         -27.5889   45.5143  -11.8965 H       1  UNL1        0.2954
     35 C         -31.3085   46.6021   -8.3766 C.3     1  UNL1        0.0050
     36 C         -30.1661   45.6061   -8.1762 C.3     1  UNL1        0.0263
@<TRIPOS>BOND
     1    35    36    1
     2    36    25    1
     3    25    26   ar
     4    26    24    1
     5    24     1    1
     6     1     2   am
     7     2     3    2
     8     2     4    1
     9     4     5   ar
    10     5     6   ar
    11     6     7   ar
    12     7     8   ar
    13     8     9   ar
    14     9    10   ar
    15    10    11   ar
    16    11    12   ar
    17    12    13   ar
    18     1    14    1
    19    14    15    1
    20    14    16    1
    21    16    17   ar
    22    17    18   ar
    23    18    19   ar
    24    19    20    1
    25    19    21   ar
    26    21    22   ar
    27    22    23    1
    28    26    27   ar
    29    27    28   ar
    30    28    29   ar
    31    29    30   ar
    32    30    31    1
    33    31    32    2
    34    31    33    1
    35    30    25   ar
    36    13     4   ar
    37    22    16   ar
    38    11     6   ar
    39    33    34    1
@<TRIPOS>MOLECULE
*****
 36 39 0 0 0
SMALL
GASTEIGER

@<TRIPOS>ATOM
      1 N         -29.0051   48.7584   -4.8027 N.am    1  UNL1       -0.2685
      2 C         -28.2274   48.5186   -3.6179 C.2     1  UNL1        0.2672
      3 O         -27.0231   48.8885   -3.5801 O.2     1  UNL1       -0.2682
      4 C         -28.8471   47.8681   -2.4457 C.ar    1  UNL1        0.1347
      5 C         -29.5729   48.6105   -1.5005 C.ar    1  UNL1        0.0238
      6 C         -30.1800   47.9513   -0.4236 C.ar    1  UNL1        0.0031
      7 C         -30.9156   48.6650    0.5354 C.ar    1  UNL1        0.0001
      8 C         -31.5176   47.9900    1.6019 C.ar    1  UNL1        0.0000
      9 C         -31.3905   46.6027    1.7184 C.ar    1  UNL1        0.0000
     10 C         -30.6605   45.8809    0.7693 C.ar    1  UNL1        0.0015
     11 C         -30.0527   46.5489   -0.3043 C.ar    1  UNL1        0.0192
     12 C         -29.3181   45.8495   -1.2687 C.ar    1  UNL1        0.0989
     13 N         -28.7428   46.5179   -2.3017 N.ar    1  UNL1       -0.2393
     14 C         -29.5979   50.0860   -5.0513 C.3     1  UNL1        0.1007
     15 C         -31.1196   49.9871   -5.2348 C.3     1  UNL1        0.0265
     16 C         -28.8944   50.7758   -6.2135 C.ar    1  UNL1        0.0234
     17 C         -29.3538   50.6306   -7.5398 C.ar    1  UNL1        0.0019
     18 C         -28.6474   51.1972   -8.6039 C.ar    1  UNL1        0.0295
     19 C         -27.4692   51.9054   -8.3651 C.ar    1  UNL1        0.1424
     20 F         -26.7825   52.4484   -9.4003 F       1  UNL1       -0.2041
     21 C         -26.9916   52.0435   -7.0610 C.ar    1  UNL1        0.0590
     22 C         -27.6914   51.4783   -5.9902 C.ar    1  UNL1        0.1399
     23 F         -27.1812   51.6031   -4.7397 F       1  UNL1       -0.2044
     24 C         -29.3684   47.6180   -5.6563 C.3     1  UNL1        0.1204
     25 C         -28.6751   46.7076   -7.9874 C.ar    1  UNL1       -0.0183
     26 C         -28.3783   47.4435   -6.7977 C.ar    1  UNL1       -0.0061
     27 C         -27.0798   47.9486   -6.6105 C.ar    1  UNL1       -0.0029
     28 C         -26.1072   47.8086   -7.5908 C.ar    1  UNL1       -0.0001
     29 C         -26.4006   47.1486   -8.7761 C.ar    1  UNL1        0.0061
     30 C         -27.6721   46.5989   -9.0008 C.ar    1  UNL1        0.0713
     31 C         -27.8828   45.9060  -10.2970 C.2     1  UNL1        0.3377
     32 O         -28.6781   46.3652  -11.1587 O.2     1  UNL1       -0.2451
     33 O         -27.1517   44.7583  -10.5929 O.3     1  UNL1       -0.4771
     34 H         -27.2672   44.2817  -11.4793 H       1  UNL1        0.2954
     35 C         -31.0908   46.9477   -8.6763 C.3     1  UNL1        0.0050
     36 C         -30.0129   46.0017   -8.1467 C.3     1  UNL1        0.0263
@<TRIPOS>BOND
     1    35    36    1
     2    36    25    1
     3    25    26   ar
     4    26    24    1
     5    24     1    1
     6     1     2   am
     7     2     3    2
     8     2     4    1
     9     4     5   ar
    10     5     6   ar
    11     6     7   ar
    12     7     8   ar
    13     8     9   ar
    14     9    10   ar
    15    10    11   ar
    16    11    12   ar
    17    12    13   ar
    18     1    14    1
    19    14    15    1
    20    14    16    1
    21    16    17   ar
    22    17    18   ar
    23    18    19   ar
    24    19    20    1
    25    19    21   ar
    26    21    22   ar
    27    22    23    1
    28    26    27   ar
    29    27    28   ar
    30    28    29   ar
    31    29    30   ar
    32    30    31    1
    33    31    32    2
    34    31    33    1
    35    30    25   ar
    36    13     4   ar
    37    22    16   ar
    38    11     6   ar
    39    33    34    1
@<TRIPOS>MOLECULE
*****
 36 39 0 0 0
SMALL
GASTEIGER

@<TRIPOS>ATOM
      1 N         -25.7909   50.9458   -9.5031 N.am    1  UNL1       -0.2685
      2 C         -24.8933   51.1291  -10.6107 C.2     1  UNL1        0.2672
      3 O         -25.2095   50.6840  -11.7466 O.2     1  UNL1       -0.2682
      4 C         -23.6234   51.8585  -10.4203 C.ar    1  UNL1        0.1347
      5 C         -22.8788   51.7268   -9.2372 C.ar    1  UNL1        0.0238
      6 C         -21.6587   52.4037   -9.1106 C.ar    1  UNL1        0.0031
      7 C         -20.8895   52.2889   -7.9422 C.ar    1  UNL1        0.0001
      8 C         -19.6724   52.9692   -7.8345 C.ar    1  UNL1        0.0000
      9 C         -19.2158   53.7658   -8.8886 C.ar    1  UNL1        0.0000
     10 C         -19.9731   53.8878  -10.0576 C.ar    1  UNL1        0.0015
     11 C         -21.1954   53.2094  -10.1752 C.ar    1  UNL1        0.0192
     12 C         -21.9716   53.3134  -11.3353 C.ar    1  UNL1        0.0989
     13 N         -23.1494   52.6431  -11.4275 N.ar    1  UNL1       -0.2393
     14 C         -26.9510   51.8394   -9.3259 C.3     1  UNL1        0.1007
     15 C         -27.0226   52.3748   -7.8881 C.3     1  UNL1        0.0265
     16 C         -28.2318   51.1475   -9.7757 C.ar    1  UNL1        0.0234
     17 C         -29.1016   50.5378   -8.8467 C.ar    1  UNL1        0.0019
     18 C         -30.2262   49.8318   -9.2818 C.ar    1  UNL1        0.0295
     19 C         -30.4946   49.7126  -10.6458 C.ar    1  UNL1        0.1424
     20 F         -31.5830   49.0213  -11.0651 F       1  UNL1       -0.2041
     21 C         -29.6349   50.2948  -11.5785 C.ar    1  UNL1        0.0590
     22 C         -28.5062   51.0018  -11.1519 C.ar    1  UNL1        0.1399
     23 F         -27.6741   51.5261  -12.0860 F       1  UNL1       -0.2044
     24 C         -25.4279   49.9915   -8.4454 C.3     1  UNL1        0.1204
     25 C         -26.9187   48.2416   -7.2375 C.ar    1  UNL1       -0.0183
     26 C         -26.3654   48.7938   -8.4350 C.ar    1  UNL1       -0.0061
     27 C         -26.6043   48.1487   -9.6611 C.ar    1  UNL1       -0.0029
     28 C         -27.4256   47.0323   -9.7364 C.ar    1  UNL1       -0.0001
     29 C         -28.0174   46.5225   -8.5891 C.ar    1  UNL1        0.0061
     30 C         -27.7874   47.1101   -7.3357 C.ar    1  UNL1        0.0713
     31 C         -28.4604   46.4850   -6.1691 C.2     1  UNL1        0.3377
     32 O         -29.5881   46.8854   -5.7767 O.2     1  UNL1       -0.2451
     33 O         -27.8646   45.4022   -5.5272 O.3     1  UNL1       -0.4771
     34 H         -28.3165   44.9500   -4.7414 H       1  UNL1        0.2954
     35 C         -27.5915   49.7988   -5.3693 C.3     1  UNL1        0.0050
     36 C         -26.5422   48.8101   -5.8779 C.3     1  UNL1        0.0263
@<TRIPOS>BOND
     1    35    36    1
     2    36    25    1
     3    25    26   ar
     4    26    24    1
     5    24     1    1
     6     1     2   am
     7     2     3    2
     8     2     4    1
     9     4     5   ar
    10     5     6   ar
    11     6     7   ar
    12     7     8   ar
    13     8     9   ar
    14     9    10   ar
    15    10    11   ar
    16    11    12   ar
    17    12    13   ar
    18     1    14    1
    19    14    15    1
    20    14    16    1
    21    16    17   ar
    22    17    18   ar
    23    18    19   ar
    24    19    20    1
    25    19    21   ar
    26    21    22   ar
    27    22    23    1
    28    26    27   ar
    29    27    28   ar
    30    28    29   ar
    31    29    30   ar
    32    30    31    1
    33    31    32    2
    34    31    33    1
    35    30    25   ar
    36    13     4   ar
    37    22    16   ar
    38    11     6   ar
    39    33    34    1
@<TRIPOS>MOLECULE
*****
 36 39 0 0 0
SMALL
GASTEIGER

@<TRIPOS>ATOM
      1 N         -26.3677   50.4550   -8.5974 N.am    1  UNL1       -0.2685
      2 C         -25.8635   51.7074   -9.0908 C.2     1  UNL1        0.2672
      3 O         -26.5845   52.7386   -9.0194 O.2     1  UNL1       -0.2682
      4 C         -24.4994   51.7860   -9.6513 C.ar    1  UNL1        0.1347
      5 C         -23.3813   51.9692   -8.8220 C.ar    1  UNL1        0.0238
      6 C         -22.0998   51.9982   -9.3876 C.ar    1  UNL1        0.0031
      7 C         -20.9623   52.1756   -8.5847 C.ar    1  UNL1        0.0001
      8 C         -19.6907   52.1986   -9.1660 C.ar    1  UNL1        0.0000
      9 C         -19.5457   52.0451  -10.5479 C.ar    1  UNL1        0.0000
     10 C         -20.6713   51.8675  -11.3581 C.ar    1  UNL1        0.0015
     11 C         -21.9513   51.8430  -10.7844 C.ar    1  UNL1        0.0192
     12 C         -23.0940   51.6650  -11.5729 C.ar    1  UNL1        0.0989
     13 N         -24.3223   51.6400  -10.9937 N.ar    1  UNL1       -0.2393
     14 C         -26.3347   50.1529   -7.1540 C.3     1  UNL1        0.1007
     15 C         -25.7457   48.7585   -6.8938 C.3     1  UNL1        0.0265
     16 C         -27.7131   50.3499   -6.5355 C.ar    1  UNL1        0.0234
     17 C         -28.5889   49.2621   -6.3332 C.ar    1  UNL1        0.0019
     18 C         -29.8821   49.4703   -5.8466 C.ar    1  UNL1        0.0295
     19 C         -30.3257   50.7630   -5.5658 C.ar    1  UNL1        0.1424
     20 F         -31.5832   50.9625   -5.1000 F       1  UNL1       -0.2041
     21 C         -29.4781   51.8516   -5.7768 C.ar    1  UNL1        0.0590
     22 C         -28.1828   51.6525   -6.2650 C.ar    1  UNL1        0.1399
     23 F         -27.3975   52.7353   -6.4900 F       1  UNL1       -0.2044
     24 C         -26.7280   49.4054   -9.5615 C.3     1  UNL1        0.1204
     25 C         -28.9201   48.0149   -9.4892 C.ar    1  UNL1       -0.0183
     26 C         -28.2371   49.2569   -9.6797 C.ar    1  UNL1       -0.0061
     27 C         -28.9670   50.3828  -10.0993 C.ar    1  UNL1       -0.0029
     28 C         -30.3446   50.3261  -10.2590 C.ar    1  UNL1       -0.0001
     29 C         -31.0272   49.1417  -10.0185 C.ar    1  UNL1        0.0061
     30 C         -30.3429   47.9806   -9.6274 C.ar    1  UNL1        0.0713
     31 C         -31.1630   46.7634   -9.4024 C.2     1  UNL1        0.3377
     32 O         -31.5284   46.4297   -8.2444 O.2     1  UNL1       -0.2451
     33 O         -31.5836   46.0038  -10.4912 O.3     1  UNL1       -0.4771
     34 H         -32.1592   45.1806  -10.3602 H       1  UNL1        0.2954
     35 C         -28.0715   45.8340  -10.4333 C.3     1  UNL1        0.0050
     36 C         -28.1414   46.7400   -9.2038 C.3     1  UNL1        0.0263
@<TRIPOS>BOND
     1    35    36    1
     2    36    25    1
     3    25    26   ar
     4    26    24    1
     5    24     1    1
     6     1     2   am
     7     2     3    2
     8     2     4    1
     9     4     5   ar
    10     5     6   ar
    11     6     7   ar
    12     7     8   ar
    13     8     9   ar
    14     9    10   ar
    15    10    11   ar
    16    11    12   ar
    17    12    13   ar
    18     1    14    1
    19    14    15    1
    20    14    16    1
    21    16    17   ar
    22    17    18   ar
    23    18    19   ar
    24    19    20    1
    25    19    21   ar
    26    21    22   ar
    27    22    23    1
    28    26    27   ar
    29    27    28   ar
    30    28    29   ar
    31    29    30   ar
    32    30    31    1
    33    31    32    2
    34    31    33    1
    35    30    25   ar
    36    13     4   ar
    37    22    16   ar
    38    11     6   ar
    39    33    34    1
@<TRIPOS>MOLECULE
*****
 36 39 0 0 0
SMALL
GASTEIGER

@<TRIPOS>ATOM
      1 N         -27.6563   49.1438   -7.8888 N.am    1  UNL1       -0.2685
      2 C         -26.2398   48.9540   -8.0433 C.2     1  UNL1        0.2672
      3 O         -25.6835   47.9613   -7.5017 O.2     1  UNL1       -0.2682
      4 C         -25.4510   49.9029   -8.8548 C.ar    1  UNL1        0.1347
      5 C         -24.2828   50.4961   -8.3499 C.ar    1  UNL1        0.0238
      6 C         -23.5398   51.3602   -9.1650 C.ar    1  UNL1        0.0031
      7 C         -22.3656   51.9653   -8.6906 C.ar    1  UNL1        0.0001
      8 C         -21.6347   52.8225   -9.5192 C.ar    1  UNL1        0.0000
      9 C         -22.0688   53.0807  -10.8228 C.ar    1  UNL1        0.0000
     10 C         -23.2367   52.4835  -11.3066 C.ar    1  UNL1        0.0015
     11 C         -23.9770   51.6222  -10.4830 C.ar    1  UNL1        0.0192
     12 C         -25.1486   51.0105  -10.9438 C.ar    1  UNL1        0.0989
     13 N         -25.8456   50.1765  -10.1292 N.ar    1  UNL1       -0.2393
     14 C         -28.6070   48.3881   -8.7259 C.3     1  UNL1        0.1007
     15 C         -27.8920   47.2795   -9.5124 C.3     1  UNL1        0.0265
     16 C         -29.4080   49.3345   -9.6114 C.ar    1  UNL1        0.0234
     17 C         -28.7842   50.1026  -10.6175 C.ar    1  UNL1        0.0019
     18 C         -29.5172   51.0302  -11.3623 C.ar    1  UNL1        0.0295
     19 C         -30.8767   51.2151  -11.1091 C.ar    1  UNL1        0.1424
     20 F         -31.5838   52.1206  -11.8289 F       1  UNL1       -0.2041
     21 C         -31.5053   50.4760  -10.1058 C.ar    1  UNL1        0.0590
     22 C         -30.7790   49.5466   -9.3545 C.ar    1  UNL1        0.1399
     23 F         -31.4136   48.8698   -8.3650 F       1  UNL1       -0.2044
     24 C         -28.1367   50.2389   -7.0339 C.3     1  UNL1        0.1204
     25 C         -27.4151   49.2829   -4.7298 C.ar    1  UNL1       -0.0183
     26 C         -27.3583   50.3046   -5.7288 C.ar    1  UNL1       -0.0061
     27 C         -26.6364   51.4817   -5.4648 C.ar    1  UNL1       -0.0029
     28 C         -25.9205   51.6351   -4.2855 C.ar    1  UNL1       -0.0001
     29 C         -25.9186   50.6249   -3.3337 C.ar    1  UNL1        0.0061
     30 C         -26.6474   49.4426   -3.5340 C.ar    1  UNL1        0.0713
     31 C         -26.5867   48.4268   -2.4527 C.2     1  UNL1        0.3377
     32 O         -27.5113   48.3234   -1.6041 O.2     1  UNL1       -0.2451
     33 O         -25.5181   47.5351   -2.4028 O.3     1  UNL1       -0.4771
     34 H         -25.4677   46.8228   -1.6842 H       1  UNL1        0.2954
     35 C         -29.7492   48.3678   -4.4426 C.3     1  UNL1        0.0050
     36 C         -28.3228   48.0757   -4.9088 C.3     1  UNL1        0.0263
@<TRIPOS>BOND
     1    35    36    1
     2    36    25    1
     3    25    26   ar
     4    26    24    1
     5    24     1    1
     6     1     2   am
     7     2     3    2
     8     2     4    1
     9     4     5   ar
    10     5     6   ar
    11     6     7   ar
    12     7     8   ar
    13     8     9   ar
    14     9    10   ar
    15    10    11   ar
    16    11    12   ar
    17    12    13   ar
    18     1    14    1
    19    14    15    1
    20    14    16    1
    21    16    17   ar
    22    17    18   ar
    23    18    19   ar
    24    19    20    1
    25    19    21   ar
    26    21    22   ar
    27    22    23    1
    28    26    27   ar
    29    27    28   ar
    30    28    29   ar
    31    29    30   ar
    32    30    31    1
    33    31    32    2
    34    31    33    1
    35    30    25   ar
    36    13     4   ar
    37    22    16   ar
    38    11     6   ar
    39    33    34    1
@<TRIPOS>MOLECULE
*****
 36 39 0 0 0
SMALL
GASTEIGER

@<TRIPOS>ATOM
      1 N         -27.9607   48.9604   -7.9271 N.am    1  UNL1       -0.2685
      2 C         -27.1017   47.8108   -7.8466 C.2     1  UNL1        0.2672
      3 O         -26.3037   47.5645   -8.7905 O.2     1  UNL1       -0.2682
      4 C         -27.1377   46.9431   -6.6521 C.ar    1  UNL1        0.1347
      5 C         -26.1119   46.9806   -5.6941 C.ar    1  UNL1        0.0238
      6 C         -26.2022   46.1711   -4.5542 C.ar    1  UNL1        0.0031
      7 C         -25.1950   46.1892   -3.5767 C.ar    1  UNL1        0.0001
      8 C         -25.3034   45.3770   -2.4435 C.ar    1  UNL1        0.0000
      9 C         -26.4139   44.5440   -2.2782 C.ar    1  UNL1        0.0000
     10 C         -27.4236   44.5175   -3.2450 C.ar    1  UNL1        0.0015
     11 C         -27.3241   45.3285   -4.3853 C.ar    1  UNL1        0.0192
     12 C         -28.3218   45.3219   -5.3669 C.ar    1  UNL1        0.0989
     13 N         -28.2053   46.1197   -6.4600 N.ar    1  UNL1       -0.2393
     14 C         -27.4459   50.3025   -7.5961 C.3     1  UNL1        0.1007
     15 C         -28.5919   51.3148   -7.4519 C.3     1  UNL1        0.0265
     16 C         -26.3862   50.7314   -8.6034 C.ar    1  UNL1        0.0234
     17 C         -26.6879   50.8604   -9.9759 C.ar    1  UNL1        0.0019
     18 C         -25.6855   51.1691  -10.8991 C.ar    1  UNL1        0.0295
     19 C         -24.3685   51.3419  -10.4722 C.ar    1  UNL1        0.1424
     20 F         -23.3969   51.6349  -11.3712 F       1  UNL1       -0.2041
     21 C         -24.0500   51.2007   -9.1207 C.ar    1  UNL1        0.0590
     22 C         -25.0467   50.8904   -8.1900 C.ar    1  UNL1        0.1399
     23 F         -24.6964   50.7274   -6.8899 F       1  UNL1       -0.2044
     24 C         -29.4001   48.7571   -8.1464 C.3     1  UNL1        0.1204
     25 C         -29.7611   47.4915  -10.3851 C.ar    1  UNL1       -0.0183
     26 C         -29.7321   48.7056   -9.6298 C.ar    1  UNL1       -0.0061
     27 C         -29.9138   49.9307  -10.2950 C.ar    1  UNL1       -0.0029
     28 C         -30.1932   49.9749  -11.6539 C.ar    1  UNL1       -0.0001
     29 C         -30.2838   48.7995  -12.3865 C.ar    1  UNL1        0.0061
     30 C         -30.0807   47.5516  -11.7775 C.ar    1  UNL1        0.0713
     31 C         -30.1917   46.3548  -12.6493 C.2     1  UNL1        0.3377
     32 O         -31.3131   45.9367  -13.0411 O.2     1  UNL1       -0.2451
     33 O         -29.0372   45.7115  -13.0884 O.3     1  UNL1       -0.4771
     34 H         -29.0911   44.9048  -13.6988 H       1  UNL1        0.2954
     35 C         -30.6313   45.4625   -9.1630 C.3     1  UNL1        0.0050
     36 C         -29.3993   46.1660   -9.7327 C.3     1  UNL1        0.0263
@<TRIPOS>BOND
     1    35    36    1
     2    36    25    1
     3    25    26   ar
     4    26    24    1
     5    24     1    1
     6     1     2   am
     7     2     3    2
     8     2     4    1
     9     4     5   ar
    10     5     6   ar
    11     6     7   ar
    12     7     8   ar
    13     8     9   ar
    14     9    10   ar
    15    10    11   ar
    16    11    12   ar
    17    12    13   ar
    18     1    14    1
    19    14    15    1
    20    14    16    1
    21    16    17   ar
    22    17    18   ar
    23    18    19   ar
    24    19    20    1
    25    19    21   ar
    26    21    22   ar
    27    22    23    1
    28    26    27   ar
    29    27    28   ar
    30    28    29   ar
    31    29    30   ar
    32    30    31    1
    33    31    32    2
    34    31    33    1
    35    30    25   ar
    36    13     4   ar
    37    22    16   ar
    38    11     6   ar
    39    33    34    1
