@<TRIPOS>MOLECULE
*****
 54 60 0 0 0
SMALL
GASTEIGER

@<TRIPOS>ATOM
      1 C          60.6677   87.7655   10.5557 C.ar    1  UNL1        0.0481
      2 C          61.8828   87.6874   11.2535 C.ar    1  UNL1        0.0176
      3 C          61.9568   87.0046   12.4706 C.ar    1  UNL1        0.0382
      4 C          60.8224   86.3898   13.0116 C.ar    1  UNL1        0.1388
      5 C          59.6012   86.4683   12.3157 C.ar    1  UNL1        0.0382
      6 C          59.5266   87.1520   11.0986 C.ar    1  UNL1        0.0176
      7 N          59.9688   90.0262    7.0880 N.pl3   1  UNL1       -0.3041
      8 C          59.3116   88.7203    7.2206 C.3     1  UNL1        0.1122
      9 C          60.1634   87.7845    8.0819 C.3     1  UNL1        0.1122
     10 N          60.5966   88.4736    9.3036 N.pl3   1  UNL1       -0.3041
     11 C          61.2587   89.7753    9.1582 C.3     1  UNL1        0.1122
     12 C          60.3907   90.7090    8.3169 C.3     1  UNL1        0.1122
     13 C          59.7825   92.1863    3.4180 C.ar    1  UNL1        0.0699
     14 C          58.6311   92.0089    4.2039 C.ar    1  UNL1        0.0190
     15 C          58.6951   91.3013    5.4073 C.ar    1  UNL1        0.0160
     16 C          59.9093   90.7515    5.8451 C.ar    1  UNL1        0.0480
     17 C          61.0602   90.9223    5.0591 C.ar    1  UNL1        0.0160
     18 C          60.9970   91.6302    3.8557 C.ar    1  UNL1        0.0190
     19 N          59.6140   93.4503    0.0163 N.ar    1  UNL1       -0.2024
     20 N          59.6464   94.5865    0.6975 N.ar    1  UNL1       -0.1442
     21 C          59.7017   94.2535    2.0047 C.ar    1  UNL1        0.2073
     22 N          59.7095   92.9132    2.1762 N.ar    1  UNL1       -0.2398
     23 C          59.6658   92.4429    0.9138 C.ar    1  UNL1        0.3522
     24 O          59.7174   91.2204    0.6118 O.2     1  UNL1       -0.2444
     25 C          59.6146   93.3999   -1.4539 C.3     1  UNL1        0.1099
     26 C          60.6556   94.3431   -2.0763 C.3     1  UNL1        0.0265
     27 C          57.2204   92.4564   -1.7280 C.3     1  UNL1        0.0021
     28 C          58.1961   93.5946   -2.0324 C.3     1  UNL1        0.0245
     29 O          60.9497   85.7157   14.2347 O.3     1  UNL1       -0.4727
     30 C          62.0569   84.8896   14.5883 C.3     1  UNL1        0.2388
     31 C          61.7297   83.4239   14.2834 C.3     1  UNL1        0.2036
     32 O          60.6379   83.3692   13.4174 O.3     1  UNL1       -0.3244
     33 C          61.1054   82.8398   12.1898 C.3     1  UNL1        0.2244
     34 O          62.5089   82.6872   12.2328 O.3     1  UNL1       -0.3143
     35 C          62.8647   82.7152   13.5783 C.3     1  UNL1        0.2037
     36 N          63.0124   81.3469   14.0739 N.3     1  UNL1       -0.2971
     37 H          63.7432   80.8721   13.4957 H       1  UNL1        0.1211
     38 H          63.3940   81.3936   15.0468 H       1  UNL1        0.1211
     39 C          60.4126   81.4964   11.9250 C.ar    1  UNL1        0.0404
     40 C          59.1011   81.3110   12.4147 C.ar    1  UNL1        0.0021
     41 C          58.4048   80.1246   12.1822 C.ar    1  UNL1        0.0113
     42 C          58.9921   79.1021   11.4406 C.ar    1  UNL1        0.0585
     43 CL         58.1115   77.6139   11.1455 Cl      1  UNL1       -0.0822
     44 C          60.2742   79.2707   10.9180 C.ar    1  UNL1        0.0226
     45 C          60.9876   80.4558   11.1398 C.ar    1  UNL1        0.0591
     46 CL         62.5648   80.5755   10.3599 Cl      1  UNL1       -0.0824
     47 C          60.7547   83.8554   11.0841 C.3     1  UNL1        0.1339
     48 N          61.5277   83.5909    9.8467 N.3     1  UNL1       -0.2659
     49 C          60.6704   83.2001    8.6959 C.3     1  UNL1        0.0898
     50 C          60.4857   84.3454    7.6868 C.3     1  UNL1        0.0897
     51 N          61.7793   84.8412    7.1536 N.3     1  UNL1       -0.2691
     52 C          62.0743   84.2611    5.8343 C.3     1  UNL1        0.0897
     53 C          62.9202   84.6364    8.0763 C.3     1  UNL1        0.0897
     54 C          62.4658   84.6946    9.5379 C.3     1  UNL1        0.0898
@<TRIPOS>BOND
     1    27    28    1
     2    28    25    1
     3    25    26    1
     4    25    19    1
     5    19    20   ar
     6    20    21   ar
     7    21    22   ar
     8    22    13    1
     9    13    14   ar
    10    14    15   ar
    11    15    16   ar
    12    16     7    1
    13     7     8    1
    14     8     9    1
    15     9    10    1
    16    10     1    1
    17     1     2   ar
    18     2     3   ar
    19     3     4   ar
    20     4    29    1
    21    29    30    1
    22    30    31    1
    23    31    32    1
    24    32    33    1
    25    33    47    1
    26    47    48    1
    27    48    49    1
    28    49    50    1
    29    50    51    1
    30    51    52    1
    31    51    53    1
    32    53    54    1
    33    33    39    1
    34    39    40   ar
    35    40    41   ar
    36    41    42   ar
    37    42    43    1
    38    42    44   ar
    39    44    45   ar
    40    45    46    1
    41    33    34    1
    42    34    35    1
    43    35    36    1
    44     4     5   ar
    45     5     6   ar
    46    10    11    1
    47    11    12    1
    48    16    17   ar
    49    17    18   ar
    50    22    23   ar
    51    23    24    2
    52    23    19   ar
    53    18    13   ar
    54    12     7    1
    55     6     1   ar
    56    35    31    1
    57    54    48    1
    58    45    39   ar
    59    36    37    1
    60    36    38    1
@<TRIPOS>MOLECULE
*****
 54 60 0 0 0
SMALL
GASTEIGER

@<TRIPOS>ATOM
      1 C          60.1405   87.2405   10.3083 C.ar    1  UNL1        0.0481
      2 C          61.2622   87.2075   11.1510 C.ar    1  UNL1        0.0176
      3 C          61.2580   86.4170   12.3034 C.ar    1  UNL1        0.0382
      4 C          60.1371   85.6480   12.6346 C.ar    1  UNL1        0.1388
      5 C          59.0091   85.6806   11.7930 C.ar    1  UNL1        0.0382
      6 C          59.0126   86.4719   10.6405 C.ar    1  UNL1        0.0176
      7 N          59.6778   89.8330    7.0389 N.pl3   1  UNL1       -0.3041
      8 C          58.9548   88.5555    7.0313 C.3     1  UNL1        0.1122
      9 C          59.7289   87.5049    7.8313 C.3     1  UNL1        0.1122
     10 N          60.1492   88.0597    9.1238 N.pl3   1  UNL1       -0.3041
     11 C          60.8773   89.3341    9.1185 C.3     1  UNL1        0.1122
     12 C          60.0861   90.3816    8.3376 C.3     1  UNL1        0.1122
     13 C          59.7491   92.2912    3.5573 C.ar    1  UNL1        0.0699
     14 C          60.9219   91.6708    4.0201 C.ar    1  UNL1        0.0190
     15 C          60.8957   90.8644    5.1612 C.ar    1  UNL1        0.0160
     16 C          59.6984   90.6680    5.8656 C.ar    1  UNL1        0.0480
     17 C          58.5261   91.2912    5.4087 C.ar    1  UNL1        0.0160
     18 C          58.5516   92.0975    4.2673 C.ar    1  UNL1        0.0190
     19 N          59.6889   93.8658    0.2839 N.ar    1  UNL1       -0.2024
     20 N          60.0515   94.8909    1.0412 N.ar    1  UNL1       -0.1442
     21 C          60.1042   94.4356    2.3110 C.ar    1  UNL1        0.2073
     22 N          59.7832   93.1249    2.3827 N.ar    1  UNL1       -0.2398
     23 C          59.5411   92.7984    1.0976 C.ar    1  UNL1        0.3522
     24 O          59.2620   91.6343    0.7036 O.2     1  UNL1       -0.2444
     25 C          59.5825   93.9525   -1.1807 C.3     1  UNL1        0.1099
     26 C          60.9143   94.3294   -1.8478 C.3     1  UNL1        0.0265
     27 C          57.0198   94.2782   -1.3370 C.3     1  UNL1        0.0021
     28 C          58.4085   94.8567   -1.6154 C.3     1  UNL1        0.0245
     29 O          60.1839   84.8705   13.8007 O.3     1  UNL1       -0.4727
     30 C          61.3717   84.5999   14.5420 C.3     1  UNL1        0.2388
     31 C          62.0255   83.3143   14.0243 C.3     1  UNL1        0.2036
     32 O          61.1115   82.6245   13.2282 O.3     1  UNL1       -0.3244
     33 C          61.6167   82.6385   11.9052 C.3     1  UNL1        0.2244
     34 O          62.7730   83.4469   11.8383 O.3     1  UNL1       -0.3143
     35 C          63.2257   83.5918   13.1468 C.3     1  UNL1        0.2037
     36 N          64.2939   82.6263   13.4047 N.3     1  UNL1       -0.2971
     37 H          65.0598   82.8013   12.7142 H       1  UNL1        0.1211
     38 H          64.6972   82.8329   14.3475 H       1  UNL1        0.1211
     39 C          61.9239   81.1998   11.4687 C.ar    1  UNL1        0.0404
     40 C          62.7836   81.0034   10.3657 C.ar    1  UNL1        0.0021
     41 C          63.1265   79.7207    9.9372 C.ar    1  UNL1        0.0113
     42 C          62.6356   78.6037   10.6092 C.ar    1  UNL1        0.0585
     43 CL         63.0734   76.9925   10.0711 Cl      1  UNL1       -0.0822
     44 C          61.8101   78.7687   11.7212 C.ar    1  UNL1        0.0226
     45 C          61.4566   80.0489   12.1668 C.ar    1  UNL1        0.0591
     46 CL         60.4731   80.1233   13.6288 Cl      1  UNL1       -0.0824
     47 C          60.5313   83.2568   11.0015 C.3     1  UNL1        0.1339
     48 N          60.3449   82.4612    9.7643 N.3     1  UNL1       -0.2659
     49 C          59.1369   81.5946    9.8047 C.3     1  UNL1        0.0898
     50 C          57.9801   82.1617    8.9654 C.3     1  UNL1        0.0897
     51 N          58.3597   82.3614    7.5443 N.3     1  UNL1       -0.2691
     52 C          57.8952   81.2479    6.7025 C.3     1  UNL1        0.0897
     53 C          59.8091   82.5931    7.3431 C.3     1  UNL1        0.0897
     54 C          60.4273   83.3052    8.5501 C.3     1  UNL1        0.0898
@<TRIPOS>BOND
     1    27    28    1
     2    28    25    1
     3    25    26    1
     4    25    19    1
     5    19    20   ar
     6    20    21   ar
     7    21    22   ar
     8    22    13    1
     9    13    14   ar
    10    14    15   ar
    11    15    16   ar
    12    16     7    1
    13     7     8    1
    14     8     9    1
    15     9    10    1
    16    10     1    1
    17     1     2   ar
    18     2     3   ar
    19     3     4   ar
    20     4    29    1
    21    29    30    1
    22    30    31    1
    23    31    32    1
    24    32    33    1
    25    33    47    1
    26    47    48    1
    27    48    49    1
    28    49    50    1
    29    50    51    1
    30    51    52    1
    31    51    53    1
    32    53    54    1
    33    33    39    1
    34    39    40   ar
    35    40    41   ar
    36    41    42   ar
    37    42    43    1
    38    42    44   ar
    39    44    45   ar
    40    45    46    1
    41    33    34    1
    42    34    35    1
    43    35    36    1
    44     4     5   ar
    45     5     6   ar
    46    10    11    1
    47    11    12    1
    48    16    17   ar
    49    17    18   ar
    50    22    23   ar
    51    23    24    2
    52    23    19   ar
    53    18    13   ar
    54    12     7    1
    55     6     1   ar
    56    35    31    1
    57    54    48    1
    58    45    39   ar
    59    36    37    1
    60    36    38    1
@<TRIPOS>MOLECULE
*****
 54 60 0 0 0
SMALL
GASTEIGER

@<TRIPOS>ATOM
      1 C          60.7994   85.8557   10.0517 C.ar    1  UNL1        0.0481
      2 C          62.0609   85.4101   10.4752 C.ar    1  UNL1        0.0176
      3 C          62.1693   84.4420   11.4772 C.ar    1  UNL1        0.0382
      4 C          61.0237   83.9032   12.0729 C.ar    1  UNL1        0.1388
      5 C          59.7566   84.3497   11.6523 C.ar    1  UNL1        0.0382
      6 C          59.6478   85.3188   10.6506 C.ar    1  UNL1        0.0176
      7 N          59.9917   88.8934    7.2687 N.pl3   1  UNL1       -0.3041
      8 C          59.3966   87.5684    7.0562 C.3     1  UNL1        0.1122
      9 C          60.2922   86.4834    7.6593 C.3     1  UNL1        0.1122
     10 N          60.6939   86.8563    9.0212 N.pl3   1  UNL1       -0.3041
     11 C          61.2941   88.1807    9.2203 C.3     1  UNL1        0.1122
     12 C          60.3823   89.2578    8.6358 C.3     1  UNL1        0.1122
     13 C          59.7219   91.8880    4.2474 C.ar    1  UNL1        0.0699
     14 C          60.9586   91.3020    4.5664 C.ar    1  UNL1        0.0190
     15 C          61.0442   90.3195    5.5566 C.ar    1  UNL1        0.0160
     16 C          59.8969   89.9087    6.2517 C.ar    1  UNL1        0.0480
     17 C          58.6608   90.4967    5.9390 C.ar    1  UNL1        0.0160
     18 C          58.5743   91.4790    4.9486 C.ar    1  UNL1        0.0190
     19 N          59.4397   93.9659    1.2807 N.ar    1  UNL1       -0.2024
     20 N          59.6679   94.8885    2.2042 N.ar    1  UNL1       -0.1442
     21 C          59.7860   94.2382    3.3813 C.ar    1  UNL1        0.2073
     22 N          59.6405   92.9035    3.2285 N.ar    1  UNL1       -0.2398
     23 C          59.4374   92.7676    1.9030 C.ar    1  UNL1        0.3522
     24 O          59.3120   91.6593    1.3162 O.2     1  UNL1       -0.2444
     25 C          59.3160   94.2815   -0.1507 C.3     1  UNL1        0.1099
     26 C          57.9085   93.9981   -0.6979 C.3     1  UNL1        0.0265
     27 C          61.6696   94.4919   -1.2061 C.3     1  UNL1        0.0021
     28 C          60.4354   93.6163   -0.9808 C.3     1  UNL1        0.0245
     29 O          61.1864   82.9332   13.0724 O.3     1  UNL1       -0.4727
     30 C          61.8937   83.1439   14.2926 C.3     1  UNL1        0.2388
     31 C          62.8228   84.3544   14.1521 C.3     1  UNL1        0.2036
     32 O          62.0641   85.4783   13.8263 O.3     1  UNL1       -0.3244
     33 C          62.1439   86.3684   14.9250 C.3     1  UNL1        0.2244
     34 O          62.8356   85.7560   15.9934 O.3     1  UNL1       -0.3143
     35 C          63.5360   84.6857   15.4441 C.3     1  UNL1        0.2037
     36 N          64.9193   85.0863   15.1875 N.3     1  UNL1       -0.2971
     37 H          65.3397   85.3920   16.0951 H       1  UNL1        0.1211
     38 H          65.4529   84.2374   14.8893 H       1  UNL1        0.1211
     39 C          62.8481   87.6567   14.4787 C.ar    1  UNL1        0.0404
     40 C          62.9450   87.9224   13.0952 C.ar    1  UNL1        0.0021
     41 C          63.5463   89.0901   12.6247 C.ar    1  UNL1        0.0113
     42 C          64.0487   90.0293   13.5224 C.ar    1  UNL1        0.0585
     43 CL         64.7991   91.4990   12.9275 Cl      1  UNL1       -0.0822
     44 C          63.9380   89.8074   14.8950 C.ar    1  UNL1        0.0226
     45 C          63.3359   88.6415   15.3855 C.ar    1  UNL1        0.0591
     46 CL         63.1872   88.5173   17.1384 Cl      1  UNL1       -0.0824
     47 C          60.7026   86.6711   15.3813 C.3     1  UNL1        0.1339
     48 N          59.7998   86.8592   14.2203 N.3     1  UNL1       -0.2659
     49 C          58.8528   85.7285   14.0287 C.3     1  UNL1        0.0898
     50 C          57.4294   86.0697   14.4993 C.3     1  UNL1        0.0897
     51 N          56.8762   87.2599   13.8058 N.3     1  UNL1       -0.2691
     52 C          55.9873   86.8723   12.6996 C.3     1  UNL1        0.0897
     53 C          57.9127   88.2058   13.3303 C.3     1  UNL1        0.0897
     54 C          59.1407   88.1853   14.2455 C.3     1  UNL1        0.0898
@<TRIPOS>BOND
     1    27    28    1
     2    28    25    1
     3    25    26    1
     4    25    19    1
     5    19    20   ar
     6    20    21   ar
     7    21    22   ar
     8    22    13    1
     9    13    14   ar
    10    14    15   ar
    11    15    16   ar
    12    16     7    1
    13     7     8    1
    14     8     9    1
    15     9    10    1
    16    10     1    1
    17     1     2   ar
    18     2     3   ar
    19     3     4   ar
    20     4    29    1
    21    29    30    1
    22    30    31    1
    23    31    32    1
    24    32    33    1
    25    33    47    1
    26    47    48    1
    27    48    49    1
    28    49    50    1
    29    50    51    1
    30    51    52    1
    31    51    53    1
    32    53    54    1
    33    33    39    1
    34    39    40   ar
    35    40    41   ar
    36    41    42   ar
    37    42    43    1
    38    42    44   ar
    39    44    45   ar
    40    45    46    1
    41    33    34    1
    42    34    35    1
    43    35    36    1
    44     4     5   ar
    45     5     6   ar
    46    10    11    1
    47    11    12    1
    48    16    17   ar
    49    17    18   ar
    50    22    23   ar
    51    23    24    2
    52    23    19   ar
    53    18    13   ar
    54    12     7    1
    55     6     1   ar
    56    35    31    1
    57    54    48    1
    58    45    39   ar
    59    36    37    1
    60    36    38    1
@<TRIPOS>MOLECULE
*****
 54 60 0 0 0
SMALL
GASTEIGER

@<TRIPOS>ATOM
      1 C          60.0674   87.5597   10.3540 C.ar    1  UNL1        0.0481
      2 C          61.1314   87.6271   11.2666 C.ar    1  UNL1        0.0176
      3 C          61.0928   86.8904   12.4535 C.ar    1  UNL1        0.0382
      4 C          59.9944   86.0762   12.7502 C.ar    1  UNL1        0.1388
      5 C          58.9241   86.0082   11.8383 C.ar    1  UNL1        0.0382
      6 C          58.9619   86.7456   10.6512 C.ar    1  UNL1        0.0176
      7 N          59.6970   89.9919    6.9523 N.pl3   1  UNL1       -0.3041
      8 C          58.9929   88.7041    6.9762 C.3     1  UNL1        0.1122
      9 C          59.7497   87.7037    7.8534 C.3     1  UNL1        0.1122
     10 N          60.1111   88.3238    9.1340 N.pl3   1  UNL1       -0.3041
     11 C          60.8210   89.6079    9.0975 C.3     1  UNL1        0.1122
     12 C          60.0464   90.6059    8.2389 C.3     1  UNL1        0.1122
     13 C          59.8499   92.3157    3.3821 C.ar    1  UNL1        0.0699
     14 C          58.6455   92.1707    4.0913 C.ar    1  UNL1        0.0190
     15 C          58.5982   91.4093    5.2622 C.ar    1  UNL1        0.0160
     16 C          59.7520   90.7725    5.7432 C.ar    1  UNL1        0.0480
     17 C          60.9557   90.9109    5.0336 C.ar    1  UNL1        0.0160
     18 C          61.0038   91.6726    3.8627 C.ar    1  UNL1        0.0190
     19 N          59.9077   93.7352    0.0386 N.ar    1  UNL1       -0.2024
     20 N          60.0621   94.8289    0.7707 N.ar    1  UNL1       -0.1442
     21 C          60.0489   94.4361    2.0623 C.ar    1  UNL1        0.2073
     22 N          59.8916   93.0985    2.1733 N.ar    1  UNL1       -0.2398
     23 C          59.8186   92.6915    0.8905 C.ar    1  UNL1        0.3522
     24 O          59.7292   91.4858    0.5345 O.2     1  UNL1       -0.2444
     25 C          59.9337   93.7481   -1.4322 C.3     1  UNL1        0.1099
     26 C          61.1748   94.4582   -1.9943 C.3     1  UNL1        0.0265
     27 C          57.3492   93.7945   -1.3047 C.3     1  UNL1        0.0021
     28 C          58.6099   94.2813   -2.0220 C.3     1  UNL1        0.0245
     29 O          60.0050   85.3560   13.9534 O.3     1  UNL1       -0.4727
     30 C          61.1759   85.0880   14.7220 C.3     1  UNL1        0.2388
     31 C          61.7847   83.7492   14.2916 C.3     1  UNL1        0.2036
     32 O          61.0612   83.2434   13.2119 O.3     1  UNL1       -0.3244
     33 C          61.9253   83.2524   12.0898 C.3     1  UNL1        0.2244
     34 O          63.1433   83.8849   12.4232 O.3     1  UNL1       -0.3143
     35 C          63.2124   83.8933   13.8135 C.3     1  UNL1        0.2037
     36 N          64.0303   82.7695   14.2695 N.3     1  UNL1       -0.2971
     37 H          64.9788   82.8662   13.8396 H       1  UNL1        0.1211
     38 H          64.1661   82.8651   15.3024 H       1  UNL1        0.1211
     39 C          62.1625   81.8090   11.6260 C.ar    1  UNL1        0.0404
     40 C          61.1598   80.8488   11.8849 C.ar    1  UNL1        0.0021
     41 C          61.3006   79.5264   11.4631 C.ar    1  UNL1        0.0113
     42 C          62.4356   79.1339   10.7574 C.ar    1  UNL1        0.0585
     43 CL         62.6067   77.4717   10.2238 Cl      1  UNL1       -0.0822
     44 C          63.4271   80.0688   10.4602 C.ar    1  UNL1        0.0226
     45 C          63.3019   81.4012   10.8741 C.ar    1  UNL1        0.0591
     46 CL         64.5850   82.5002   10.3678 Cl      1  UNL1       -0.0824
     47 C          61.2344   84.0696   10.9798 C.3     1  UNL1        0.1339
     48 N          61.8682   83.8282    9.6613 N.3     1  UNL1       -0.2659
     49 C          60.9435   83.2093    8.6744 C.3     1  UNL1        0.0898
     50 C          60.4330   84.2207    7.6349 C.3     1  UNL1        0.0897
     51 N          61.5399   84.8700    6.8888 N.3     1  UNL1       -0.2691
     52 C          61.7499   84.2349    5.5786 C.3     1  UNL1        0.0897
     53 C          62.8123   84.9291    7.6456 C.3     1  UNL1        0.0897
     54 C          62.5547   85.0375    9.1515 C.3     1  UNL1        0.0898
@<TRIPOS>BOND
     1    27    28    1
     2    28    25    1
     3    25    26    1
     4    25    19    1
     5    19    20   ar
     6    20    21   ar
     7    21    22   ar
     8    22    13    1
     9    13    14   ar
    10    14    15   ar
    11    15    16   ar
    12    16     7    1
    13     7     8    1
    14     8     9    1
    15     9    10    1
    16    10     1    1
    17     1     2   ar
    18     2     3   ar
    19     3     4   ar
    20     4    29    1
    21    29    30    1
    22    30    31    1
    23    31    32    1
    24    32    33    1
    25    33    47    1
    26    47    48    1
    27    48    49    1
    28    49    50    1
    29    50    51    1
    30    51    52    1
    31    51    53    1
    32    53    54    1
    33    33    39    1
    34    39    40   ar
    35    40    41   ar
    36    41    42   ar
    37    42    43    1
    38    42    44   ar
    39    44    45   ar
    40    45    46    1
    41    33    34    1
    42    34    35    1
    43    35    36    1
    44     4     5   ar
    45     5     6   ar
    46    10    11    1
    47    11    12    1
    48    16    17   ar
    49    17    18   ar
    50    22    23   ar
    51    23    24    2
    52    23    19   ar
    53    18    13   ar
    54    12     7    1
    55     6     1   ar
    56    35    31    1
    57    54    48    1
    58    45    39   ar
    59    36    37    1
    60    36    38    1
@<TRIPOS>MOLECULE
*****
 54 60 0 0 0
SMALL
GASTEIGER

@<TRIPOS>ATOM
      1 C          60.0940   87.3694   10.2919 C.ar    1  UNL1        0.0481
      2 C          61.1650   87.4160   11.1974 C.ar    1  UNL1        0.0176
      3 C          61.1403   86.6444   12.3623 C.ar    1  UNL1        0.0382
      4 C          60.0489   85.8153   12.6436 C.ar    1  UNL1        0.1388
      5 C          58.9715   85.7681   11.7387 C.ar    1  UNL1        0.0382
      6 C          58.9955   86.5405   10.5737 C.ar    1  UNL1        0.0176
      7 N          59.6880   89.9082    6.9731 N.pl3   1  UNL1       -0.3041
      8 C          58.9669   88.6296    6.9729 C.3     1  UNL1        0.1122
      9 C          59.7276   87.5933    7.8038 C.3     1  UNL1        0.1122
     10 N          60.1233   88.1695    9.0947 N.pl3   1  UNL1       -0.3041
     11 C          60.8498   89.4448    9.0821 C.3     1  UNL1        0.1122
     12 C          60.0717   90.4783    8.2701 C.3     1  UNL1        0.1122
     13 C          59.8195   92.3099    3.4540 C.ar    1  UNL1        0.0699
     14 C          60.9763   91.6664    3.9255 C.ar    1  UNL1        0.0190
     15 C          60.9302   90.8785    5.0789 C.ar    1  UNL1        0.0160
     16 C          59.7291   90.7243    5.7871 C.ar    1  UNL1        0.0480
     17 C          58.5729   91.3708    5.3215 C.ar    1  UNL1        0.0160
     18 C          58.6181   92.1585    4.1678 C.ar    1  UNL1        0.0190
     19 N          59.9212   93.8163    0.1497 N.ar    1  UNL1       -0.2024
     20 N          60.0505   94.8922    0.9125 N.ar    1  UNL1       -0.1442
     21 C          60.0186   94.4658    2.1930 C.ar    1  UNL1        0.2073
     22 N          59.8740   93.1243    2.2667 N.ar    1  UNL1       -0.2398
     23 C          59.8284   92.7499    0.9727 C.ar    1  UNL1        0.3522
     24 O          59.7585   91.5530    0.5843 O.2     1  UNL1       -0.2444
     25 C          59.9732   93.8676   -1.3195 C.3     1  UNL1        0.1099
     26 C          58.8098   93.1102   -1.9779 C.3     1  UNL1        0.0265
     27 C          62.5383   93.8513   -0.9759 C.3     1  UNL1        0.0021
     28 C          61.3567   93.4413   -1.8571 C.3     1  UNL1        0.0245
     29 O          60.0734   85.0600   13.8248 O.3     1  UNL1       -0.4727
     30 C          61.2542   84.7623   14.5668 C.3     1  UNL1        0.2388
     31 C          61.8178   83.4076   14.1249 C.3     1  UNL1        0.2036
     32 O          61.0231   82.8934   13.1006 O.3     1  UNL1       -0.3244
     33 C          61.8172   82.8702   11.9281 C.3     1  UNL1        0.2244
     34 O          63.0617   83.4908   12.1753 O.3     1  UNL1       -0.3143
     35 C          63.2155   83.5226   13.5585 C.3     1  UNL1        0.2037
     36 N          64.0446   82.3953   13.9846 N.3     1  UNL1       -0.2971
     37 H          64.9664   82.4708   13.4962 H       1  UNL1        0.1211
     38 H          64.2445   82.5071   15.0053 H       1  UNL1        0.1211
     39 C          62.0065   81.4156   11.4775 C.ar    1  UNL1        0.0404
     40 C          63.0076   81.1352   10.5218 C.ar    1  UNL1        0.0021
     41 C          63.2505   79.8302   10.0925 C.ar    1  UNL1        0.0113
     42 C          62.5140   78.7716   10.6191 C.ar    1  UNL1        0.0585
     43 CL         62.8259   77.1313   10.0811 Cl      1  UNL1       -0.0822
     44 C          61.5407   79.0161   11.5877 C.ar    1  UNL1        0.0226
     45 C          61.2843   80.3197   12.0320 C.ar    1  UNL1        0.0591
     46 CL         60.0859   80.4861   13.3151 Cl      1  UNL1       -0.0824
     47 C          61.0709   83.6776   10.8474 C.3     1  UNL1        0.1339
     48 N          61.7234   83.5347    9.5236 N.3     1  UNL1       -0.2659
     49 C          60.7988   83.0423    8.4678 C.3     1  UNL1        0.0898
     50 C          60.3452   84.1621    7.5169 C.3     1  UNL1        0.0897
     51 N          61.4891   84.8363    6.8532 N.3     1  UNL1       -0.2691
     52 C          61.7044   84.3162    5.4941 C.3     1  UNL1        0.0897
     53 C          62.7467   84.7801    7.6345 C.3     1  UNL1        0.0897
     54 C          62.4616   84.7599    9.1393 C.3     1  UNL1        0.0898
@<TRIPOS>BOND
     1    27    28    1
     2    28    25    1
     3    25    26    1
     4    25    19    1
     5    19    20   ar
     6    20    21   ar
     7    21    22   ar
     8    22    13    1
     9    13    14   ar
    10    14    15   ar
    11    15    16   ar
    12    16     7    1
    13     7     8    1
    14     8     9    1
    15     9    10    1
    16    10     1    1
    17     1     2   ar
    18     2     3   ar
    19     3     4   ar
    20     4    29    1
    21    29    30    1
    22    30    31    1
    23    31    32    1
    24    32    33    1
    25    33    47    1
    26    47    48    1
    27    48    49    1
    28    49    50    1
    29    50    51    1
    30    51    52    1
    31    51    53    1
    32    53    54    1
    33    33    39    1
    34    39    40   ar
    35    40    41   ar
    36    41    42   ar
    37    42    43    1
    38    42    44   ar
    39    44    45   ar
    40    45    46    1
    41    33    34    1
    42    34    35    1
    43    35    36    1
    44     4     5   ar
    45     5     6   ar
    46    10    11    1
    47    11    12    1
    48    16    17   ar
    49    17    18   ar
    50    22    23   ar
    51    23    24    2
    52    23    19   ar
    53    18    13   ar
    54    12     7    1
    55     6     1   ar
    56    35    31    1
    57    54    48    1
    58    45    39   ar
    59    36    37    1
    60    36    38    1
@<TRIPOS>MOLECULE
*****
 54 60 0 0 0
SMALL
GASTEIGER

@<TRIPOS>ATOM
      1 C          60.9773   87.7320   11.0207 C.ar    1  UNL1        0.0481
      2 C          62.2426   87.3120   11.4591 C.ar    1  UNL1        0.0176
      3 C          62.3876   86.6758   12.6948 C.ar    1  UNL1        0.0382
      4 C          61.2756   86.4486   13.5130 C.ar    1  UNL1        0.1388
      5 C          60.0053   86.8708   13.0776 C.ar    1  UNL1        0.0382
      6 C          59.8598   87.5081   11.8418 C.ar    1  UNL1        0.0176
      7 N          60.0577   89.8153    7.4938 N.pl3   1  UNL1       -0.3041
      8 C          59.5057   88.4678    7.6790 C.3     1  UNL1        0.1122
      9 C          60.4392   87.6296    8.5560 C.3     1  UNL1        0.1122
     10 N          60.8343   88.3903    9.7477 N.pl3   1  UNL1       -0.3041
     11 C          61.3915   89.7337    9.5498 C.3     1  UNL1        0.1122
     12 C          60.4422   90.5691    8.6931 C.3     1  UNL1        0.1122
     13 C          59.6540   91.8311    3.7598 C.ar    1  UNL1        0.0699
     14 C          58.5302   91.5878    4.5675 C.ar    1  UNL1        0.0190
     15 C          58.6654   90.9277    5.7919 C.ar    1  UNL1        0.0160
     16 C          59.9251   90.4920    6.2294 C.ar    1  UNL1        0.0480
     17 C          61.0490   90.7287    5.4218 C.ar    1  UNL1        0.0160
     18 C          60.9146   91.3891    4.1974 C.ar    1  UNL1        0.0190
     19 N          59.8325   93.8145    0.7213 N.ar    1  UNL1       -0.2024
     20 N          58.6627   93.2151    0.5532 N.ar    1  UNL1       -0.1442
     21 C          58.4738   92.4240    1.6307 C.ar    1  UNL1        0.2073
     22 N          59.5078   92.5083    2.4965 N.ar    1  UNL1       -0.2398
     23 C          60.3325   93.3940    1.9030 C.ar    1  UNL1        0.3522
     24 O          61.4070   93.8117    2.4121 O.2     1  UNL1       -0.2444
     25 C          60.3625   94.8113   -0.2218 C.3     1  UNL1        0.1099
     26 C          59.5420   94.8917   -1.5183 C.3     1  UNL1        0.0265
     27 C          62.2143   93.5940   -1.5585 C.3     1  UNL1        0.0021
     28 C          61.8738   94.6147   -0.4709 C.3     1  UNL1        0.0245
     29 O          61.4742   85.8047   14.7428 O.3     1  UNL1       -0.4727
     30 C          62.4846   84.8287   14.9878 C.3     1  UNL1        0.2388
     31 C          61.9247   83.4256   14.7306 C.3     1  UNL1        0.2036
     32 O          61.1614   83.4442   13.5635 O.3     1  UNL1       -0.3244
     33 C          61.8344   82.6394   12.6121 C.3     1  UNL1        0.2244
     34 O          63.0824   82.2243   13.1270 O.3     1  UNL1       -0.3143
     35 C          63.0159   82.4026   14.5060 C.3     1  UNL1        0.2037
     36 N          62.6789   81.1321   15.1480 N.3     1  UNL1       -0.2971
     37 H          63.4142   80.4351   14.8883 H       1  UNL1        0.1211
     38 H          62.7520   81.2623   16.1834 H       1  UNL1        0.1211
     39 C          60.9538   81.4326   12.2612 C.ar    1  UNL1        0.0404
     40 C          59.7764   81.2217   13.0119 C.ar    1  UNL1        0.0021
     41 C          58.9173   80.1607   12.7242 C.ar    1  UNL1        0.0113
     42 C          59.2018   79.2958   11.6700 C.ar    1  UNL1        0.0585
     43 CL         58.1166   77.9661   11.3076 Cl      1  UNL1       -0.0822
     44 C          60.3414   79.4995   10.8920 C.ar    1  UNL1        0.0226
     45 C          61.2144   80.5605   11.1651 C.ar    1  UNL1        0.0591
     46 CL         62.5753   80.7562   10.0606 Cl      1  UNL1       -0.0824
     47 C          62.0822   83.5084   11.3629 C.3     1  UNL1        0.1339
     48 N          60.8404   84.1933   10.9300 N.3     1  UNL1       -0.2659
     49 C          60.6317   84.1470    9.4582 C.3     1  UNL1        0.0898
     50 C          59.5617   83.1211    9.0497 C.3     1  UNL1        0.0897
     51 N          58.2515   83.3854    9.6953 N.3     1  UNL1       -0.2691
     52 C          57.3401   84.1002    8.7883 C.3     1  UNL1        0.0897
     53 C          58.3596   84.0991   10.9891 C.3     1  UNL1        0.0897
     54 C          59.6639   83.7431   11.7089 C.3     1  UNL1        0.0898
@<TRIPOS>BOND
     1    27    28    1
     2    28    25    1
     3    25    26    1
     4    25    19    1
     5    19    20   ar
     6    20    21   ar
     7    21    22   ar
     8    22    13    1
     9    13    14   ar
    10    14    15   ar
    11    15    16   ar
    12    16     7    1
    13     7     8    1
    14     8     9    1
    15     9    10    1
    16    10     1    1
    17     1     2   ar
    18     2     3   ar
    19     3     4   ar
    20     4    29    1
    21    29    30    1
    22    30    31    1
    23    31    32    1
    24    32    33    1
    25    33    47    1
    26    47    48    1
    27    48    49    1
    28    49    50    1
    29    50    51    1
    30    51    52    1
    31    51    53    1
    32    53    54    1
    33    33    39    1
    34    39    40   ar
    35    40    41   ar
    36    41    42   ar
    37    42    43    1
    38    42    44   ar
    39    44    45   ar
    40    45    46    1
    41    33    34    1
    42    34    35    1
    43    35    36    1
    44     4     5   ar
    45     5     6   ar
    46    10    11    1
    47    11    12    1
    48    16    17   ar
    49    17    18   ar
    50    22    23   ar
    51    23    24    2
    52    23    19   ar
    53    18    13   ar
    54    12     7    1
    55     6     1   ar
    56    35    31    1
    57    54    48    1
    58    45    39   ar
    59    36    37    1
    60    36    38    1
@<TRIPOS>MOLECULE
*****
 54 60 0 0 0
SMALL
GASTEIGER

@<TRIPOS>ATOM
      1 C          59.5993   87.2461   10.2761 C.ar    1  UNL1        0.0481
      2 C          60.4718   87.4141   11.3623 C.ar    1  UNL1        0.0176
      3 C          60.3261   86.6352   12.5135 C.ar    1  UNL1        0.0382
      4 C          59.3094   85.6780   12.6009 C.ar    1  UNL1        0.1388
      5 C          58.4307   85.5086   11.5143 C.ar    1  UNL1        0.0382
      6 C          58.5756   86.2881   10.3628 C.ar    1  UNL1        0.0176
      7 N          59.5594   89.8397    6.9752 N.pl3   1  UNL1       -0.3041
      8 C          58.7534   88.6142    6.9166 C.3     1  UNL1        0.1122
      9 C          59.3922   87.5194    7.7747 C.3     1  UNL1        0.1122
     10 N          59.7520   88.0540    9.0937 N.pl3   1  UNL1       -0.3041
     11 C          60.5640   89.2758    9.1398 C.3     1  UNL1        0.1122
     12 C          59.9065   90.3689    8.2995 C.3     1  UNL1        0.1122
     13 C          60.0383   92.2891    3.5197 C.ar    1  UNL1        0.0699
     14 C          58.7939   92.1980    4.1661 C.ar    1  UNL1        0.0190
     15 C          58.6398   91.3951    5.2995 C.ar    1  UNL1        0.0160
     16 C          59.7243   90.6626    5.8047 C.ar    1  UNL1        0.0480
     17 C          60.9675   90.7473    5.1575 C.ar    1  UNL1        0.0160
     18 C          61.1225   91.5504    4.0242 C.ar    1  UNL1        0.0190
     19 N          60.3842   93.8305    0.2482 N.ar    1  UNL1       -0.2024
     20 N          60.5063   94.8919    1.0322 N.ar    1  UNL1       -0.1442
     21 C          60.3852   94.4516    2.3027 C.ar    1  UNL1        0.2073
     22 N          60.1900   93.1152    2.3490 N.ar    1  UNL1       -0.2398
     23 C          60.2067   92.7583    1.0494 C.ar    1  UNL1        0.3522
     24 O          60.1180   91.5694    0.6408 O.2     1  UNL1       -0.2444
     25 C          60.5233   93.8975   -1.2147 C.3     1  UNL1        0.1099
     26 C          59.3211   93.2858   -1.9504 C.3     1  UNL1        0.0265
     27 C          63.0958   94.1682   -1.2989 C.3     1  UNL1        0.0021
     28 C          61.8784   93.3263   -1.6862 C.3     1  UNL1        0.0245
     29 O          59.2068   84.9211   13.7770 O.3     1  UNL1       -0.4727
     30 C          59.5434   83.5391   13.8780 C.3     1  UNL1        0.2388
     31 C          58.9301   82.7679   12.7044 C.3     1  UNL1        0.2036
     32 O          59.4409   83.2721   11.5086 O.3     1  UNL1       -0.3244
     33 C          60.2235   82.2466   10.9240 C.3     1  UNL1        0.2244
     34 O          60.3188   81.1487   11.8074 O.3     1  UNL1       -0.3143
     35 C          59.2882   81.2987   12.7310 C.3     1  UNL1        0.2037
     36 N          58.1469   80.4770   12.3283 N.3     1  UNL1       -0.2971
     37 H          58.4688   79.4834   12.2736 H       1  UNL1        0.1211
     38 H          57.4354   80.5122   13.0944 H       1  UNL1        0.1211
     39 C          59.5892   81.8280    9.5908 C.ar    1  UNL1        0.0404
     40 C          58.4503   82.5312    9.1407 C.ar    1  UNL1        0.0021
     41 C          57.8443   82.2200    7.9232 C.ar    1  UNL1        0.0113
     42 C          58.3699   81.2130    7.1169 C.ar    1  UNL1        0.0585
     43 CL         57.6086   80.8281    5.5841 Cl      1  UNL1       -0.0822
     44 C          59.5127   80.5237    7.5220 C.ar    1  UNL1        0.0226
     45 C          60.1355   80.8238    8.7404 C.ar    1  UNL1        0.0591
     46 CL         61.6164   79.9360    9.1001 Cl      1  UNL1       -0.0824
     47 C          61.6372   82.8171   10.6938 C.3     1  UNL1        0.1339
     48 N          62.1479   83.4942   11.9100 N.3     1  UNL1       -0.2659
     49 C          62.8969   82.5816   12.8146 C.3     1  UNL1        0.0898
     50 C          64.4183   82.7841   12.7231 C.3     1  UNL1        0.0897
     51 N          64.8213   84.1785   13.0344 N.3     1  UNL1       -0.2691
     52 C          65.2905   84.3049   14.4229 C.3     1  UNL1        0.0897
     53 C          63.7664   85.1794   12.7510 C.3     1  UNL1        0.0897
     54 C          62.8846   84.7359   11.5798 C.3     1  UNL1        0.0898
@<TRIPOS>BOND
     1    27    28    1
     2    28    25    1
     3    25    26    1
     4    25    19    1
     5    19    20   ar
     6    20    21   ar
     7    21    22   ar
     8    22    13    1
     9    13    14   ar
    10    14    15   ar
    11    15    16   ar
    12    16     7    1
    13     7     8    1
    14     8     9    1
    15     9    10    1
    16    10     1    1
    17     1     2   ar
    18     2     3   ar
    19     3     4   ar
    20     4    29    1
    21    29    30    1
    22    30    31    1
    23    31    32    1
    24    32    33    1
    25    33    47    1
    26    47    48    1
    27    48    49    1
    28    49    50    1
    29    50    51    1
    30    51    52    1
    31    51    53    1
    32    53    54    1
    33    33    39    1
    34    39    40   ar
    35    40    41   ar
    36    41    42   ar
    37    42    43    1
    38    42    44   ar
    39    44    45   ar
    40    45    46    1
    41    33    34    1
    42    34    35    1
    43    35    36    1
    44     4     5   ar
    45     5     6   ar
    46    10    11    1
    47    11    12    1
    48    16    17   ar
    49    17    18   ar
    50    22    23   ar
    51    23    24    2
    52    23    19   ar
    53    18    13   ar
    54    12     7    1
    55     6     1   ar
    56    35    31    1
    57    54    48    1
    58    45    39   ar
    59    36    37    1
    60    36    38    1
