@<TRIPOS>MOLECULE
*****
 26 28 0 0 0
SMALL
GASTEIGER

@<TRIPOS>ATOM
      1 C          46.0538   13.1208  -24.1604 C.ar    1  UNL1        0.3134
      2 N          46.5260   14.3770  -24.2485 N.ar    1  UNL1       -0.1854
      3 C          47.4302   14.3981  -23.2503 C.ar    1  UNL1        0.2051
      4 N          47.5145   13.2204  -22.6038 N.ar    1  UNL1       -0.0582
      5 O          46.6425   12.4595  -23.1923 O.2     1  UNL1       -0.3279
      6 O          43.8209   12.5716  -24.6242 O.2     1  UNL1       -0.2649
      7 C          45.0133   12.5351  -25.0291 C.2     1  UNL1        0.3025
      8 N          45.2857   11.9205  -26.3030 N.am    1  UNL1       -0.2930
      9 H          44.4717   11.5213  -26.8237 H       1  UNL1        0.1502
     10 C          46.6039   11.7709  -26.9224 C.3     1  UNL1        0.1168
     11 C          46.4953   11.5983  -28.4166 C.ar    1  UNL1        0.0005
     12 C          46.8543   10.3865  -29.0280 C.ar    1  UNL1        0.0181
     13 C          46.7742   10.2654  -30.4175 C.ar    1  UNL1        0.0986
     14 N          46.3687   11.3206  -31.1724 N.ar    1  UNL1       -0.2423
     15 C          46.0372   12.5128  -30.6099 C.ar    1  UNL1        0.0986
     16 C          46.1055   12.6772  -29.2248 C.ar    1  UNL1        0.0181
     17 C          48.3044   15.5726  -22.9581 C.3     1  UNL1        0.2245
     18 S          49.7280   15.5599  -24.0319 S.O2    1  UNL1        0.0162
     19 O          50.9801   15.6268  -23.2033 O.2     1  UNL1       -0.1682
     20 O          49.7467   14.2844  -24.8275 O.2     1  UNL1       -0.1682
     21 C          49.6694   16.9453  -25.1188 C.ar    1  UNL1        0.1062
     22 C          50.7691   17.2566  -25.9325 C.ar    1  UNL1        0.0184
     23 C          50.7035   18.3362  -26.8188 C.ar    1  UNL1        0.0013
     24 C          49.5389   19.1049  -26.9009 C.ar    1  UNL1        0.0001
     25 C          48.4385   18.7946  -26.0967 C.ar    1  UNL1        0.0013
     26 C          48.5022   17.7167  -25.2079 C.ar    1  UNL1        0.0184
@<TRIPOS>BOND
     1     6     7    2
     2     7     8   am
     3     8    10    1
     4    10    11    1
     5    11    12   ar
     6    12    13   ar
     7    13    14   ar
     8    14    15   ar
     9    15    16   ar
    10     7     1    1
    11     1     2   ar
    12     2     3   ar
    13     3    17    1
    14    17    18    1
    15    18    19    2
    16    18    20    2
    17    18    21    1
    18    21    22   ar
    19    22    23   ar
    20    23    24   ar
    21    24    25   ar
    22    25    26   ar
    23     3     4   ar
    24     4     5   ar
    25    16    11   ar
    26     5     1   ar
    27    26    21   ar
    28     8     9    1
@<TRIPOS>MOLECULE
*****
 26 28 0 0 0
SMALL
GASTEIGER

@<TRIPOS>ATOM
      1 C          45.5153   13.7677  -25.3848 C.ar    1  UNL1        0.3134
      2 N          45.9836   14.2622  -24.2251 N.ar    1  UNL1       -0.1854
      3 C          46.3374   15.5110  -24.5853 C.ar    1  UNL1        0.2051
      4 N          46.0847   15.7663  -25.8826 N.ar    1  UNL1       -0.0582
      5 O          45.5833   14.6608  -26.3433 O.2     1  UNL1       -0.3279
      6 O          43.9189   12.0966  -24.9827 O.2     1  UNL1       -0.2649
      7 C          44.9841   12.4039  -25.5810 C.2     1  UNL1        0.3025
      8 N          45.6173   11.4086  -26.4076 N.am    1  UNL1       -0.2930
      9 H          45.1610   10.4693  -26.4572 H       1  UNL1        0.1502
     10 C          46.8624   11.5789  -27.1589 C.3     1  UNL1        0.1168
     11 C          46.6034   11.6768  -28.6414 C.ar    1  UNL1        0.0005
     12 C          46.0910   12.8561  -29.2051 C.ar    1  UNL1        0.0181
     13 C          45.8303   12.9076  -30.5767 C.ar    1  UNL1        0.0986
     14 N          46.0546   11.8164  -31.3556 N.ar    1  UNL1       -0.2423
     15 C          46.5282   10.6542  -30.8336 C.ar    1  UNL1        0.0986
     16 C          46.7998   10.5592  -29.4670 C.ar    1  UNL1        0.0181
     17 C          46.8655   16.5247  -23.6249 C.3     1  UNL1        0.2245
     18 S          47.0787   18.0939  -24.4447 S.O2    1  UNL1        0.0162
     19 O          45.9176   18.3382  -25.3671 O.2     1  UNL1       -0.1682
     20 O          47.1185   19.1948  -23.4215 O.2     1  UNL1       -0.1682
     21 C          48.5748   18.0840  -25.3751 C.ar    1  UNL1        0.1062
     22 C          48.7493   18.9701  -26.4487 C.ar    1  UNL1        0.0184
     23 C          49.9527   18.9819  -27.1610 C.ar    1  UNL1        0.0013
     24 C          50.9879   18.1143  -26.8009 C.ar    1  UNL1        0.0001
     25 C          50.8208   17.2342  -25.7279 C.ar    1  UNL1        0.0013
     26 C          49.6177   17.2189  -25.0152 C.ar    1  UNL1        0.0184
@<TRIPOS>BOND
     1     6     7    2
     2     7     8   am
     3     8    10    1
     4    10    11    1
     5    11    12   ar
     6    12    13   ar
     7    13    14   ar
     8    14    15   ar
     9    15    16   ar
    10     7     1    1
    11     1     2   ar
    12     2     3   ar
    13     3    17    1
    14    17    18    1
    15    18    19    2
    16    18    20    2
    17    18    21    1
    18    21    22   ar
    19    22    23   ar
    20    23    24   ar
    21    24    25   ar
    22    25    26   ar
    23     3     4   ar
    24     4     5   ar
    25    16    11   ar
    26     5     1   ar
    27    26    21   ar
    28     8     9    1
@<TRIPOS>MOLECULE
*****
 26 28 0 0 0
SMALL
GASTEIGER

@<TRIPOS>ATOM
      1 C          46.0389   12.6534  -23.9623 C.ar    1  UNL1        0.3134
      2 N          46.4522   11.7742  -23.0323 N.ar    1  UNL1       -0.1854
      3 C          47.3791   12.4938  -22.3709 C.ar    1  UNL1        0.2051
      4 N          47.5105   13.7414  -22.8590 N.ar    1  UNL1       -0.0582
      5 O          46.6695   13.7980  -23.8466 O.2     1  UNL1       -0.3279
      6 O          43.8018   12.5379  -24.6586 O.2     1  UNL1       -0.2649
      7 C          45.0091   12.3930  -24.9880 C.2     1  UNL1        0.3025
      8 N          45.3066   11.9771  -26.3346 N.am    1  UNL1       -0.2930
      9 H          44.4950   11.8030  -26.9703 H       1  UNL1        0.1502
     10 C          46.6416   11.7408  -26.8876 C.3     1  UNL1        0.1168
     11 C          46.5937   11.5492  -28.3826 C.ar    1  UNL1        0.0005
     12 C          46.1443   12.5785  -29.2251 C.ar    1  UNL1        0.0181
     13 C          46.0799   12.3620  -30.6038 C.ar    1  UNL1        0.0986
     14 N          46.4329   11.1562  -31.1226 N.ar    1  UNL1       -0.2423
     15 C          46.8493   10.1341  -30.3292 C.ar    1  UNL1        0.0986
     16 C          46.9261   10.3076  -28.9456 C.ar    1  UNL1        0.0181
     17 C          48.1103   11.9878  -21.1716 C.3     1  UNL1        0.2245
     18 S          49.8434   11.7965  -21.5452 S.O2    1  UNL1        0.0162
     19 O          50.4089   13.1174  -21.9859 O.2     1  UNL1       -0.1682
     20 O          50.5773   11.3479  -20.3121 O.2     1  UNL1       -0.1682
     21 C          50.0503   10.6113  -22.8323 C.ar    1  UNL1        0.1062
     22 C          50.3597   11.0258  -24.1364 C.ar    1  UNL1        0.0184
     23 C          50.5576   10.0786  -25.1459 C.ar    1  UNL1        0.0013
     24 C          50.4537    8.7150  -24.8566 C.ar    1  UNL1        0.0001
     25 C          50.1521    8.2972  -23.5573 C.ar    1  UNL1        0.0013
     26 C          49.9515    9.2424  -22.5463 C.ar    1  UNL1        0.0184
@<TRIPOS>BOND
     1     6     7    2
     2     7     8   am
     3     8    10    1
     4    10    11    1
     5    11    12   ar
     6    12    13   ar
     7    13    14   ar
     8    14    15   ar
     9    15    16   ar
    10     7     1    1
    11     1     2   ar
    12     2     3   ar
    13     3    17    1
    14    17    18    1
    15    18    19    2
    16    18    20    2
    17    18    21    1
    18    21    22   ar
    19    22    23   ar
    20    23    24   ar
    21    24    25   ar
    22    25    26   ar
    23     3     4   ar
    24     4     5   ar
    25    16    11   ar
    26     5     1   ar
    27    26    21   ar
    28     8     9    1
@<TRIPOS>MOLECULE
*****
 26 28 0 0 0
SMALL
GASTEIGER

@<TRIPOS>ATOM
      1 C          52.7100   13.6603  -21.3215 C.ar    1  UNL1        0.3134
      2 N          51.6430   13.5517  -22.1330 N.ar    1  UNL1       -0.1854
      3 C          52.1794   12.9403  -23.2068 C.ar    1  UNL1        0.2051
      4 N          53.4906   12.6782  -23.0514 N.ar    1  UNL1       -0.0582
      5 O          53.7819   13.1452  -21.8755 O.2     1  UNL1       -0.3279
      6 O          53.1174   15.4548  -19.8668 O.2     1  UNL1       -0.2649
      7 C          52.7035   14.2701  -19.9767 C.2     1  UNL1        0.3025
      8 N          52.2600   13.5864  -18.7890 N.am    1  UNL1       -0.2930
      9 H          52.3182   14.1113  -17.8867 H       1  UNL1        0.1502
     10 C          51.7670   12.2093  -18.7217 C.3     1  UNL1        0.1168
     11 C          50.2966   12.1652  -18.3897 C.ar    1  UNL1        0.0005
     12 C          49.3369   12.6007  -19.3173 C.ar    1  UNL1        0.0181
     13 C          47.9837   12.5788  -18.9707 C.ar    1  UNL1        0.0986
     14 N          47.6020   12.1558  -17.7366 N.ar    1  UNL1       -0.2423
     15 C          48.5104   11.7506  -16.8102 C.ar    1  UNL1        0.0986
     16 C          49.8732   11.7589  -17.1150 C.ar    1  UNL1        0.0181
     17 C          51.3817   12.5200  -24.3967 C.3     1  UNL1        0.2245
     18 S          51.0609   10.7670  -24.3323 S.O2    1  UNL1        0.0162
     19 O          50.6899   10.2756  -25.7032 O.2     1  UNL1       -0.1682
     20 O          52.3008   10.0449  -23.8830 O.2     1  UNL1       -0.1682
     21 C          49.7381   10.4419  -23.2149 C.ar    1  UNL1        0.1062
     22 C          49.9047    9.5278  -22.1637 C.ar    1  UNL1        0.0184
     23 C          48.8629    9.3005  -21.2591 C.ar    1  UNL1        0.0013
     24 C          47.6539    9.9887  -21.3963 C.ar    1  UNL1        0.0001
     25 C          47.4856   10.9050  -22.4382 C.ar    1  UNL1        0.0013
     26 C          48.5251   11.1327  -23.3456 C.ar    1  UNL1        0.0184
@<TRIPOS>BOND
     1     6     7    2
     2     7     8   am
     3     8    10    1
     4    10    11    1
     5    11    12   ar
     6    12    13   ar
     7    13    14   ar
     8    14    15   ar
     9    15    16   ar
    10     7     1    1
    11     1     2   ar
    12     2     3   ar
    13     3    17    1
    14    17    18    1
    15    18    19    2
    16    18    20    2
    17    18    21    1
    18    21    22   ar
    19    22    23   ar
    20    23    24   ar
    21    24    25   ar
    22    25    26   ar
    23     3     4   ar
    24     4     5   ar
    25    16    11   ar
    26     5     1   ar
    27    26    21   ar
    28     8     9    1
@<TRIPOS>MOLECULE
*****
 26 28 0 0 0
SMALL
GASTEIGER

@<TRIPOS>ATOM
      1 C          46.4892   12.3199  -24.2563 C.ar    1  UNL1        0.3134
      2 N          47.5279   11.5241  -24.5671 N.ar    1  UNL1       -0.1854
      3 C          48.3595   11.7453  -23.5307 C.ar    1  UNL1        0.2051
      4 N          47.8503   12.6116  -22.6349 N.ar    1  UNL1       -0.0582
      5 O          46.6958   12.9489  -23.1237 O.2     1  UNL1       -0.3279
      6 O          44.1558   12.2850  -24.4944 O.2     1  UNL1       -0.2649
      7 C          45.2629   12.4802  -25.0630 C.2     1  UNL1        0.3025
      8 N          45.2628   12.8376  -26.4584 N.am    1  UNL1       -0.2930
      9 H          44.3339   12.9040  -26.9336 H       1  UNL1        0.1502
     10 C          46.4466   13.0830  -27.2843 C.3     1  UNL1        0.1168
     11 C          46.4785   12.1737  -28.4870 C.ar    1  UNL1        0.0005
     12 C          46.9267   10.8480  -28.3740 C.ar    1  UNL1        0.0181
     13 C          46.9761   10.0379  -29.5112 C.ar    1  UNL1        0.0986
     14 N          46.6098   10.5372  -30.7213 N.ar    1  UNL1       -0.2423
     15 C          46.1940   11.8233  -30.8646 C.ar    1  UNL1        0.0986
     16 C          46.1320   12.6675  -29.7539 C.ar    1  UNL1        0.0181
     17 C          49.6606   11.0347  -23.3550 C.3     1  UNL1        0.2245
     18 S          50.9374   11.8512  -24.2948 S.O2    1  UNL1        0.0162
     19 O          50.5290   13.2722  -24.5642 O.2     1  UNL1       -0.1682
     20 O          52.2159   11.8611  -23.5038 O.2     1  UNL1       -0.1682
     21 C          51.1835   11.0118  -25.8241 C.ar    1  UNL1        0.1062
     22 C          52.2748   11.3355  -26.6443 C.ar    1  UNL1        0.0184
     23 C          52.4848   10.6414  -27.8399 C.ar    1  UNL1        0.0013
     24 C          51.6108    9.6181  -28.2183 C.ar    1  UNL1        0.0001
     25 C          50.5260    9.2879  -27.4011 C.ar    1  UNL1        0.0013
     26 C          50.3124    9.9819  -26.2059 C.ar    1  UNL1        0.0184
@<TRIPOS>BOND
     1     6     7    2
     2     7     8   am
     3     8    10    1
     4    10    11    1
     5    11    12   ar
     6    12    13   ar
     7    13    14   ar
     8    14    15   ar
     9    15    16   ar
    10     7     1    1
    11     1     2   ar
    12     2     3   ar
    13     3    17    1
    14    17    18    1
    15    18    19    2
    16    18    20    2
    17    18    21    1
    18    21    22   ar
    19    22    23   ar
    20    23    24   ar
    21    24    25   ar
    22    25    26   ar
    23     3     4   ar
    24     4     5   ar
    25    16    11   ar
    26     5     1   ar
    27    26    21   ar
    28     8     9    1
@<TRIPOS>MOLECULE
*****
 26 28 0 0 0
SMALL
GASTEIGER

@<TRIPOS>ATOM
      1 C          48.1468   13.0014  -25.2772 C.ar    1  UNL1        0.3134
      2 N          49.1382   12.4630  -24.5451 N.ar    1  UNL1       -0.1854
      3 C          50.1818   13.2444  -24.8843 C.ar    1  UNL1        0.2051
      4 N          49.8421   14.2103  -25.7582 N.ar    1  UNL1       -0.0582
      5 O          48.5770   14.0213  -25.9813 O.2     1  UNL1       -0.3279
      6 O          46.2974   11.9736  -24.2644 O.2     1  UNL1       -0.2649
      7 C          46.7478   12.5297  -25.3012 C.2     1  UNL1        0.3025
      8 N          45.8768   12.6624  -26.4408 N.am    1  UNL1       -0.2930
      9 H          44.9104   12.2740  -26.3503 H       1  UNL1        0.1502
     10 C          46.2305   13.2606  -27.7295 C.3     1  UNL1        0.1168
     11 C          46.3805   12.2114  -28.8024 C.ar    1  UNL1        0.0005
     12 C          46.8408   10.9228  -28.4881 C.ar    1  UNL1        0.0181
     13 C          47.0008    9.9805  -29.5071 C.ar    1  UNL1        0.0986
     14 N          46.7297   10.3165  -30.7960 N.ar    1  UNL1       -0.2423
     15 C          46.3051   11.5630  -31.1328 C.ar    1  UNL1        0.0986
     16 C          46.1341   12.5355  -30.1453 C.ar    1  UNL1        0.0181
     17 C          51.5414   13.1061  -24.2833 C.3     1  UNL1        0.2245
     18 S          52.0455   11.3957  -24.2932 S.O2    1  UNL1        0.0162
     19 O          53.5072   11.3031  -23.9560 O.2     1  UNL1       -0.1682
     20 O          51.2650   10.6352  -23.2574 O.2     1  UNL1       -0.1682
     21 C          51.7662   10.6992  -25.8872 C.ar    1  UNL1        0.1062
     22 C          52.6007   11.0334  -26.9644 C.ar    1  UNL1        0.0184
     23 C          52.3957   10.4502  -28.2187 C.ar    1  UNL1        0.0013
     24 C          51.3617    9.5273  -28.4011 C.ar    1  UNL1        0.0001
     25 C          50.5319    9.1865  -27.3292 C.ar    1  UNL1        0.0013
     26 C          50.7333    9.7699  -26.0743 C.ar    1  UNL1        0.0184
@<TRIPOS>BOND
     1     6     7    2
     2     7     8   am
     3     8    10    1
     4    10    11    1
     5    11    12   ar
     6    12    13   ar
     7    13    14   ar
     8    14    15   ar
     9    15    16   ar
    10     7     1    1
    11     1     2   ar
    12     2     3   ar
    13     3    17    1
    14    17    18    1
    15    18    19    2
    16    18    20    2
    17    18    21    1
    18    21    22   ar
    19    22    23   ar
    20    23    24   ar
    21    24    25   ar
    22    25    26   ar
    23     3     4   ar
    24     4     5   ar
    25    16    11   ar
    26     5     1   ar
    27    26    21   ar
    28     8     9    1
@<TRIPOS>MOLECULE
*****
 26 28 0 0 0
SMALL
GASTEIGER

@<TRIPOS>ATOM
      1 C          49.1284   15.4313  -25.1353 C.ar    1  UNL1        0.3134
      2 N          47.8517   15.0797  -24.9005 N.ar    1  UNL1       -0.1854
      3 C          47.4520   14.6758  -26.1219 C.ar    1  UNL1        0.2051
      4 N          48.4316   14.7615  -27.0412 N.ar    1  UNL1       -0.0582
      5 O          49.4497   15.2397  -26.3927 O.2     1  UNL1       -0.3279
      6 O          50.0193   15.4783  -22.9658 O.2     1  UNL1       -0.2649
      7 C          50.0687   15.9619  -24.1280 C.2     1  UNL1        0.3025
      8 N          51.0286   17.0016  -24.3971 N.am    1  UNL1       -0.2930
      9 H          51.6311   17.3121  -23.6011 H       1  UNL1        0.1502
     10 C          51.2159   17.6904  -25.6755 C.3     1  UNL1        0.1168
     11 C          50.0436   18.5823  -25.9988 C.ar    1  UNL1        0.0005
     12 C          49.1456   18.9806  -24.9958 C.ar    1  UNL1        0.0181
     13 C          48.0501   19.7807  -25.3297 C.ar    1  UNL1        0.0986
     14 N          47.8463   20.1548  -26.6206 N.ar    1  UNL1       -0.2423
     15 C          48.6859   19.7649  -27.6159 C.ar    1  UNL1        0.0986
     16 C          49.7918   18.9630  -27.3257 C.ar    1  UNL1        0.0181
     17 C          46.0983   14.1101  -26.3981 C.3     1  UNL1        0.2245
     18 S          46.2107   12.3497  -26.6598 S.O2    1  UNL1        0.0162
     19 O          47.4615   11.8265  -26.0114 O.2     1  UNL1       -0.1682
     20 O          45.0250   11.6711  -26.0322 O.2     1  UNL1       -0.1682
     21 C          46.2566   12.0037  -28.3867 C.ar    1  UNL1        0.1062
     22 C          45.9430   13.0033  -29.3198 C.ar    1  UNL1        0.0184
     23 C          46.0156   12.7326  -30.6898 C.ar    1  UNL1        0.0013
     24 C          46.4071   11.4662  -31.1335 C.ar    1  UNL1        0.0001
     25 C          46.7266   10.4691  -30.2075 C.ar    1  UNL1        0.0013
     26 C          46.6528   10.7365  -28.8368 C.ar    1  UNL1        0.0184
@<TRIPOS>BOND
     1     6     7    2
     2     7     8   am
     3     8    10    1
     4    10    11    1
     5    11    12   ar
     6    12    13   ar
     7    13    14   ar
     8    14    15   ar
     9    15    16   ar
    10     7     1    1
    11     1     2   ar
    12     2     3   ar
    13     3    17    1
    14    17    18    1
    15    18    19    2
    16    18    20    2
    17    18    21    1
    18    21    22   ar
    19    22    23   ar
    20    23    24   ar
    21    24    25   ar
    22    25    26   ar
    23     3     4   ar
    24     4     5   ar
    25    16    11   ar
    26     5     1   ar
    27    26    21   ar
    28     8     9    1
@<TRIPOS>MOLECULE
*****
 26 28 0 0 0
SMALL
GASTEIGER

@<TRIPOS>ATOM
      1 C          48.6254   14.7976  -23.9818 C.ar    1  UNL1        0.3134
      2 N          47.7568   13.8062  -24.2493 N.ar    1  UNL1       -0.1854
      3 C          48.3182   13.2382  -25.3340 C.ar    1  UNL1        0.2051
      4 N          49.4679   13.8380  -25.6953 N.ar    1  UNL1       -0.0582
      5 O          49.6191   14.8017  -24.8384 O.2     1  UNL1       -0.3279
      6 O          49.2094   15.5756  -21.8473 O.2     1  UNL1       -0.2649
      7 C          48.5039   15.7657  -22.8735 C.2     1  UNL1        0.3025
      8 N          47.6223   16.9046  -22.8975 N.am    1  UNL1       -0.2930
      9 H          47.6051   17.5124  -22.0470 H       1  UNL1        0.1502
     10 C          46.7199   17.2718  -23.9904 C.3     1  UNL1        0.1168
     11 C          47.4846   17.7194  -25.2107 C.ar    1  UNL1        0.0005
     12 C          48.1748   18.9420  -25.2179 C.ar    1  UNL1        0.0181
     13 C          48.8480   19.3466  -26.3733 C.ar    1  UNL1        0.0986
     14 N          48.8186   18.5692  -27.4880 N.ar    1  UNL1       -0.2423
     15 C          48.1395   17.3921  -27.5174 C.ar    1  UNL1        0.0986
     16 C          47.4512   16.9518  -26.3849 C.ar    1  UNL1        0.0181
     17 C          47.7688   12.0210  -26.0014 C.3     1  UNL1        0.2245
     18 S          46.1944   12.3910  -26.7527 S.O2    1  UNL1        0.0162
     19 O          45.1223   11.5643  -26.1003 O.2     1  UNL1       -0.1682
     20 O          45.8695   13.8448  -26.5499 O.2     1  UNL1       -0.1682
     21 C          46.2525   12.0228  -28.4746 C.ar    1  UNL1        0.1062
     22 C          45.9347   13.0072  -29.4225 C.ar    1  UNL1        0.0184
     23 C          46.0169   12.7193  -30.7884 C.ar    1  UNL1        0.0013
     24 C          46.4221   11.4507  -31.2134 C.ar    1  UNL1        0.0001
     25 C          46.7458   10.4689  -30.2727 C.ar    1  UNL1        0.0013
     26 C          46.6624   10.7534  -28.9060 C.ar    1  UNL1        0.0184
@<TRIPOS>BOND
     1     6     7    2
     2     7     8   am
     3     8    10    1
     4    10    11    1
     5    11    12   ar
     6    12    13   ar
     7    13    14   ar
     8    14    15   ar
     9    15    16   ar
    10     7     1    1
    11     1     2   ar
    12     2     3   ar
    13     3    17    1
    14    17    18    1
    15    18    19    2
    16    18    20    2
    17    18    21    1
    18    21    22   ar
    19    22    23   ar
    20    23    24   ar
    21    24    25   ar
    22    25    26   ar
    23     3     4   ar
    24     4     5   ar
    25    16    11   ar
    26     5     1   ar
    27    26    21   ar
    28     8     9    1
@<TRIPOS>MOLECULE
*****
 26 28 0 0 0
SMALL
GASTEIGER

@<TRIPOS>ATOM
      1 C          49.6432   14.1710  -21.6325 C.ar    1  UNL1        0.3134
      2 N          48.6851   14.0165  -20.7014 N.ar    1  UNL1       -0.1854
      3 C          49.3670   13.4164  -19.7066 C.ar    1  UNL1        0.2051
      4 N          50.6658   13.2315  -20.0082 N.ar    1  UNL1       -0.0582
      5 O          50.7946   13.7051  -21.2102 O.2     1  UNL1       -0.3279
      6 O          49.7199   16.0099  -23.0868 O.2     1  UNL1       -0.2649
      7 C          49.4532   14.7850  -22.9618 C.2     1  UNL1        0.3025
      8 N          48.9749   14.0668  -24.1152 N.am    1  UNL1       -0.2930
      9 H          48.8608   14.6095  -25.0014 H       1  UNL1        0.1502
     10 C          48.5992   12.6522  -24.1536 C.3     1  UNL1        0.1168
     11 C          47.1753   12.4718  -24.6165 C.ar    1  UNL1        0.0005
     12 C          46.0994   12.7911  -23.7729 C.ar    1  UNL1        0.0181
     13 C          44.7909   12.5835  -24.2160 C.ar    1  UNL1        0.0986
     14 N          44.5631   12.0584  -25.4490 N.ar    1  UNL1       -0.2423
     15 C          45.5851   11.7182  -26.2780 C.ar    1  UNL1        0.0986
     16 C          46.9082   11.9073  -25.8731 C.ar    1  UNL1        0.0181
     17 C          48.7636   13.0801  -18.3831 C.3     1  UNL1        0.2245
     18 S          48.6470   11.3107  -18.1939 S.O2    1  UNL1        0.0162
     19 O          49.8591   10.8049  -17.4635 O.2     1  UNL1       -0.1682
     20 O          47.4244   10.9705  -17.3879 O.2     1  UNL1       -0.1682
     21 C          48.5548   10.5448  -19.7779 C.ar    1  UNL1        0.1062
     22 C          47.3901   10.6532  -20.5524 C.ar    1  UNL1        0.0184
     23 C          47.3357   10.0732  -21.8237 C.ar    1  UNL1        0.0013
     24 C          48.4448    9.3886  -22.3289 C.ar    1  UNL1        0.0001
     25 C          49.6096    9.2836  -21.5635 C.ar    1  UNL1        0.0013
     26 C          49.6659    9.8609  -20.2909 C.ar    1  UNL1        0.0184
@<TRIPOS>BOND
     1     6     7    2
     2     7     8   am
     3     8    10    1
     4    10    11    1
     5    11    12   ar
     6    12    13   ar
     7    13    14   ar
     8    14    15   ar
     9    15    16   ar
    10     7     1    1
    11     1     2   ar
    12     2     3   ar
    13     3    17    1
    14    17    18    1
    15    18    19    2
    16    18    20    2
    17    18    21    1
    18    21    22   ar
    19    22    23   ar
    20    23    24   ar
    21    24    25   ar
    22    25    26   ar
    23     3     4   ar
    24     4     5   ar
    25    16    11   ar
    26     5     1   ar
    27    26    21   ar
    28     8     9    1
