@<TRIPOS>MOLECULE
*****
 41 45 0 0 0
SMALL
GASTEIGER

@<TRIPOS>ATOM
      1 C          -7.4366  -18.0053   22.4004 C.ar    1  UNL1        0.0848
      2 C          -6.8050  -17.0834   23.2678 C.ar    1  UNL1        0.1398
      3 C          -5.5111  -16.6727   23.0853 C.ar    1  UNL1        0.0325
      4 C          -4.7912  -17.1775   22.0145 C.ar    1  UNL1        0.0752
      5 N          -3.5363  -16.9089   21.6384 N.ar    1  UNL1       -0.3255
      6 C          -3.3663  -17.6856   20.5381 C.ar    1  UNL1        0.1984
      7 N          -4.4622  -18.4170   20.2020 N.ar    1  UNL1       -0.2140
      8 C          -5.3516  -18.0813   21.1563 C.ar    1  UNL1        0.0957
      9 C          -6.6738  -18.5478   21.3156 C.ar    1  UNL1        0.0046
     10 C          -7.2283  -19.5751   20.3651 C.3     1  UNL1        0.0329
     11 C          -5.1184  -15.6920   24.1278 C.3     1  UNL1        0.0709
     12 C          -6.4224  -15.5827   24.9879 C.3     1  UNL1        0.1375
     13 C          -6.9831  -14.1545   24.9703 C.3     1  UNL1        0.0439
     14 C          -6.1779  -16.0441   26.4308 C.3     1  UNL1        0.0439
     15 O          -7.3642  -16.4643   24.3668 O.3     1  UNL1       -0.4824
     16 H          -2.8654  -16.2411   22.0789 H       1  UNL1        0.1686
     17 N          -9.7471  -17.4322   23.2531 N.am    1  UNL1       -0.2806
     18 C          -8.8442  -18.3725   22.6479 C.2     1  UNL1        0.2522
     19 O          -9.2400  -19.5278   22.3340 O.2     1  UNL1       -0.2697
     20 H          -9.3957  -16.4719   23.4634 H       1  UNL1        0.1552
     21 C         -11.8724  -16.2833   21.6214 C.3     1  UNL1        0.0323
     22 C         -12.1660  -17.1757   22.7972 C.ar    1  UNL1       -0.0084
     23 C         -13.5008  -17.4440   23.1463 C.ar    1  UNL1        0.0008
     24 C         -13.8076  -18.2804   24.2321 C.ar    1  UNL1        0.0712
     25 C         -12.7610  -18.8011   25.0077 C.ar    1  UNL1        0.0051
     26 C         -11.4323  -18.5328   24.6758 C.ar    1  UNL1        0.0143
     27 C         -11.1189  -17.7343   23.5636 C.ar    1  UNL1        0.0465
     28 C         -15.2436  -18.5255   24.6234 C.3     1  UNL1        0.4186
     29 F         -15.9533  -17.3371   24.6426 F       1  UNL1       -0.1659
     30 F         -15.2815  -19.0933   25.8831 F       1  UNL1       -0.1659
     31 F         -15.8580  -19.3806   23.7247 F       1  UNL1       -0.1659
     32 N          -2.1646  -17.7056   19.7573 N.pl3   1  UNL1       -0.2816
     33 H          -2.1790  -17.2332   18.8257 H       1  UNL1        0.1551
     34 C          -0.9268  -18.2565   20.2324 C.ar    1  UNL1        0.0889
     35 C           0.2775  -17.5416   20.0854 C.ar    1  UNL1        0.1543
     36 F           0.2863  -16.3147   19.5057 F       1  UNL1       -0.2028
     37 C           1.4759  -18.0752   20.5686 C.ar    1  UNL1        0.0310
     38 C           1.4832  -19.3145   21.2115 C.ar    1  UNL1        0.0033
     39 C           0.2910  -20.0217   21.3804 C.ar    1  UNL1        0.0128
     40 C          -0.9148  -19.4964   20.9007 C.ar    1  UNL1        0.0733
     41 CL         -2.3915  -20.4267   21.1173 Cl      1  UNL1       -0.0809
@<TRIPOS>BOND
     1    21    22    1
     2    22    23   ar
     3    23    24   ar
     4    24    28    1
     5    28    29    1
     6    28    30    1
     7    28    31    1
     8    24    25   ar
     9    25    26   ar
    10    26    27   ar
    11    27    17    1
    12    17    18   am
    13    18    19    2
    14    18     1    1
    15     1     2   ar
    16     2     3   ar
    17     3     4   ar
    18     4     5   ar
    19     5     6   ar
    20     6    32    1
    21    32    34    1
    22    34    35   ar
    23    35    36    1
    24    35    37   ar
    25    37    38   ar
    26    38    39   ar
    27    39    40   ar
    28    40    41    1
    29     6     7   ar
    30     7     8   ar
    31     8     9   ar
    32     9    10    1
    33     3    11    1
    34    11    12    1
    35    12    13    1
    36    12    14    1
    37    12    15    1
    38    27    22   ar
    39     9     1   ar
    40    15     2    1
    41     8     4   ar
    42    40    34   ar
    43    17    20    1
    44     5    16    1
    45    32    33    1
@<TRIPOS>MOLECULE
*****
 41 45 0 0 0
SMALL
GASTEIGER

@<TRIPOS>ATOM
      1 C          -7.6724  -15.2880   26.3062 C.ar    1  UNL1        0.0848
      2 C          -8.3612  -16.1014   25.3760 C.ar    1  UNL1        0.1398
      3 C          -7.7875  -16.5258   24.2069 C.ar    1  UNL1        0.0325
      4 C          -6.4862  -16.1456   23.9210 C.ar    1  UNL1        0.0752
      5 N          -5.7302  -16.4515   22.8611 N.ar    1  UNL1       -0.3255
      6 C          -4.5626  -15.8065   23.1129 C.ar    1  UNL1        0.1984
      7 N          -4.5500  -15.1227   24.2881 N.ar    1  UNL1       -0.2140
      8 C          -5.7833  -15.3489   24.7805 C.ar    1  UNL1        0.0957
      9 C          -6.3393  -14.8717   25.9864 C.ar    1  UNL1        0.0046
     10 C          -5.5351  -13.9631   26.8774 C.3     1  UNL1        0.0329
     11 C          -8.7284  -17.3782   23.4382 C.3     1  UNL1        0.0709
     12 C          -9.9930  -17.3920   24.3616 C.3     1  UNL1        0.1375
     13 C         -10.3237  -18.8146   24.8321 C.3     1  UNL1        0.0439
     14 C         -11.2039  -16.7662   23.6568 C.3     1  UNL1        0.0439
     15 O          -9.6454  -16.5913   25.4966 O.3     1  UNL1       -0.4824
     16 H          -5.9802  -17.0616   22.0515 H       1  UNL1        0.1686
     17 N          -8.3746  -13.5254   27.9778 N.am    1  UNL1       -0.2806
     18 C          -8.3509  -14.8996   27.5578 C.2     1  UNL1        0.2522
     19 O          -8.8972  -15.7926   28.2606 O.2     1  UNL1       -0.2697
     20 H          -7.9471  -12.8078   27.3517 H       1  UNL1        0.1552
     21 C          -6.9694  -11.5917   29.6469 C.3     1  UNL1        0.0323
     22 C          -8.3087  -12.1560   30.0382 C.ar    1  UNL1       -0.0084
     23 C          -8.8931  -11.7699   31.2568 C.ar    1  UNL1        0.0008
     24 C         -10.1460  -12.2712   31.6460 C.ar    1  UNL1        0.0712
     25 C         -10.7859  -13.2148   30.8283 C.ar    1  UNL1        0.0051
     26 C         -10.2096  -13.6125   29.6212 C.ar    1  UNL1        0.0143
     27 C          -8.9784  -13.0797   29.2052 C.ar    1  UNL1        0.0465
     28 C         -10.7426  -11.8832   32.9760 C.3     1  UNL1        0.4186
     29 F         -12.1175  -11.7576   32.8755 F       1  UNL1       -0.1659
     30 F         -10.2080  -10.6739   33.3791 F       1  UNL1       -0.1659
     31 F         -10.4657  -12.8411   33.9361 F       1  UNL1       -0.1659
     32 N          -3.4168  -15.8727   22.2544 N.pl3   1  UNL1       -0.2816
     33 H          -2.8184  -15.0205   22.1712 H       1  UNL1        0.1551
     34 C          -3.0041  -17.0737   21.5846 C.ar    1  UNL1        0.0889
     35 C          -2.2775  -18.0636   22.2740 C.ar    1  UNL1        0.1543
     36 F          -1.9679  -17.9057   23.5857 F       1  UNL1       -0.2028
     37 C          -1.8965  -19.2395   21.6210 C.ar    1  UNL1        0.0310
     38 C          -2.2456  -19.4447   20.2849 C.ar    1  UNL1        0.0033
     39 C          -2.9837  -18.4780   19.5986 C.ar    1  UNL1        0.0128
     40 C          -3.3708  -17.2971   20.2431 C.ar    1  UNL1        0.0733
     41 CL         -4.2839  -16.0967   19.3383 Cl      1  UNL1       -0.0809
@<TRIPOS>BOND
     1    21    22    1
     2    22    23   ar
     3    23    24   ar
     4    24    28    1
     5    28    29    1
     6    28    30    1
     7    28    31    1
     8    24    25   ar
     9    25    26   ar
    10    26    27   ar
    11    27    17    1
    12    17    18   am
    13    18    19    2
    14    18     1    1
    15     1     2   ar
    16     2     3   ar
    17     3     4   ar
    18     4     5   ar
    19     5     6   ar
    20     6    32    1
    21    32    34    1
    22    34    35   ar
    23    35    36    1
    24    35    37   ar
    25    37    38   ar
    26    38    39   ar
    27    39    40   ar
    28    40    41    1
    29     6     7   ar
    30     7     8   ar
    31     8     9   ar
    32     9    10    1
    33     3    11    1
    34    11    12    1
    35    12    13    1
    36    12    14    1
    37    12    15    1
    38    27    22   ar
    39     9     1   ar
    40    15     2    1
    41     8     4   ar
    42    40    34   ar
    43    17    20    1
    44     5    16    1
    45    32    33    1
@<TRIPOS>MOLECULE
*****
 41 45 0 0 0
SMALL
GASTEIGER

@<TRIPOS>ATOM
      1 C          -6.6058  -18.8894   22.1669 C.ar    1  UNL1        0.0848
      2 C          -5.8914  -17.8335   22.7800 C.ar    1  UNL1        0.1398
      3 C          -4.5315  -17.7092   22.6736 C.ar    1  UNL1        0.0325
      4 C          -3.8266  -18.6504   21.9408 C.ar    1  UNL1        0.0752
      5 N          -2.5143  -18.7181   21.6925 N.ar    1  UNL1       -0.3255
      6 C          -2.3963  -19.8390   20.9360 C.ar    1  UNL1        0.1984
      7 N          -3.5766  -20.4673   20.6892 N.ar    1  UNL1       -0.2140
      8 C          -4.4689  -19.6971   21.3412 C.ar    1  UNL1        0.0957
      9 C          -5.8650  -19.8769   21.4396 C.ar    1  UNL1        0.0046
     10 C          -6.5168  -21.0703   20.7938 C.3     1  UNL1        0.0329
     11 C          -4.0552  -16.5032   23.3959 C.3     1  UNL1        0.0709
     12 C          -5.3874  -15.9128   23.9693 C.3     1  UNL1        0.1375
     13 C          -5.6592  -14.5087   23.4132 C.3     1  UNL1        0.0439
     14 C          -5.3699  -15.8868   25.5034 C.3     1  UNL1        0.0439
     15 O          -6.4199  -16.8007   23.5269 O.3     1  UNL1       -0.4824
     16 H          -1.7710  -18.0493   21.9931 H       1  UNL1        0.1686
     17 N          -8.7343  -18.1768   23.3313 N.am    1  UNL1       -0.2806
     18 C          -8.0745  -18.9340   22.3033 C.2     1  UNL1        0.2522
     19 O          -8.7410  -19.6571   21.5141 O.2     1  UNL1       -0.2697
     20 H          -8.1551  -17.5584   23.9410 H       1  UNL1        0.1552
     21 C         -10.4457  -16.3084   21.8890 C.3     1  UNL1        0.0323
     22 C         -11.0028  -17.2985   22.8762 C.ar    1  UNL1       -0.0084
     23 C         -12.3832  -17.3097   23.1411 C.ar    1  UNL1        0.0008
     24 C         -12.9352  -18.2275   24.0496 C.ar    1  UNL1        0.0712
     25 C         -12.0807  -19.0996   24.7406 C.ar    1  UNL1        0.0051
     26 C         -10.7074  -19.0898   24.4925 C.ar    1  UNL1        0.0143
     27 C         -10.1558  -18.2053   23.5512 C.ar    1  UNL1        0.0465
     28 C         -14.4115  -18.2006   24.3580 C.3     1  UNL1        0.4186
     29 F         -15.1247  -18.8832   23.3876 F       1  UNL1       -0.1659
     30 F         -14.8447  -16.8885   24.3960 F       1  UNL1       -0.1659
     31 F         -14.6682  -18.7959   25.5811 F       1  UNL1       -0.1659
     32 N          -1.1542  -20.3041   20.3928 N.pl3   1  UNL1       -0.2816
     33 H          -1.1853  -21.0873   19.7022 H       1  UNL1        0.1551
     34 C           0.1099  -19.6863   20.6788 C.ar    1  UNL1        0.0889
     35 C           1.1307  -20.4112   21.3236 C.ar    1  UNL1        0.1543
     36 F           0.9421  -21.7089   21.6723 F       1  UNL1       -0.2028
     37 C           2.3661  -19.8094   21.5807 C.ar    1  UNL1        0.0310
     38 C           2.5992  -18.4902   21.1877 C.ar    1  UNL1        0.0033
     39 C           1.6003  -17.7698   20.5293 C.ar    1  UNL1        0.0128
     40 C           0.3597  -18.3628   20.2665 C.ar    1  UNL1        0.0733
     41 CL         -0.8779  -17.4157   19.4514 Cl      1  UNL1       -0.0809
@<TRIPOS>BOND
     1    21    22    1
     2    22    23   ar
     3    23    24   ar
     4    24    28    1
     5    28    29    1
     6    28    30    1
     7    28    31    1
     8    24    25   ar
     9    25    26   ar
    10    26    27   ar
    11    27    17    1
    12    17    18   am
    13    18    19    2
    14    18     1    1
    15     1     2   ar
    16     2     3   ar
    17     3     4   ar
    18     4     5   ar
    19     5     6   ar
    20     6    32    1
    21    32    34    1
    22    34    35   ar
    23    35    36    1
    24    35    37   ar
    25    37    38   ar
    26    38    39   ar
    27    39    40   ar
    28    40    41    1
    29     6     7   ar
    30     7     8   ar
    31     8     9   ar
    32     9    10    1
    33     3    11    1
    34    11    12    1
    35    12    13    1
    36    12    14    1
    37    12    15    1
    38    27    22   ar
    39     9     1   ar
    40    15     2    1
    41     8     4   ar
    42    40    34   ar
    43    17    20    1
    44     5    16    1
    45    32    33    1
@<TRIPOS>MOLECULE
*****
 41 45 0 0 0
SMALL
GASTEIGER

@<TRIPOS>ATOM
      1 C          -8.8609  -12.5526   29.9075 C.ar    1  UNL1        0.0848
      2 C          -9.8790  -12.5574   30.8897 C.ar    1  UNL1        0.1398
      3 C          -9.8348  -11.7506   31.9957 C.ar    1  UNL1        0.0325
      4 C          -8.7548  -10.8989   32.1627 C.ar    1  UNL1        0.0752
      5 N          -8.5133  -10.0232   33.1441 N.ar    1  UNL1       -0.3255
      6 C          -7.3213   -9.4781   32.7908 C.ar    1  UNL1        0.1984
      7 N          -6.8138   -9.9636   31.6266 N.ar    1  UNL1       -0.2140
      8 C          -7.7387  -10.8672   31.2494 C.ar    1  UNL1        0.0957
      9 C          -7.7315  -11.6935   30.1055 C.ar    1  UNL1        0.0046
     10 C          -6.5671  -11.6481   29.1526 C.3     1  UNL1        0.0329
     11 C         -11.0390  -11.9493   32.8403 C.3     1  UNL1        0.0709
     12 C         -11.8299  -13.0376   32.0390 C.3     1  UNL1        0.1375
     13 C         -13.1987  -12.5116   31.5871 C.3     1  UNL1        0.0439
     14 C         -11.9949  -14.3233   32.8601 C.3     1  UNL1        0.0439
     15 O         -11.0304  -13.3177   30.8846 O.3     1  UNL1       -0.4824
     16 H          -9.1164   -9.8024   33.9673 H       1  UNL1        0.1686
     17 N          -7.8672  -14.1580   28.2253 N.am    1  UNL1       -0.2806
     18 C          -8.9992  -13.4296   28.7287 C.2     1  UNL1        0.2522
     19 O         -10.1214  -13.5197   28.1610 O.2     1  UNL1       -0.2697
     20 H          -6.9636  -14.0907   28.7438 H       1  UNL1        0.1552
     21 C          -5.5311  -14.3390   26.4904 C.3     1  UNL1        0.0323
     22 C          -6.8031  -15.0867   26.1931 C.ar    1  UNL1       -0.0084
     23 C          -6.8882  -15.8730   25.0312 C.ar    1  UNL1        0.0008
     24 C          -8.0577  -16.5903   24.7306 C.ar    1  UNL1        0.0712
     25 C          -9.1697  -16.4655   25.5768 C.ar    1  UNL1        0.0051
     26 C          -9.0991  -15.6794   26.7277 C.ar    1  UNL1        0.0143
     27 C          -7.9168  -14.9964   27.0573 C.ar    1  UNL1        0.0465
     28 C          -8.1521  -17.3956   23.4586 C.3     1  UNL1        0.4186
     29 F          -6.8924  -17.6266   22.9333 F       1  UNL1       -0.1659
     30 F          -8.9053  -16.6978   22.5331 F       1  UNL1       -0.1659
     31 F          -8.7517  -18.6204   23.6967 F       1  UNL1       -0.1659
     32 N          -6.6676   -8.4443   33.5379 N.pl3   1  UNL1       -0.2816
     33 H          -6.8810   -8.3684   34.5576 H       1  UNL1        0.1551
     34 C          -5.6707   -7.5776   32.9753 C.ar    1  UNL1        0.0889
     35 C          -4.4051   -7.4554   33.5807 C.ar    1  UNL1        0.1543
     36 F          -4.1017   -8.1650   34.6968 F       1  UNL1       -0.2028
     37 C          -3.4324   -6.6251   33.0160 C.ar    1  UNL1        0.0310
     38 C          -3.7059   -5.9224   31.8411 C.ar    1  UNL1        0.0033
     39 C          -4.9509   -6.0530   31.2220 C.ar    1  UNL1        0.0128
     40 C          -5.9320   -6.8820   31.7787 C.ar    1  UNL1        0.0733
     41 CL         -7.4932   -7.0049   30.9781 Cl      1  UNL1       -0.0809
@<TRIPOS>BOND
     1    21    22    1
     2    22    23   ar
     3    23    24   ar
     4    24    28    1
     5    28    29    1
     6    28    30    1
     7    28    31    1
     8    24    25   ar
     9    25    26   ar
    10    26    27   ar
    11    27    17    1
    12    17    18   am
    13    18    19    2
    14    18     1    1
    15     1     2   ar
    16     2     3   ar
    17     3     4   ar
    18     4     5   ar
    19     5     6   ar
    20     6    32    1
    21    32    34    1
    22    34    35   ar
    23    35    36    1
    24    35    37   ar
    25    37    38   ar
    26    38    39   ar
    27    39    40   ar
    28    40    41    1
    29     6     7   ar
    30     7     8   ar
    31     8     9   ar
    32     9    10    1
    33     3    11    1
    34    11    12    1
    35    12    13    1
    36    12    14    1
    37    12    15    1
    38    27    22   ar
    39     9     1   ar
    40    15     2    1
    41     8     4   ar
    42    40    34   ar
    43    17    20    1
    44     5    16    1
    45    32    33    1
@<TRIPOS>MOLECULE
*****
 41 45 0 0 0
SMALL
GASTEIGER

@<TRIPOS>ATOM
      1 C          -7.2969  -13.7127   27.9646 C.ar    1  UNL1        0.0848
      2 C          -6.6936  -12.5135   28.4109 C.ar    1  UNL1        0.1398
      3 C          -7.2588  -11.7233   29.3764 C.ar    1  UNL1        0.0325
      4 C          -8.4656  -12.1084   29.9376 C.ar    1  UNL1        0.0752
      5 N          -9.1825  -11.5083   30.8937 N.ar    1  UNL1       -0.3255
      6 C         -10.2591  -12.3229   31.0355 C.ar    1  UNL1        0.1984
      7 N         -10.2408  -13.4115   30.2211 N.ar    1  UNL1       -0.2140
      8 C          -9.0955  -13.2508   29.5306 C.ar    1  UNL1        0.0957
      9 C          -8.5613  -14.0855   28.5260 C.ar    1  UNL1        0.0046
     10 C          -9.3169  -15.3110   28.0863 C.3     1  UNL1        0.0329
     11 C          -6.4017  -10.5453   29.6604 C.3     1  UNL1        0.0709
     12 C          -5.2015  -10.7644   28.6788 C.3     1  UNL1        0.1375
     13 C          -3.8797  -10.9234   29.4418 C.3     1  UNL1        0.0439
     14 C          -5.0981   -9.6202   27.6617 C.3     1  UNL1        0.0439
     15 O          -5.4928  -11.9830   27.9859 O.3     1  UNL1       -0.4824
     16 H          -8.9481  -10.6353   31.4163 H       1  UNL1        0.1686
     17 N          -7.0576  -14.5131   25.5779 N.am    1  UNL1       -0.2806
     18 C          -6.6074  -14.5238   26.9427 C.2     1  UNL1        0.2522
     19 O          -5.6265  -15.2375   27.2869 O.2     1  UNL1       -0.2697
     20 H          -7.8471  -13.8804   25.3210 H       1  UNL1        0.1552
     21 C          -8.7534  -16.2216   23.9333 C.3     1  UNL1        0.0323
     22 C          -7.2622  -16.1578   23.7400 C.ar    1  UNL1       -0.0084
     23 C          -6.6560  -16.9649   22.7619 C.ar    1  UNL1        0.0008
     24 C          -5.2681  -16.9213   22.5506 C.ar    1  UNL1        0.0712
     25 C          -4.4795  -16.1025   23.3726 C.ar    1  UNL1        0.0051
     26 C          -5.0703  -15.3047   24.3535 C.ar    1  UNL1        0.0143
     27 C          -6.4626  -15.3100   24.5384 C.ar    1  UNL1        0.0465
     28 C          -4.6241  -17.8241   21.5281 C.3     1  UNL1        0.4186
     29 F          -4.3264  -19.0562   22.0843 F       1  UNL1       -0.1659
     30 F          -3.4557  -17.2395   21.0765 F       1  UNL1       -0.1659
     31 F          -5.4707  -18.0293   20.4523 F       1  UNL1       -0.1659
     32 N         -11.3045  -12.0995   31.9903 N.pl3   1  UNL1       -0.2816
     33 H         -11.8334  -11.2004   31.9348 H       1  UNL1        0.1551
     34 C         -11.7175  -13.0849   32.9494 C.ar    1  UNL1        0.0889
     35 C         -12.8777  -13.8527   32.7317 C.ar    1  UNL1        0.1543
     36 F         -13.6164  -13.6845   31.6059 F       1  UNL1       -0.2028
     37 C         -13.2627  -14.8244   33.6601 C.ar    1  UNL1        0.0310
     38 C         -12.4915  -15.0481   34.8022 C.ar    1  UNL1        0.0033
     39 C         -11.3281  -14.3060   35.0168 C.ar    1  UNL1        0.0128
     40 C         -10.9332  -13.3308   34.0933 C.ar    1  UNL1        0.0733
     41 CL         -9.4714  -12.4053   34.4094 Cl      1  UNL1       -0.0809
@<TRIPOS>BOND
     1    21    22    1
     2    22    23   ar
     3    23    24   ar
     4    24    28    1
     5    28    29    1
     6    28    30    1
     7    28    31    1
     8    24    25   ar
     9    25    26   ar
    10    26    27   ar
    11    27    17    1
    12    17    18   am
    13    18    19    2
    14    18     1    1
    15     1     2   ar
    16     2     3   ar
    17     3     4   ar
    18     4     5   ar
    19     5     6   ar
    20     6    32    1
    21    32    34    1
    22    34    35   ar
    23    35    36    1
    24    35    37   ar
    25    37    38   ar
    26    38    39   ar
    27    39    40   ar
    28    40    41    1
    29     6     7   ar
    30     7     8   ar
    31     8     9   ar
    32     9    10    1
    33     3    11    1
    34    11    12    1
    35    12    13    1
    36    12    14    1
    37    12    15    1
    38    27    22   ar
    39     9     1   ar
    40    15     2    1
    41     8     4   ar
    42    40    34   ar
    43    17    20    1
    44     5    16    1
    45    32    33    1
@<TRIPOS>MOLECULE
*****
 41 45 0 0 0
SMALL
GASTEIGER

@<TRIPOS>ATOM
      1 C          -7.3176  -12.8384   28.8183 C.ar    1  UNL1        0.0848
      2 C          -6.7211  -11.8448   29.6296 C.ar    1  UNL1        0.1398
      3 C          -7.3586  -11.3036   30.7144 C.ar    1  UNL1        0.0325
      4 C          -8.6344  -11.7417   31.0308 C.ar    1  UNL1        0.0752
      5 N          -9.4290  -11.3705   32.0403 N.ar    1  UNL1       -0.3255
      6 C         -10.5457  -12.1188   31.8511 C.ar    1  UNL1        0.1984
      7 N         -10.4797  -12.9502   30.7773 N.ar    1  UNL1       -0.2140
      8 C          -9.2594  -12.6894   30.2700 C.ar    1  UNL1        0.0957
      9 C          -8.6500  -13.2609   29.1328 C.ar    1  UNL1        0.0046
     10 C          -9.3995  -14.2712   28.3059 C.3     1  UNL1        0.0329
     11 C          -6.4930  -10.3043   31.3889 C.3     1  UNL1        0.0709
     12 C          -5.2007  -10.3350   30.5051 C.3     1  UNL1        0.1375
     13 C          -3.9791  -10.7802   31.3198 C.3     1  UNL1        0.0439
     14 C          -4.9405   -8.9711   29.8519 C.3     1  UNL1        0.0439
     15 O          -5.4608  -11.3028   29.4824 O.3     1  UNL1       -0.4824
     16 H          -9.2201  -10.6859   32.8005 H       1  UNL1        0.1686
     17 N          -6.9573  -14.6234   27.0638 N.am    1  UNL1       -0.2806
     18 C          -6.5511  -13.3932   27.6858 C.2     1  UNL1        0.2522
     19 O          -5.5265  -12.7798   27.2810 O.2     1  UNL1       -0.2697
     20 H          -7.8327  -15.0831   27.3986 H       1  UNL1        0.1552
     21 C          -8.2083  -14.8419   24.4395 C.3     1  UNL1        0.0323
     22 C          -6.8280  -15.3772   24.7101 C.ar    1  UNL1       -0.0084
     23 C          -6.1256  -16.0311   23.6831 C.ar    1  UNL1        0.0008
     24 C          -4.8322  -16.5332   23.9011 C.ar    1  UNL1        0.0712
     25 C          -4.2676  -16.4282   25.1812 C.ar    1  UNL1        0.0051
     26 C          -4.9606  -15.7897   26.2106 C.ar    1  UNL1        0.0143
     27 C          -6.2357  -15.2452   25.9857 C.ar    1  UNL1        0.0465
     28 C          -4.1062  -17.2713   22.8041 C.3     1  UNL1        0.4186
     29 F          -2.8102  -16.8020   22.6758 F       1  UNL1       -0.1659
     30 F          -4.7743  -17.0821   21.6089 F       1  UNL1       -0.1659
     31 F          -4.0491  -18.6268   23.0792 F       1  UNL1       -0.1659
     32 N         -11.6810  -12.0874   32.7253 N.pl3   1  UNL1       -0.2816
     33 H         -12.0506  -11.1537   33.0135 H       1  UNL1        0.1551
     34 C         -12.3854  -13.2669   33.1426 C.ar    1  UNL1        0.0889
     35 C         -13.5453  -13.6855   32.4624 C.ar    1  UNL1        0.1543
     36 F         -14.0083  -12.9899   31.3933 F       1  UNL1       -0.2028
     37 C         -14.2146  -14.8462   32.8616 C.ar    1  UNL1        0.0310
     38 C         -13.7291  -15.6042   33.9288 C.ar    1  UNL1        0.0033
     39 C         -12.5680  -15.2085   34.5964 C.ar    1  UNL1        0.0128
     40 C         -11.8898  -14.0481   34.2047 C.ar    1  UNL1        0.0733
     41 CL        -10.4416  -13.5744   35.0829 Cl      1  UNL1       -0.0809
@<TRIPOS>BOND
     1    21    22    1
     2    22    23   ar
     3    23    24   ar
     4    24    28    1
     5    28    29    1
     6    28    30    1
     7    28    31    1
     8    24    25   ar
     9    25    26   ar
    10    26    27   ar
    11    27    17    1
    12    17    18   am
    13    18    19    2
    14    18     1    1
    15     1     2   ar
    16     2     3   ar
    17     3     4   ar
    18     4     5   ar
    19     5     6   ar
    20     6    32    1
    21    32    34    1
    22    34    35   ar
    23    35    36    1
    24    35    37   ar
    25    37    38   ar
    26    38    39   ar
    27    39    40   ar
    28    40    41    1
    29     6     7   ar
    30     7     8   ar
    31     8     9   ar
    32     9    10    1
    33     3    11    1
    34    11    12    1
    35    12    13    1
    36    12    14    1
    37    12    15    1
    38    27    22   ar
    39     9     1   ar
    40    15     2    1
    41     8     4   ar
    42    40    34   ar
    43    17    20    1
    44     5    16    1
    45    32    33    1
@<TRIPOS>MOLECULE
*****
 41 45 0 0 0
SMALL
GASTEIGER

@<TRIPOS>ATOM
      1 C          -7.2558  -13.6321   28.0208 C.ar    1  UNL1        0.0848
      2 C          -6.6136  -12.4345   28.4140 C.ar    1  UNL1        0.1398
      3 C          -7.1177  -11.6190   29.3922 C.ar    1  UNL1        0.0325
      4 C          -8.2999  -11.9759   30.0205 C.ar    1  UNL1        0.0752
      5 N          -8.9587  -11.3482   31.0004 N.ar    1  UNL1       -0.3255
      6 C         -10.0382  -12.1438   31.2114 C.ar    1  UNL1        0.1984
      7 N         -10.0767  -13.2468   30.4173 N.ar    1  UNL1       -0.2140
      8 C          -8.9658  -13.1156   29.6669 C.ar    1  UNL1        0.0957
      9 C          -8.4952  -13.9759   28.6522 C.ar    1  UNL1        0.0046
     10 C          -9.2895  -15.1973   28.2737 C.3     1  UNL1        0.0329
     11 C          -6.2307  -10.4492   29.6108 C.3     1  UNL1        0.0709
     12 C          -5.0851  -10.7037   28.5740 C.3     1  UNL1        0.1375
     13 C          -3.7288  -10.8692   29.2720 C.3     1  UNL1        0.0439
     14 C          -5.0173   -9.5792   27.5321 C.3     1  UNL1        0.0439
     15 O          -5.4286  -11.9298   27.9192 O.3     1  UNL1       -0.4824
     16 H          -8.6857  -10.4697   31.4945 H       1  UNL1        0.1686
     17 N          -7.0827  -14.4010   25.6181 N.am    1  UNL1       -0.2806
     18 C          -6.6307  -14.4715   26.9805 C.2     1  UNL1        0.2522
     19 O          -5.7039  -15.2618   27.3066 O.2     1  UNL1       -0.2697
     20 H          -7.8243  -13.7071   25.3768 H       1  UNL1        0.1552
     21 C          -8.8719  -16.1471   24.1184 C.3     1  UNL1        0.0323
     22 C          -7.3958  -16.0849   23.8317 C.ar    1  UNL1       -0.0084
     23 C          -6.8488  -16.9116   22.8352 C.ar    1  UNL1        0.0008
     24 C          -5.4769  -16.8700   22.5373 C.ar    1  UNL1        0.0712
     25 C          -4.6413  -16.0325   23.2913 C.ar    1  UNL1        0.0051
     26 C          -5.1727  -15.2150   24.2898 C.ar    1  UNL1        0.0143
     27 C          -6.5508  -15.2188   24.5608 C.ar    1  UNL1        0.0465
     28 C          -4.8947  -17.7933   21.4962 C.3     1  UNL1        0.4186
     29 F          -5.7144  -17.8503   20.3822 F       1  UNL1       -0.1659
     30 F          -4.7720  -19.0622   22.0306 F       1  UNL1       -0.1659
     31 F          -3.6467  -17.3517   21.0916 F       1  UNL1       -0.1659
     32 N         -11.0304  -11.8879   32.2135 N.pl3   1  UNL1       -0.2816
     33 H         -11.4275  -10.9235   32.2733 H       1  UNL1        0.1551
     34 C         -11.5676  -12.9094   33.0676 C.ar    1  UNL1        0.0889
     35 C         -10.8351  -13.3714   34.1781 C.ar    1  UNL1        0.1543
     36 F          -9.6166  -12.8493   34.4678 F       1  UNL1       -0.2028
     37 C         -11.3731  -14.3518   35.0171 C.ar    1  UNL1        0.0310
     38 C         -12.6453  -14.8690   34.7661 C.ar    1  UNL1        0.0033
     39 C         -13.3878  -14.4025   33.6792 C.ar    1  UNL1        0.0128
     40 C         -12.8589  -13.4207   32.8329 C.ar    1  UNL1        0.0733
     41 CL        -13.8186  -12.8731   31.4646 Cl      1  UNL1       -0.0809
@<TRIPOS>BOND
     1    21    22    1
     2    22    23   ar
     3    23    24   ar
     4    24    28    1
     5    28    29    1
     6    28    30    1
     7    28    31    1
     8    24    25   ar
     9    25    26   ar
    10    26    27   ar
    11    27    17    1
    12    17    18   am
    13    18    19    2
    14    18     1    1
    15     1     2   ar
    16     2     3   ar
    17     3     4   ar
    18     4     5   ar
    19     5     6   ar
    20     6    32    1
    21    32    34    1
    22    34    35   ar
    23    35    36    1
    24    35    37   ar
    25    37    38   ar
    26    38    39   ar
    27    39    40   ar
    28    40    41    1
    29     6     7   ar
    30     7     8   ar
    31     8     9   ar
    32     9    10    1
    33     3    11    1
    34    11    12    1
    35    12    13    1
    36    12    14    1
    37    12    15    1
    38    27    22   ar
    39     9     1   ar
    40    15     2    1
    41     8     4   ar
    42    40    34   ar
    43    17    20    1
    44     5    16    1
    45    32    33    1
@<TRIPOS>MOLECULE
*****
 41 45 0 0 0
SMALL
GASTEIGER

@<TRIPOS>ATOM
      1 C          -6.4178  -16.8030   23.7166 C.ar    1  UNL1        0.0848
      2 C          -7.2645  -17.6490   22.9626 C.ar    1  UNL1        0.1398
      3 C          -6.7777  -18.5690   22.0722 C.ar    1  UNL1        0.0325
      4 C          -5.4072  -18.6768   21.9001 C.ar    1  UNL1        0.0752
      5 N          -4.7176  -19.5046   21.1079 N.ar    1  UNL1       -0.3255
      6 C          -3.4258  -19.1621   21.3461 C.ar    1  UNL1        0.1984
      7 N          -3.2764  -18.1674   22.2609 N.ar    1  UNL1       -0.2140
      8 C          -4.5477  -17.8725   22.5944 C.ar    1  UNL1        0.0957
      9 C          -5.0036  -16.8978   23.5073 C.ar    1  UNL1        0.0046
     10 C          -4.0152  -16.0100   24.2152 C.3     1  UNL1        0.0329
     11 C          -7.8861  -19.3287   21.4417 C.3     1  UNL1        0.0709
     12 C          -9.1486  -18.6937   22.1162 C.3     1  UNL1        0.1375
     13 C          -9.9369  -19.7383   22.9173 C.3     1  UNL1        0.0439
     14 C         -10.0550  -18.0199   21.0775 C.3     1  UNL1        0.0439
     15 O          -8.6425  -17.6987   23.0129 O.3     1  UNL1       -0.4824
     16 H          -5.0928  -20.2490   20.4792 H       1  UNL1        0.1686
     17 N          -6.6631  -15.9102   26.0696 N.am    1  UNL1       -0.2806
     18 C          -7.0205  -15.8601   24.6785 C.2     1  UNL1        0.2522
     19 O          -7.8642  -15.0192   24.2649 O.2     1  UNL1       -0.2697
     20 H          -5.9321  -16.5923   26.3697 H       1  UNL1        0.1552
     21 C          -9.3207  -16.5084   27.1084 C.3     1  UNL1        0.0323
     22 C          -8.5339  -15.3136   27.5760 C.ar    1  UNL1       -0.0084
     23 C          -9.1006  -14.4370   28.5173 C.ar    1  UNL1        0.0008
     24 C          -8.3883  -13.3188   28.9807 C.ar    1  UNL1        0.0712
     25 C          -7.1197  -13.0497   28.4456 C.ar    1  UNL1        0.0051
     26 C          -6.5520  -13.9082   27.5031 C.ar    1  UNL1        0.0143
     27 C          -7.2410  -15.0530   27.0702 C.ar    1  UNL1        0.0465
     28 C          -9.0240  -12.3616   29.9579 C.3     1  UNL1        0.4186
     29 F          -9.7029  -11.3591   29.2868 F       1  UNL1       -0.1659
     30 F          -8.0391  -11.7914   30.7426 F       1  UNL1       -0.1659
     31 F          -9.9259  -13.0214   30.7749 F       1  UNL1       -0.1659
     32 N          -2.3051  -19.8157   20.7370 N.pl3   1  UNL1       -0.2816
     33 H          -2.4775  -20.7150   20.2343 H       1  UNL1        0.1551
     34 C          -0.9863  -19.2489   20.7044 C.ar    1  UNL1        0.0889
     35 C           0.1037  -19.9408   21.2669 C.ar    1  UNL1        0.1543
     36 F          -0.0713  -21.1601   21.8360 F       1  UNL1       -0.2028
     37 C           1.3884  -19.3921   21.2136 C.ar    1  UNL1        0.0310
     38 C           1.6001  -18.1608   20.5905 C.ar    1  UNL1        0.0033
     39 C           0.5290  -17.4767   20.0117 C.ar    1  UNL1        0.0128
     40 C          -0.7615  -18.0173   20.0590 C.ar    1  UNL1        0.0733
     41 CL         -2.0863  -17.1157   19.3341 Cl      1  UNL1       -0.0809
@<TRIPOS>BOND
     1    21    22    1
     2    22    23   ar
     3    23    24   ar
     4    24    28    1
     5    28    29    1
     6    28    30    1
     7    28    31    1
     8    24    25   ar
     9    25    26   ar
    10    26    27   ar
    11    27    17    1
    12    17    18   am
    13    18    19    2
    14    18     1    1
    15     1     2   ar
    16     2     3   ar
    17     3     4   ar
    18     4     5   ar
    19     5     6   ar
    20     6    32    1
    21    32    34    1
    22    34    35   ar
    23    35    36    1
    24    35    37   ar
    25    37    38   ar
    26    38    39   ar
    27    39    40   ar
    28    40    41    1
    29     6     7   ar
    30     7     8   ar
    31     8     9   ar
    32     9    10    1
    33     3    11    1
    34    11    12    1
    35    12    13    1
    36    12    14    1
    37    12    15    1
    38    27    22   ar
    39     9     1   ar
    40    15     2    1
    41     8     4   ar
    42    40    34   ar
    43    17    20    1
    44     5    16    1
    45    32    33    1
