@<TRIPOS>MOLECULE
*****
 46 51 0 0 0
SMALL
GASTEIGER

@<TRIPOS>ATOM
      1 C          60.9079   85.3217   10.6800 C.ar    1  UNL1        0.1318
      2 C          62.0750   85.4935    9.9198 C.ar    1  UNL1        0.0356
      3 C          62.0170   86.2089    8.7231 C.ar    1  UNL1        0.0191
      4 C          60.8059   86.7590    8.2877 C.ar    1  UNL1        0.0702
      5 C          59.6521   86.5298    9.0541 C.ar    1  UNL1        0.1149
      6 N          59.7313   85.8263   10.2146 N.ar    1  UNL1       -0.2279
      7 C          62.4119   82.9316   13.0750 C.3     1  UNL1        0.0235
      8 C          62.1560   84.4198   12.6975 C.3     1  UNL1        0.0922
      9 N          60.9253   84.5711   11.9086 N.pl3   1  UNL1       -0.2932
     10 C          59.6562   84.1048   12.4863 C.3     1  UNL1        0.0923
     11 C          59.8856   82.9622   13.4902 C.3     1  UNL1        0.0252
     12 C          61.0800   82.1015   13.0392 C.3     1  UNL1        0.0471
     13 C          64.6928   82.8300   14.2539 C.3     1  UNL1        0.0001
     14 C          63.1719   82.8433   14.4273 C.3     1  UNL1        0.0018
     15 C          61.1157   80.7618   13.8063 C.3     1  UNL1        0.2054
     16 O          60.9366   79.6541   12.9213 O.3     1  UNL1       -0.4755
     17 C          59.8622   79.4794   12.0341 C.ar    1  UNL1        0.1388
     18 C          59.0676   78.3183   12.0189 C.ar    1  UNL1        0.0369
     19 C          58.0068   78.2061   11.1184 C.ar    1  UNL1        0.0033
     20 C          57.7321   79.2391   10.2197 C.ar    1  UNL1        0.0066
     21 C          58.5257   80.3994   10.2063 C.ar    1  UNL1        0.0785
     22 C          59.5856   80.5084   11.1255 C.ar    1  UNL1        0.0433
     23 C          58.2476   81.5087    9.2614 C.2     1  UNL1        0.3381
     24 O          57.5220   81.3028    8.2522 O.2     1  UNL1       -0.2451
     25 O          58.7565   82.7911    9.4634 O.3     1  UNL1       -0.4771
     26 H          59.2586   83.0533   10.3016 H       1  UNL1        0.2954
     27 N          60.7589   87.4707    7.0400 N.am    1  UNL1       -0.2766
     28 C          60.0865   88.7287    6.8542 C.2     1  UNL1        0.2839
     29 O          59.4227   89.2430    7.7934 O.2     1  UNL1       -0.2665
     30 H          61.2956   87.0654    6.2425 H       1  UNL1        0.1553
     31 C          60.1340   89.4355    5.5625 C.ar    1  UNL1        0.1946
     32 O          61.2711   89.6943    4.9408 O.2     1  UNL1       -0.4492
     33 C          60.9875   90.3321    3.8315 C.ar    1  UNL1        0.1452
     34 C          61.8798   90.8042    2.8752 C.ar    1  UNL1        0.0375
     35 C          61.3540   91.4662    1.7518 C.ar    1  UNL1        0.0031
     36 C          59.9519   91.6444    1.6009 C.ar    1  UNL1        0.0002
     37 C          59.0784   91.1462    2.5973 C.ar    1  UNL1        0.0028
     38 C          59.6358   90.4968    3.6988 C.ar    1  UNL1        0.0337
     39 C          59.0556   89.9082    4.8042 C.ar    1  UNL1        0.0202
     40 C          57.5885   89.7799    5.0822 C.3     1  UNL1        0.0345
     41 C          59.4076   92.3451    0.4101 C.ar    1  UNL1        0.0000
     42 C          60.2301   93.1862   -0.3636 C.ar    1  UNL1        0.0000
     43 C          59.7150   93.8445   -1.4845 C.ar    1  UNL1        0.0000
     44 C          58.3772   93.6711   -1.8461 C.ar    1  UNL1        0.0000
     45 C          57.5514   92.8389   -1.0873 C.ar    1  UNL1        0.0000
     46 C          58.0608   92.1787    0.0351 C.ar    1  UNL1        0.0000
@<TRIPOS>BOND
     1    13    14    1
     2    14     7    1
     3     7     8    1
     4     8     9    1
     5     9     1    1
     6     1     2   ar
     7     2     3   ar
     8     3     4   ar
     9     4    27    1
    10    27    28   am
    11    28    29    2
    12    28    31    1
    13    31    32   ar
    14    32    33   ar
    15    33    34   ar
    16    34    35   ar
    17    35    36   ar
    18    36    41    1
    19    41    42   ar
    20    42    43   ar
    21    43    44   ar
    22    44    45   ar
    23    45    46   ar
    24    36    37   ar
    25    37    38   ar
    26    38    39   ar
    27    39    40    1
    28     4     5   ar
    29     5     6   ar
    30     9    10    1
    31    10    11    1
    32    11    12    1
    33    12    15    1
    34    15    16    1
    35    16    17    1
    36    17    18   ar
    37    18    19   ar
    38    19    20   ar
    39    20    21   ar
    40    21    23    1
    41    23    24    2
    42    23    25    1
    43    21    22   ar
    44    12     7    1
    45    22    17   ar
    46     6     1   ar
    47    39    31   ar
    48    38    33   ar
    49    46    41   ar
    50    27    30    1
    51    25    26    1
@<TRIPOS>MOLECULE
*****
 46 51 0 0 0
SMALL
GASTEIGER

@<TRIPOS>ATOM
      1 C          61.0603   86.2074   11.2026 C.ar    1  UNL1        0.1318
      2 C          60.2800   85.6573   10.1740 C.ar    1  UNL1        0.0356
      3 C          60.2794   86.2584    8.9147 C.ar    1  UNL1        0.0191
      4 C          61.0581   87.3967    8.6757 C.ar    1  UNL1        0.0702
      5 C          61.7922   87.9419    9.7411 C.ar    1  UNL1        0.1149
      6 N          61.7746   87.3418   10.9607 N.ar    1  UNL1       -0.2279
      7 C          62.7376   85.0122   14.2797 C.3     1  UNL1        0.0235
      8 C          61.9373   86.1514   13.5836 C.3     1  UNL1        0.0922
      9 N          61.0688   85.6270   12.5203 N.pl3   1  UNL1       -0.2932
     10 C          60.0600   84.6159   12.8690 C.3     1  UNL1        0.0923
     11 C          60.4943   83.7923   14.0933 C.3     1  UNL1        0.0252
     12 C          62.0250   83.6256   14.0956 C.3     1  UNL1        0.0471
     13 C          62.4790   86.7627   16.1430 C.3     1  UNL1        0.0001
     14 C          63.0200   85.3822   15.7621 C.3     1  UNL1        0.0018
     15 C          62.4587   82.5232   15.0859 C.3     1  UNL1        0.2054
     16 O          62.3303   81.2247   14.5033 O.3     1  UNL1       -0.4755
     17 C          62.2567   80.9469   13.1287 C.ar    1  UNL1        0.1388
     18 C          61.4622   79.9120   12.6019 C.ar    1  UNL1        0.0369
     19 C          61.4233   79.6894   11.2243 C.ar    1  UNL1        0.0033
     20 C          62.1792   80.4841   10.3597 C.ar    1  UNL1        0.0066
     21 C          62.9938   81.5111   10.8678 C.ar    1  UNL1        0.0785
     22 C          63.0175   81.7354   12.2567 C.ar    1  UNL1        0.0433
     23 C          63.8013   82.3678    9.9652 C.2     1  UNL1        0.3381
     24 O          65.0211   82.5620   10.2138 O.2     1  UNL1       -0.2451
     25 O          63.2523   82.9604    8.8286 O.3     1  UNL1       -0.4771
     26 H          62.3114   82.7659    8.5121 H       1  UNL1        0.2954
     27 N          61.0256   88.0180    7.3802 N.am    1  UNL1       -0.2766
     28 C          59.9799   88.8997    6.9349 C.2     1  UNL1        0.2839
     29 O          58.9728   89.1142    7.6611 O.2     1  UNL1       -0.2665
     30 H          61.8444   87.8538    6.7550 H       1  UNL1        0.1553
     31 C          60.0436   89.5539    5.6165 C.ar    1  UNL1        0.1946
     32 O          61.1851   89.7495    4.9800 O.2     1  UNL1       -0.4492
     33 C          60.9168   90.3532    3.8480 C.ar    1  UNL1        0.1452
     34 C          61.8189   90.7572    2.8701 C.ar    1  UNL1        0.0375
     35 C          61.3092   91.3927    1.7241 C.ar    1  UNL1        0.0031
     36 C          59.9131   91.6128    1.5729 C.ar    1  UNL1        0.0002
     37 C          59.0291   91.1836    2.5919 C.ar    1  UNL1        0.0028
     38 C          59.5706   90.5587    3.7153 C.ar    1  UNL1        0.0337
     39 C          58.9774   90.0334    4.8454 C.ar    1  UNL1        0.0202
     40 C          57.5085   89.9662    5.1349 C.3     1  UNL1        0.0345
     41 C          59.3859   92.2850    0.3583 C.ar    1  UNL1        0.0000
     42 C          58.0880   92.0032   -0.1094 C.ar    1  UNL1        0.0000
     43 C          57.5940   92.6379   -1.2533 C.ar    1  UNL1        0.0000
     44 C          58.3866   93.5592   -1.9414 C.ar    1  UNL1        0.0000
     45 C          59.6753   93.8478   -1.4872 C.ar    1  UNL1        0.0000
     46 C          60.1748   93.2156   -0.3444 C.ar    1  UNL1        0.0000
@<TRIPOS>BOND
     1    13    14    1
     2    14     7    1
     3     7     8    1
     4     8     9    1
     5     9     1    1
     6     1     2   ar
     7     2     3   ar
     8     3     4   ar
     9     4    27    1
    10    27    28   am
    11    28    29    2
    12    28    31    1
    13    31    32   ar
    14    32    33   ar
    15    33    34   ar
    16    34    35   ar
    17    35    36   ar
    18    36    41    1
    19    41    42   ar
    20    42    43   ar
    21    43    44   ar
    22    44    45   ar
    23    45    46   ar
    24    36    37   ar
    25    37    38   ar
    26    38    39   ar
    27    39    40    1
    28     4     5   ar
    29     5     6   ar
    30     9    10    1
    31    10    11    1
    32    11    12    1
    33    12    15    1
    34    15    16    1
    35    16    17    1
    36    17    18   ar
    37    18    19   ar
    38    19    20   ar
    39    20    21   ar
    40    21    23    1
    41    23    24    2
    42    23    25    1
    43    21    22   ar
    44    12     7    1
    45    22    17   ar
    46     6     1   ar
    47    39    31   ar
    48    38    33   ar
    49    46    41   ar
    50    27    30    1
    51    25    26    1
