@<TRIPOS>MOLECULE
*****
 45 50 0 0 0
SMALL
GASTEIGER

@<TRIPOS>ATOM
      1 C          61.1226   89.8132    9.4630 C.ar    1  UNL1        0.0702
      2 C          62.0965   88.9569    9.9883 C.ar    1  UNL1        0.0191
      3 C          62.0651   88.5960   11.3361 C.ar    1  UNL1        0.0356
      4 C          61.0580   89.1114   12.1726 C.ar    1  UNL1        0.1318
      5 N          60.1380   89.9648   11.6404 N.ar    1  UNL1       -0.2279
      6 C          60.1467   90.3269   10.3306 C.ar    1  UNL1        0.1149
      7 N          60.9835   88.7541   13.5733 N.pl3   1  UNL1       -0.2932
      8 C          62.0006   89.2336   14.5267 C.3     1  UNL1        0.0923
      9 C          61.9399   88.4726   15.8596 C.3     1  UNL1        0.0252
     10 C          61.7482   86.9684   15.5990 C.3     1  UNL1        0.0472
     11 C          60.4311   86.6862   14.8264 C.3     1  UNL1        0.0252
     12 C          59.8855   87.9129   14.0758 C.3     1  UNL1        0.0923
     13 C          61.8055   86.1792   16.9209 C.3     1  UNL1        0.2054
     14 O          62.6233   85.0149   16.7892 O.3     1  UNL1       -0.4755
     15 C          63.0626   84.4564   15.5774 C.ar    1  UNL1        0.1388
     16 C          64.1532   84.9682   14.8555 C.ar    1  UNL1        0.0374
     17 C          64.5447   84.3703   13.6581 C.ar    1  UNL1        0.0100
     18 C          63.8613   83.2571   13.1565 C.ar    1  UNL1        0.0410
     19 BR         64.5441   82.4882   11.5336 Br      1  UNL1       -0.0488
     20 C          62.7556   82.7299   13.8701 C.ar    1  UNL1        0.0847
     21 C          62.3810   83.3399   15.0825 C.ar    1  UNL1        0.0438
     22 C          61.9714   81.5612   13.3969 C.2     1  UNL1        0.3386
     23 O          62.4779   80.4088   13.3588 O.2     1  UNL1       -0.2451
     24 O          60.6620   81.7369   12.9556 O.3     1  UNL1       -0.4771
     25 H          60.1161   80.9527   12.6190 H       1  UNL1        0.2954
     26 C          60.0881   90.0466    7.1564 C.2     1  UNL1        0.2839
     27 O          59.0927   89.3360    7.4609 O.2     1  UNL1       -0.2665
     28 N          61.1812   90.1934    8.0774 N.am    1  UNL1       -0.2766
     29 H          62.1004   90.5172    7.6997 H       1  UNL1        0.1553
     30 C          57.6132   91.0374    5.3770 C.3     1  UNL1        0.0345
     31 C          59.0741   91.1325    5.0545 C.ar    1  UNL1        0.0202
     32 C          60.1518   90.6978    5.8342 C.ar    1  UNL1        0.1946
     33 O          61.2903   90.9559    5.2155 O.2     1  UNL1       -0.4492
     34 C          61.0066   91.5352    4.0746 C.ar    1  UNL1        0.1452
     35 C          61.9021   91.9785    3.1076 C.ar    1  UNL1        0.0375
     36 C          61.3790   92.5788    1.9493 C.ar    1  UNL1        0.0031
     37 C          59.9763   92.7263    1.7750 C.ar    1  UNL1        0.0002
     38 C          59.0990   92.2608    2.7838 C.ar    1  UNL1        0.0028
     39 C          59.6529   91.6697    3.9205 C.ar    1  UNL1        0.0337
     40 C          59.4353   93.3624    0.5470 C.ar    1  UNL1        0.0000
     41 C          58.1419   93.0478    0.0882 C.ar    1  UNL1        0.0000
     42 C          57.6355   93.6475   -1.0689 C.ar    1  UNL1        0.0000
     43 C          58.4111   94.5662   -1.7793 C.ar    1  UNL1        0.0000
     44 C          59.6955   94.8870   -1.3344 C.ar    1  UNL1        0.0000
     45 C          60.2074   94.2897   -0.1785 C.ar    1  UNL1        0.0000
@<TRIPOS>BOND
     1    30    31    1
     2    31    32   ar
     3    32    26    1
     4    26    27    2
     5    26    28   am
     6    28     1    1
     7     1     2   ar
     8     2     3   ar
     9     3     4   ar
    10     4     7    1
    11     7     8    1
    12     8     9    1
    13     9    10    1
    14    10    13    1
    15    13    14    1
    16    14    15    1
    17    15    16   ar
    18    16    17   ar
    19    17    18   ar
    20    18    19    1
    21    18    20   ar
    22    20    22    1
    23    22    23    2
    24    22    24    1
    25    20    21   ar
    26    10    11    1
    27    11    12    1
    28     4     5   ar
    29     5     6   ar
    30    32    33   ar
    31    33    34   ar
    32    34    35   ar
    33    35    36   ar
    34    36    37   ar
    35    37    40    1
    36    40    41   ar
    37    41    42   ar
    38    42    43   ar
    39    43    44   ar
    40    44    45   ar
    41    37    38   ar
    42    38    39   ar
    43    39    31   ar
    44     6     1   ar
    45    39    34   ar
    46    12     7    1
    47    45    40   ar
    48    21    15   ar
    49    28    29    1
    50    24    25    1
@<TRIPOS>MOLECULE
*****
 45 50 0 0 0
SMALL
GASTEIGER

@<TRIPOS>ATOM
      1 C          61.8396   87.6947   10.0252 C.ar    1  UNL1        0.0702
      2 C          60.8202   88.0158    9.1223 C.ar    1  UNL1        0.0191
      3 C          59.9593   87.0244    8.6492 C.ar    1  UNL1        0.0356
      4 C          60.1308   85.6930    9.0705 C.ar    1  UNL1        0.1318
      5 N          61.1489   85.4040    9.9296 N.ar    1  UNL1       -0.2279
      6 C          61.9966   86.3534   10.4062 C.ar    1  UNL1        0.1149
      7 N          59.2536   84.6369    8.6120 N.pl3   1  UNL1       -0.2932
      8 C          57.8616   84.5547    9.0906 C.3     1  UNL1        0.0923
      9 C          57.2241   83.1952    8.7671 C.3     1  UNL1        0.0252
     10 C          58.2257   82.0627    9.0523 C.3     1  UNL1        0.0472
     11 C          59.5100   82.2060    8.1913 C.3     1  UNL1        0.0252
     12 C          59.7306   83.6292    7.6513 C.3     1  UNL1        0.0923
     13 C          57.5607   80.6883    8.8466 C.3     1  UNL1        0.2054
     14 O          57.7470   79.8510    9.9894 O.3     1  UNL1       -0.4755
     15 C          58.7874   79.9652   10.9264 C.ar    1  UNL1        0.1388
     16 C          58.5633   79.9820   12.3128 C.ar    1  UNL1        0.0374
     17 C          59.6368   80.0960   13.1956 C.ar    1  UNL1        0.0100
     18 C          60.9485   80.1966   12.7189 C.ar    1  UNL1        0.0410
     19 BR         62.3400   80.2798   14.0410 Br      1  UNL1       -0.0488
     20 C          61.1925   80.1854   11.3225 C.ar    1  UNL1        0.0847
     21 C          60.0976   80.0589   10.4463 C.ar    1  UNL1        0.0438
     22 C          62.5528   80.3016   10.7388 C.2     1  UNL1        0.3386
     23 O          63.3204   81.2476   11.0582 O.2     1  UNL1       -0.2451
     24 O          62.9856   79.3711    9.7970 O.3     1  UNL1       -0.4771
     25 H          63.9063   79.4414    9.3803 H       1  UNL1        0.2954
     26 C          62.4762   89.5581   11.6276 C.2     1  UNL1        0.2839
     27 O          61.3247   89.5991   12.1383 O.2     1  UNL1       -0.2665
     28 N          62.7325   88.7233   10.4864 N.am    1  UNL1       -0.2766
     29 H          63.5771   88.9310    9.9068 H       1  UNL1        0.1553
     30 C          64.2016   88.9965   14.2697 C.3     1  UNL1        0.0345
     31 C          64.3122   90.1583   13.3288 C.ar    1  UNL1        0.0202
     32 C          63.5562   90.4002   12.1763 C.ar    1  UNL1        0.1946
     33 O          63.9464   91.5273   11.6081 O.2     1  UNL1       -0.4492
     34 C          64.9163   92.0292   12.3328 C.ar    1  UNL1        0.1452
     35 C          65.6206   93.2056   12.1017 C.ar    1  UNL1        0.0375
     36 C          66.6318   93.5592   13.0116 C.ar    1  UNL1        0.0031
     37 C          66.9228   92.7365   14.1333 C.ar    1  UNL1        0.0002
     38 C          66.1816   91.5470   14.3323 C.ar    1  UNL1        0.0028
     39 C          65.1847   91.2269   13.4092 C.ar    1  UNL1        0.0337
     40 C          67.9937   93.1202   15.0879 C.ar    1  UNL1        0.0000
     41 C          68.7802   92.1351   15.7151 C.ar    1  UNL1        0.0000
     42 C          69.7871   92.4994   16.6142 C.ar    1  UNL1        0.0000
     43 C          70.0211   93.8469   16.8967 C.ar    1  UNL1        0.0000
     44 C          69.2480   94.8336   16.2808 C.ar    1  UNL1        0.0000
     45 C          68.2390   94.4752   15.3815 C.ar    1  UNL1        0.0000
@<TRIPOS>BOND
     1    30    31    1
     2    31    32   ar
     3    32    26    1
     4    26    27    2
     5    26    28   am
     6    28     1    1
     7     1     2   ar
     8     2     3   ar
     9     3     4   ar
    10     4     7    1
    11     7     8    1
    12     8     9    1
    13     9    10    1
    14    10    13    1
    15    13    14    1
    16    14    15    1
    17    15    16   ar
    18    16    17   ar
    19    17    18   ar
    20    18    19    1
    21    18    20   ar
    22    20    22    1
    23    22    23    2
    24    22    24    1
    25    20    21   ar
    26    10    11    1
    27    11    12    1
    28     4     5   ar
    29     5     6   ar
    30    32    33   ar
    31    33    34   ar
    32    34    35   ar
    33    35    36   ar
    34    36    37   ar
    35    37    40    1
    36    40    41   ar
    37    41    42   ar
    38    42    43   ar
    39    43    44   ar
    40    44    45   ar
    41    37    38   ar
    42    38    39   ar
    43    39    31   ar
    44     6     1   ar
    45    39    34   ar
    46    12     7    1
    47    45    40   ar
    48    21    15   ar
    49    28    29    1
    50    24    25    1
@<TRIPOS>MOLECULE
*****
 45 50 0 0 0
SMALL
GASTEIGER

@<TRIPOS>ATOM
      1 C          61.8500   87.9887    9.9569 C.ar    1  UNL1        0.0702
      2 C          60.7598   88.3654    9.1649 C.ar    1  UNL1        0.0191
      3 C          59.9017   87.3979    8.6402 C.ar    1  UNL1        0.0356
      4 C          60.1467   86.0363    8.8962 C.ar    1  UNL1        0.1318
      5 N          61.2314   85.6962    9.6484 N.ar    1  UNL1       -0.2279
      6 C          62.0780   86.6210   10.1726 C.ar    1  UNL1        0.1149
      7 N          59.2755   85.0021    8.3798 N.pl3   1  UNL1       -0.2932
      8 C          57.9336   84.7936    8.9535 C.3     1  UNL1        0.0923
      9 C          57.3244   83.4540    8.5133 C.3     1  UNL1        0.0252
     10 C          58.3900   82.3459    8.5731 C.3     1  UNL1        0.0472
     11 C          59.5898   82.6564    7.6375 C.3     1  UNL1        0.0252
     12 C          59.7080   84.1441    7.2650 C.3     1  UNL1        0.0923
     13 C          57.7640   80.9758    8.2498 C.3     1  UNL1        0.2054
     14 O          57.8208   80.1049    9.3811 O.3     1  UNL1       -0.4755
     15 C          58.7963   80.1385   10.3914 C.ar    1  UNL1        0.1388
     16 C          60.1374   80.4730   10.1423 C.ar    1  UNL1        0.0374
     17 C          61.0614   80.4912   11.1866 C.ar    1  UNL1        0.0100
     18 C          60.6718   80.1769   12.4932 C.ar    1  UNL1        0.0410
     19 BR         62.0268   80.3056   13.8492 Br      1  UNL1       -0.0488
     20 C          59.3231   79.8329   12.7618 C.ar    1  UNL1        0.0847
     21 C          58.4017   79.8301   11.6972 C.ar    1  UNL1        0.0438
     22 C          58.8352   79.4740   14.1175 C.2     1  UNL1        0.3386
     23 O          58.5560   80.3618   14.9659 O.2     1  UNL1       -0.2451
     24 O          58.7107   78.1343   14.4779 O.3     1  UNL1       -0.4771
     25 H          58.3900   77.8712   15.4022 H       1  UNL1        0.2954
     26 C          62.5406   89.6795   11.7203 C.2     1  UNL1        0.2839
     27 O          61.4312   89.6085   12.3144 O.2     1  UNL1       -0.2665
     28 N          62.7379   88.9959   10.4719 N.am    1  UNL1       -0.2766
     29 H          63.5270   89.3077    9.8615 H       1  UNL1        0.1553
     30 C          64.2772   89.0348   14.3359 C.3     1  UNL1        0.0345
     31 C          64.3894   90.2217   13.4271 C.ar    1  UNL1        0.0202
     32 C          63.6284   90.4999   12.2861 C.ar    1  UNL1        0.1946
     33 O          64.0221   91.6401   11.7471 O.2     1  UNL1       -0.4492
     34 C          64.9989   92.1161   12.4799 C.ar    1  UNL1        0.1452
     35 C          65.7087   93.2944   12.2776 C.ar    1  UNL1        0.0375
     36 C          66.7270   93.6169   13.1912 C.ar    1  UNL1        0.0031
     37 C          67.0194   92.7617   14.2880 C.ar    1  UNL1        0.0002
     38 C          66.2723   91.5713   14.4581 C.ar    1  UNL1        0.0028
     39 C          65.2685   91.2827   13.5322 C.ar    1  UNL1        0.0337
     40 C          68.0977   93.1126   15.2468 C.ar    1  UNL1        0.0000
     41 C          68.4124   94.4598   15.5085 C.ar    1  UNL1        0.0000
     42 C          69.4289   94.7871   16.4110 C.ar    1  UNL1        0.0000
     43 C          70.1408   93.7772   17.0618 C.ar    1  UNL1        0.0000
     44 C          69.8381   92.4371   16.8110 C.ar    1  UNL1        0.0000
     45 C          68.8232   92.1037   15.9088 C.ar    1  UNL1        0.0000
@<TRIPOS>BOND
     1    30    31    1
     2    31    32   ar
     3    32    26    1
     4    26    27    2
     5    26    28   am
     6    28     1    1
     7     1     2   ar
     8     2     3   ar
     9     3     4   ar
    10     4     7    1
    11     7     8    1
    12     8     9    1
    13     9    10    1
    14    10    13    1
    15    13    14    1
    16    14    15    1
    17    15    16   ar
    18    16    17   ar
    19    17    18   ar
    20    18    19    1
    21    18    20   ar
    22    20    22    1
    23    22    23    2
    24    22    24    1
    25    20    21   ar
    26    10    11    1
    27    11    12    1
    28     4     5   ar
    29     5     6   ar
    30    32    33   ar
    31    33    34   ar
    32    34    35   ar
    33    35    36   ar
    34    36    37   ar
    35    37    40    1
    36    40    41   ar
    37    41    42   ar
    38    42    43   ar
    39    43    44   ar
    40    44    45   ar
    41    37    38   ar
    42    38    39   ar
    43    39    31   ar
    44     6     1   ar
    45    39    34   ar
    46    12     7    1
    47    45    40   ar
    48    21    15   ar
    49    28    29    1
    50    24    25    1
@<TRIPOS>MOLECULE
*****
 45 50 0 0 0
SMALL
GASTEIGER

@<TRIPOS>ATOM
      1 C          59.8088   87.8725    8.1951 C.ar    1  UNL1        0.0702
      2 C          59.0244   86.7230    8.3398 C.ar    1  UNL1        0.0191
      3 C          59.1025   85.9581    9.5045 C.ar    1  UNL1        0.0356
      4 C          59.9883   86.3375   10.5296 C.ar    1  UNL1        0.1318
      5 N          60.7603   87.4466   10.3508 N.ar    1  UNL1       -0.2279
      6 C          60.6982   88.2085    9.2272 C.ar    1  UNL1        0.1149
      7 N          60.0922   85.5779   11.7574 N.pl3   1  UNL1       -0.2932
      8 C          59.8072   86.2095   13.0587 C.3     1  UNL1        0.0923
      9 C          60.3053   85.3528   14.2323 C.3     1  UNL1        0.0252
     10 C          61.7014   84.7882   13.9170 C.3     1  UNL1        0.0472
     11 C          61.6826   83.8952   12.6468 C.3     1  UNL1        0.0252
     12 C          60.4750   84.1571   11.7308 C.3     1  UNL1        0.0923
     13 C          62.2636   84.0264   15.1324 C.3     1  UNL1        0.2054
     14 O          62.3650   84.8813   16.2728 O.3     1  UNL1       -0.4755
     15 C          62.6758   86.2510   16.2435 C.ar    1  UNL1        0.1388
     16 C          62.6809   87.0541   17.3956 C.ar    1  UNL1        0.0374
     17 C          62.9993   88.4087   17.3050 C.ar    1  UNL1        0.0100
     18 C          63.3162   88.9891   16.0719 C.ar    1  UNL1        0.0410
     19 BR         63.8019   90.8477   16.0955 Br      1  UNL1       -0.0488
     20 C          63.3118   88.1940   14.8982 C.ar    1  UNL1        0.0847
     21 C          62.9983   86.8259   15.0101 C.ar    1  UNL1        0.0438
     22 C          63.6230   88.7383   13.5522 C.2     1  UNL1        0.3386
     23 O          64.5041   89.6244   13.3953 O.2     1  UNL1       -0.2451
     24 O          62.9118   88.2907   12.4414 O.3     1  UNL1       -0.4771
     25 H          63.1032   88.6591   11.5173 H       1  UNL1        0.2954
     26 C          59.7479   90.0739    6.9321 C.2     1  UNL1        0.2839
     27 O          59.5721   90.7458    7.9838 O.2     1  UNL1       -0.2665
     28 N          59.7335   88.6378    6.9800 N.am    1  UNL1       -0.2766
     29 H          59.5742   88.1190    6.0867 H       1  UNL1        0.1553
     30 C          57.4408   91.1724    4.9972 C.3     1  UNL1        0.0345
     31 C          58.9242   91.2435    4.7923 C.ar    1  UNL1        0.0202
     32 C          59.9284   90.7618    5.6395 C.ar    1  UNL1        0.1946
     33 O          61.1169   91.0119    5.1195 O.2     1  UNL1       -0.4492
     34 C          60.9354   91.6305    3.9784 C.ar    1  UNL1        0.1452
     35 C          61.9127   92.0814    3.0982 C.ar    1  UNL1        0.0375
     36 C          61.4944   92.7271    1.9218 C.ar    1  UNL1        0.0031
     37 C          60.1131   92.9116    1.6437 C.ar    1  UNL1        0.0002
     38 C          59.1501   92.4369    2.5664 C.ar    1  UNL1        0.0028
     39 C          59.6009   91.8003    3.7238 C.ar    1  UNL1        0.0337
     40 C          59.6830   93.5955    0.3976 C.ar    1  UNL1        0.0000
     41 C          58.3165   93.7071    0.0774 C.ar    1  UNL1        0.0000
     42 C          57.9147   94.3507   -1.0971 C.ar    1  UNL1        0.0000
     43 C          58.8687   94.8896   -1.9629 C.ar    1  UNL1        0.0000
     44 C          60.2273   94.7858   -1.6564 C.ar    1  UNL1        0.0000
     45 C          60.6350   94.1424   -0.4838 C.ar    1  UNL1        0.0000
@<TRIPOS>BOND
     1    30    31    1
     2    31    32   ar
     3    32    26    1
     4    26    27    2
     5    26    28   am
     6    28     1    1
     7     1     2   ar
     8     2     3   ar
     9     3     4   ar
    10     4     7    1
    11     7     8    1
    12     8     9    1
    13     9    10    1
    14    10    13    1
    15    13    14    1
    16    14    15    1
    17    15    16   ar
    18    16    17   ar
    19    17    18   ar
    20    18    19    1
    21    18    20   ar
    22    20    22    1
    23    22    23    2
    24    22    24    1
    25    20    21   ar
    26    10    11    1
    27    11    12    1
    28     4     5   ar
    29     5     6   ar
    30    32    33   ar
    31    33    34   ar
    32    34    35   ar
    33    35    36   ar
    34    36    37   ar
    35    37    40    1
    36    40    41   ar
    37    41    42   ar
    38    42    43   ar
    39    43    44   ar
    40    44    45   ar
    41    37    38   ar
    42    38    39   ar
    43    39    31   ar
    44     6     1   ar
    45    39    34   ar
    46    12     7    1
    47    45    40   ar
    48    21    15   ar
    49    28    29    1
    50    24    25    1
