@<TRIPOS>MOLECULE
*****
 47 52 0 0 0
SMALL
GASTEIGER

@<TRIPOS>ATOM
      1 C         -63.6764  -51.4346  -24.2990 C.ar    1  UNL1        0.0714
      2 C         -65.0247  -51.5742  -24.6452 C.ar    1  UNL1        0.1150
      3 N         -65.7540  -52.6117  -24.1595 N.ar    1  UNL1       -0.2266
      4 C         -65.2235  -53.5449  -23.3231 C.ar    1  UNL1        0.1448
      5 C         -63.8676  -53.4500  -22.9471 C.ar    1  UNL1        0.0748
      6 N         -63.2470  -54.4409  -22.1194 N.pl3   1  UNL1       -0.3548
      7 C         -63.1064  -52.3773  -23.4292 C.ar    1  UNL1        0.0332
      8 H         -62.2583  -54.3247  -21.8034 H       1  UNL1        0.1424
      9 H         -63.7301  -55.3326  -21.8764 H       1  UNL1        0.1424
     10 N         -66.0701  -54.5905  -22.8221 N.pl3   1  UNL1       -0.2923
     11 C         -67.4906  -54.5980  -23.1937 C.3     1  UNL1        0.0923
     12 C         -68.2879  -55.5884  -22.3359 C.3     1  UNL1        0.0252
     13 C         -67.9344  -55.4015  -20.8484 C.3     1  UNL1        0.0472
     14 C         -66.4114  -55.5749  -20.5784 C.3     1  UNL1        0.0252
     15 C         -65.5512  -55.5628  -21.8522 C.3     1  UNL1        0.0923
     16 C         -68.7740  -56.3532  -19.9746 C.3     1  UNL1        0.2054
     17 O         -69.3581  -55.6574  -18.8717 O.3     1  UNL1       -0.4755
     18 C         -68.9874  -55.8020  -17.5246 C.ar    1  UNL1        0.1388
     19 C         -69.8635  -56.3022  -16.5427 C.ar    1  UNL1        0.0369
     20 C         -69.4388  -56.4220  -15.2180 C.ar    1  UNL1        0.0033
     21 C         -68.1419  -56.0504  -14.8577 C.ar    1  UNL1        0.0066
     22 C         -67.2510  -55.5547  -15.8241 C.ar    1  UNL1        0.0785
     23 C         -67.6861  -55.4368  -17.1570 C.ar    1  UNL1        0.0433
     24 C         -65.8765  -55.1632  -15.4409 C.2     1  UNL1        0.3381
     25 O         -65.6831  -54.1957  -14.6557 O.2     1  UNL1       -0.2451
     26 O         -64.7816  -55.8608  -15.9448 O.3     1  UNL1       -0.4771
     27 H         -63.8364  -55.6011  -15.6889 H       1  UNL1        0.2954
     28 C         -63.5010  -49.0282  -25.0745 C.2     1  UNL1        0.2839
     29 O         -64.5420  -48.6595  -24.4670 O.2     1  UNL1       -0.2665
     30 N         -62.9257  -50.3136  -24.7969 N.am    1  UNL1       -0.2766
     31 H         -61.8869  -50.4048  -24.8557 H       1  UNL1        0.1553
     32 C         -63.7808  -48.9236  -28.2948 C.3     1  UNL1        0.0345
     33 C         -62.9637  -48.0438  -27.3975 C.ar    1  UNL1        0.0202
     34 C         -62.8506  -48.0860  -26.0021 C.ar    1  UNL1        0.1946
     35 O         -62.0545  -47.1174  -25.5842 O.2     1  UNL1       -0.4492
     36 C         -61.6281  -46.4637  -26.6370 C.ar    1  UNL1        0.1452
     37 C         -60.7632  -45.3752  -26.6634 C.ar    1  UNL1        0.0375
     38 C         -60.4315  -44.8261  -27.9145 C.ar    1  UNL1        0.0031
     39 C         -60.9661  -45.3700  -29.1140 C.ar    1  UNL1        0.0002
     40 C         -61.8447  -46.4776  -29.0418 C.ar    1  UNL1        0.0028
     41 C         -62.1519  -46.9960  -27.7836 C.ar    1  UNL1        0.0337
     42 C         -60.6076  -44.7828  -30.4300 C.ar    1  UNL1        0.0000
     43 C         -59.3365  -45.0077  -30.9919 C.ar    1  UNL1        0.0000
     44 C         -59.0022  -44.4543  -32.2318 C.ar    1  UNL1        0.0000
     45 C         -59.9295  -43.6714  -32.9231 C.ar    1  UNL1        0.0000
     46 C         -61.1936  -43.4408  -32.3762 C.ar    1  UNL1        0.0000
     47 C         -61.5337  -43.9925  -31.1372 C.ar    1  UNL1        0.0000
@<TRIPOS>BOND
     1    32    33    1
     2    33    34   ar
     3    34    28    1
     4    28    29    2
     5    28    30   am
     6    30     1    1
     7     1     2   ar
     8     2     3   ar
     9     3     4   ar
    10     4    10    1
    11    10    11    1
    12    11    12    1
    13    12    13    1
    14    13    16    1
    15    16    17    1
    16    17    18    1
    17    18    19   ar
    18    19    20   ar
    19    20    21   ar
    20    21    22   ar
    21    22    24    1
    22    24    25    2
    23    24    26    1
    24    22    23   ar
    25    13    14    1
    26    14    15    1
    27     4     5   ar
    28     5     6    1
    29     5     7   ar
    30    34    35   ar
    31    35    36   ar
    32    36    37   ar
    33    37    38   ar
    34    38    39   ar
    35    39    42    1
    36    42    43   ar
    37    43    44   ar
    38    44    45   ar
    39    45    46   ar
    40    46    47   ar
    41    39    40   ar
    42    40    41   ar
    43    41    33   ar
    44     7     1   ar
    45    41    36   ar
    46    15    10    1
    47    47    42   ar
    48    23    18   ar
    49    30    31    1
    50    26    27    1
    51     6     8    1
    52     6     9    1
@<TRIPOS>MOLECULE
*****
 47 52 0 0 0
SMALL
GASTEIGER

@<TRIPOS>ATOM
      1 C         -63.6854  -51.4239  -24.2888 C.ar    1  UNL1        0.0714
      2 C         -65.0543  -51.4981  -24.5680 C.ar    1  UNL1        0.1150
      3 N         -65.8007  -52.5200  -24.0753 N.ar    1  UNL1       -0.2266
      4 C         -65.2679  -53.4994  -23.2951 C.ar    1  UNL1        0.1448
      5 C         -63.8918  -53.4711  -22.9878 C.ar    1  UNL1        0.0748
      6 N         -63.2719  -54.5115  -22.2227 N.pl3   1  UNL1       -0.3548
      7 C         -63.1119  -52.4154  -23.4776 C.ar    1  UNL1        0.0332
      8 H         -62.2643  -54.4451  -21.9555 H       1  UNL1        0.1424
      9 H         -63.7789  -55.3901  -21.9808 H       1  UNL1        0.1424
     10 N         -66.1308  -54.5251  -22.7813 N.pl3   1  UNL1       -0.2923
     11 C         -67.0575  -55.2026  -23.6968 C.3     1  UNL1        0.0923
     12 C         -68.0948  -56.0324  -22.9299 C.3     1  UNL1        0.0252
     13 C         -68.6974  -55.1961  -21.7852 C.3     1  UNL1        0.0472
     14 C         -67.6097  -54.6710  -20.8035 C.3     1  UNL1        0.0252
     15 C         -66.1754  -54.8023  -21.3402 C.3     1  UNL1        0.0923
     16 C         -69.7821  -56.0029  -21.0461 C.3     1  UNL1        0.2054
     17 O         -70.8991  -55.1767  -20.7120 O.3     1  UNL1       -0.4755
     18 C         -71.2852  -54.8097  -19.4123 C.ar    1  UNL1        0.1388
     19 C         -70.9623  -55.5762  -18.2765 C.ar    1  UNL1        0.0369
     20 C         -71.3753  -55.1614  -17.0088 C.ar    1  UNL1        0.0033
     21 C         -72.1078  -53.9822  -16.8574 C.ar    1  UNL1        0.0066
     22 C         -72.4347  -53.2007  -17.9779 C.ar    1  UNL1        0.0785
     23 C         -72.0151  -53.6251  -19.2522 C.ar    1  UNL1        0.0433
     24 C         -73.2093  -51.9505  -17.8155 C.2     1  UNL1        0.3381
     25 O         -74.1202  -51.6522  -18.6348 O.2     1  UNL1       -0.2451
     26 O         -72.9392  -51.0901  -16.7542 O.3     1  UNL1       -0.4771
     27 H         -73.4636  -50.2317  -16.6337 H       1  UNL1        0.2954
     28 C         -63.4577  -49.0129  -25.0363 C.2     1  UNL1        0.2839
     29 O         -64.4696  -48.6217  -24.3946 O.2     1  UNL1       -0.2665
     30 N         -62.9147  -50.3191  -24.7925 N.am    1  UNL1       -0.2766
     31 H         -61.8812  -50.4410  -24.8819 H       1  UNL1        0.1553
     32 C         -63.7875  -48.8841  -28.2510 C.3     1  UNL1        0.0345
     33 C         -62.9395  -48.0251  -27.3621 C.ar    1  UNL1        0.0202
     34 C         -62.8047  -48.0777  -25.9690 C.ar    1  UNL1        0.1946
     35 O         -61.9838  -47.1267  -25.5586 O.2     1  UNL1       -0.4492
     36 C         -61.5623  -46.4748  -26.6146 C.ar    1  UNL1        0.1452
     37 C         -60.6776  -45.4027  -26.6489 C.ar    1  UNL1        0.0375
     38 C         -60.3558  -44.8525  -27.9021 C.ar    1  UNL1        0.0031
     39 C         -60.9198  -45.3792  -29.0958 C.ar    1  UNL1        0.0002
     40 C         -61.8179  -46.4705  -29.0155 C.ar    1  UNL1        0.0028
     41 C         -62.1145  -46.9904  -27.7554 C.ar    1  UNL1        0.0337
     42 C         -60.5716  -44.7910  -30.4141 C.ar    1  UNL1        0.0000
     43 C         -61.5088  -44.0143  -31.1215 C.ar    1  UNL1        0.0000
     44 C         -61.1777  -43.4608  -32.3622 C.ar    1  UNL1        0.0000
     45 C         -59.9114  -43.6761  -32.9104 C.ar    1  UNL1        0.0000
     46 C         -58.9729  -44.4449  -32.2186 C.ar    1  UNL1        0.0000
     47 C         -59.2982  -45.0000  -30.9772 C.ar    1  UNL1        0.0000
@<TRIPOS>BOND
     1    32    33    1
     2    33    34   ar
     3    34    28    1
     4    28    29    2
     5    28    30   am
     6    30     1    1
     7     1     2   ar
     8     2     3   ar
     9     3     4   ar
    10     4    10    1
    11    10    11    1
    12    11    12    1
    13    12    13    1
    14    13    16    1
    15    16    17    1
    16    17    18    1
    17    18    19   ar
    18    19    20   ar
    19    20    21   ar
    20    21    22   ar
    21    22    24    1
    22    24    25    2
    23    24    26    1
    24    22    23   ar
    25    13    14    1
    26    14    15    1
    27     4     5   ar
    28     5     6    1
    29     5     7   ar
    30    34    35   ar
    31    35    36   ar
    32    36    37   ar
    33    37    38   ar
    34    38    39   ar
    35    39    42    1
    36    42    43   ar
    37    43    44   ar
    38    44    45   ar
    39    45    46   ar
    40    46    47   ar
    41    39    40   ar
    42    40    41   ar
    43    41    33   ar
    44     7     1   ar
    45    41    36   ar
    46    15    10    1
    47    47    42   ar
    48    23    18   ar
    49    30    31    1
    50    26    27    1
    51     6     8    1
    52     6     9    1
@<TRIPOS>MOLECULE
*****
 47 52 0 0 0
SMALL
GASTEIGER

@<TRIPOS>ATOM
      1 C         -63.7138  -51.5143  -24.2869 C.ar    1  UNL1        0.0714
      2 C         -65.0575  -51.6468  -24.6531 C.ar    1  UNL1        0.1150
      3 N         -65.7994  -52.6804  -24.1781 N.ar    1  UNL1       -0.2266
      4 C         -65.2864  -53.6162  -23.3338 C.ar    1  UNL1        0.1448
      5 C         -63.9358  -53.5284  -22.9377 C.ar    1  UNL1        0.0748
      6 N         -63.3328  -54.5224  -22.1008 N.pl3   1  UNL1       -0.3548
      7 C         -63.1618  -52.4598  -23.4086 C.ar    1  UNL1        0.0332
      8 H         -62.3482  -54.4113  -21.7701 H       1  UNL1        0.1424
      9 H         -63.8241  -55.4115  -21.8648 H       1  UNL1        0.1424
     10 N         -66.1458  -54.6572  -22.8454 N.pl3   1  UNL1       -0.2923
     11 C         -66.5895  -55.7084  -23.7696 C.3     1  UNL1        0.0923
     12 C         -67.7252  -56.5427  -23.1642 C.3     1  UNL1        0.0252
     13 C         -68.7974  -55.6154  -22.5614 C.3     1  UNL1        0.0472
     14 C         -68.2104  -54.6594  -21.4826 C.3     1  UNL1        0.0252
     15 C         -66.6745  -54.6001  -21.4769 C.3     1  UNL1        0.0923
     16 C         -69.9697  -56.4444  -22.0027 C.3     1  UNL1        0.2054
     17 O         -70.7409  -57.0208  -23.0586 O.3     1  UNL1       -0.4755
     18 C         -71.6200  -56.3239  -23.9038 C.ar    1  UNL1        0.1388
     19 C         -73.0104  -56.5445  -23.9058 C.ar    1  UNL1        0.0369
     20 C         -73.8348  -55.8218  -24.7705 C.ar    1  UNL1        0.0033
     21 C         -73.2877  -54.8729  -25.6366 C.ar    1  UNL1        0.0066
     22 C         -71.9034  -54.6342  -25.6453 C.ar    1  UNL1        0.0785
     23 C         -71.0789  -55.3663  -24.7711 C.ar    1  UNL1        0.0433
     24 C         -71.3255  -53.6270  -26.5623 C.2     1  UNL1        0.3381
     25 O         -71.7347  -53.5364  -27.7516 O.2     1  UNL1       -0.2451
     26 O         -70.3226  -52.7682  -26.1197 O.3     1  UNL1       -0.4771
     27 H         -69.9201  -52.0750  -26.7393 H       1  UNL1        0.2954
     28 C         -63.5104  -49.1034  -25.0415 C.2     1  UNL1        0.2839
     29 O         -64.5485  -48.7286  -24.4328 O.2     1  UNL1       -0.2665
     30 N         -62.9498  -50.3975  -24.7738 N.am    1  UNL1       -0.2766
     31 H         -61.9119  -50.4996  -24.8314 H       1  UNL1        0.1553
     32 C         -63.8163  -48.9404  -28.2570 C.3     1  UNL1        0.0345
     33 C         -62.9723  -48.0932  -27.3531 C.ar    1  UNL1        0.0202
     34 C         -62.8478  -48.1606  -25.9597 C.ar    1  UNL1        0.1946
     35 O         -62.0271  -47.2164  -25.5336 O.2     1  UNL1       -0.4492
     36 C         -61.5960  -46.5550  -26.5796 C.ar    1  UNL1        0.1452
     37 C         -60.7079  -45.4852  -26.5964 C.ar    1  UNL1        0.0375
     38 C         -60.3753  -44.9230  -27.8415 C.ar    1  UNL1        0.0031
     39 C         -60.9321  -45.4357  -29.0446 C.ar    1  UNL1        0.0002
     40 C         -61.8340  -46.5250  -28.9822 C.ar    1  UNL1        0.0028
     41 C         -62.1413  -47.0570  -27.7297 C.ar    1  UNL1        0.0337
     42 C         -60.5726  -44.8350  -30.3542 C.ar    1  UNL1        0.0000
     43 C         -59.2939  -45.0371  -30.9077 C.ar    1  UNL1        0.0000
     44 C         -58.9587  -44.4711  -32.1416 C.ar    1  UNL1        0.0000
     45 C         -59.8924  -43.6981  -32.8352 C.ar    1  UNL1        0.0000
     46 C         -61.1640  -43.4901  -32.2967 C.ar    1  UNL1        0.0000
     47 C         -61.5051  -44.0544  -31.0637 C.ar    1  UNL1        0.0000
@<TRIPOS>BOND
     1    32    33    1
     2    33    34   ar
     3    34    28    1
     4    28    29    2
     5    28    30   am
     6    30     1    1
     7     1     2   ar
     8     2     3   ar
     9     3     4   ar
    10     4    10    1
    11    10    11    1
    12    11    12    1
    13    12    13    1
    14    13    16    1
    15    16    17    1
    16    17    18    1
    17    18    19   ar
    18    19    20   ar
    19    20    21   ar
    20    21    22   ar
    21    22    24    1
    22    24    25    2
    23    24    26    1
    24    22    23   ar
    25    13    14    1
    26    14    15    1
    27     4     5   ar
    28     5     6    1
    29     5     7   ar
    30    34    35   ar
    31    35    36   ar
    32    36    37   ar
    33    37    38   ar
    34    38    39   ar
    35    39    42    1
    36    42    43   ar
    37    43    44   ar
    38    44    45   ar
    39    45    46   ar
    40    46    47   ar
    41    39    40   ar
    42    40    41   ar
    43    41    33   ar
    44     7     1   ar
    45    41    36   ar
    46    15    10    1
    47    47    42   ar
    48    23    18   ar
    49    30    31    1
    50    26    27    1
    51     6     8    1
    52     6     9    1
@<TRIPOS>MOLECULE
*****
 47 52 0 0 0
SMALL
GASTEIGER

@<TRIPOS>ATOM
      1 C         -64.2028  -52.7213  -23.7432 C.ar    1  UNL1        0.0714
      2 C         -65.5697  -52.7342  -24.0409 C.ar    1  UNL1        0.1150
      3 N         -66.3815  -53.6772  -23.4969 N.ar    1  UNL1       -0.2266
      4 C         -65.9179  -54.6331  -22.6465 C.ar    1  UNL1        0.1448
      5 C         -64.5469  -54.6644  -22.3177 C.ar    1  UNL1        0.0748
      6 N         -63.9997  -55.6871  -21.4769 N.pl3   1  UNL1       -0.3548
      7 C         -63.6997  -53.6896  -22.8604 C.ar    1  UNL1        0.0332
      8 H         -62.9937  -55.6618  -21.1970 H       1  UNL1        0.1424
      9 H         -64.5608  -56.5173  -21.1882 H       1  UNL1        0.1424
     10 N         -66.8467  -55.5717  -22.0832 N.pl3   1  UNL1       -0.2923
     11 C         -67.7484  -56.3078  -22.9782 C.3     1  UNL1        0.0923
     12 C         -68.8570  -57.0200  -22.1932 C.3     1  UNL1        0.0252
     13 C         -69.4873  -56.0518  -21.1744 C.3     1  UNL1        0.0472
     14 C         -68.4344  -55.4659  -20.1891 C.3     1  UNL1        0.0252
     15 C         -66.9795  -55.6989  -20.6266 C.3     1  UNL1        0.0923
     16 C         -70.6409  -56.7424  -20.4219 C.3     1  UNL1        0.2054
     17 O         -71.6920  -55.8186  -20.1330 O.3     1  UNL1       -0.4755
     18 C         -71.9128  -55.1917  -18.8956 C.ar    1  UNL1        0.1388
     19 C         -71.5959  -55.7999  -17.6661 C.ar    1  UNL1        0.0369
     20 C         -71.8397  -55.1277  -16.4668 C.ar    1  UNL1        0.0033
     21 C         -72.3958  -53.8469  -16.4775 C.ar    1  UNL1        0.0066
     22 C         -72.7133  -53.2209  -17.6943 C.ar    1  UNL1        0.0785
     23 C         -72.4648  -53.9045  -18.8989 C.ar    1  UNL1        0.0433
     24 C         -73.3008  -51.8629  -17.7040 C.2     1  UNL1        0.3381
     25 O         -74.0836  -51.5119  -18.6281 O.2     1  UNL1       -0.2451
     26 O         -72.9940  -50.9581  -16.6908 O.3     1  UNL1       -0.4771
     27 H         -73.3907  -50.0259  -16.6878 H       1  UNL1        0.2954
     28 C         -62.5769  -50.7907  -23.5147 C.2     1  UNL1        0.2839
     29 O         -62.1992  -51.1246  -22.3595 O.2     1  UNL1       -0.2665
     30 N         -63.3617  -51.6979  -24.3029 N.am    1  UNL1       -0.2766
     31 H         -63.2279  -51.6836  -25.3388 H       1  UNL1        0.1553
     32 C         -64.0029  -49.0226  -25.8169 C.3     1  UNL1        0.0345
     33 C         -62.7394  -48.7344  -25.0636 C.ar    1  UNL1        0.0202
     34 C         -62.1281  -49.4979  -24.0611 C.ar    1  UNL1        0.1946
     35 O         -61.0423  -48.8838  -23.6247 O.2     1  UNL1       -0.4492
     36 C         -60.9055  -47.7734  -24.3072 C.ar    1  UNL1        0.1452
     37 C         -59.8963  -46.8246  -24.1849 C.ar    1  UNL1        0.0375
     38 C         -59.9415  -45.7006  -25.0283 C.ar    1  UNL1        0.0031
     39 C         -60.9887  -45.5425  -25.9764 C.ar    1  UNL1        0.0002
     40 C         -61.9974  -46.5316  -26.0667 C.ar    1  UNL1        0.0028
     41 C         -61.9207  -47.6329  -25.2137 C.ar    1  UNL1        0.0337
     42 C         -61.0255  -44.3519  -26.8631 C.ar    1  UNL1        0.0000
     43 C         -61.5628  -43.1341  -26.4046 C.ar    1  UNL1        0.0000
     44 C         -61.5950  -42.0144  -27.2416 C.ar    1  UNL1        0.0000
     45 C         -61.0938  -42.0969  -28.5426 C.ar    1  UNL1        0.0000
     46 C         -60.5584  -43.2993  -29.0093 C.ar    1  UNL1        0.0000
     47 C         -60.5226  -44.4219  -28.1764 C.ar    1  UNL1        0.0000
@<TRIPOS>BOND
     1    32    33    1
     2    33    34   ar
     3    34    28    1
     4    28    29    2
     5    28    30   am
     6    30     1    1
     7     1     2   ar
     8     2     3   ar
     9     3     4   ar
    10     4    10    1
    11    10    11    1
    12    11    12    1
    13    12    13    1
    14    13    16    1
    15    16    17    1
    16    17    18    1
    17    18    19   ar
    18    19    20   ar
    19    20    21   ar
    20    21    22   ar
    21    22    24    1
    22    24    25    2
    23    24    26    1
    24    22    23   ar
    25    13    14    1
    26    14    15    1
    27     4     5   ar
    28     5     6    1
    29     5     7   ar
    30    34    35   ar
    31    35    36   ar
    32    36    37   ar
    33    37    38   ar
    34    38    39   ar
    35    39    42    1
    36    42    43   ar
    37    43    44   ar
    38    44    45   ar
    39    45    46   ar
    40    46    47   ar
    41    39    40   ar
    42    40    41   ar
    43    41    33   ar
    44     7     1   ar
    45    41    36   ar
    46    15    10    1
    47    47    42   ar
    48    23    18   ar
    49    30    31    1
    50    26    27    1
    51     6     8    1
    52     6     9    1
@<TRIPOS>MOLECULE
*****
 47 52 0 0 0
SMALL
GASTEIGER

@<TRIPOS>ATOM
      1 C         -65.7346  -53.4659  -23.4974 C.ar    1  UNL1        0.0714
      2 C         -67.0630  -53.0962  -23.2610 C.ar    1  UNL1        0.1150
      3 N         -67.9656  -54.0163  -22.8335 N.ar    1  UNL1       -0.2266
      4 C         -67.6295  -55.3161  -22.6111 C.ar    1  UNL1        0.1448
      5 C         -66.3035  -55.7392  -22.8381 C.ar    1  UNL1        0.0748
      6 N         -65.9147  -57.1086  -22.6782 N.pl3   1  UNL1       -0.3548
      7 C         -65.3580  -54.7981  -23.2659 C.ar    1  UNL1        0.0332
      8 H         -64.9166  -57.3938  -22.7943 H       1  UNL1        0.1424
      9 H         -66.6174  -57.8630  -22.5215 H       1  UNL1        0.1424
     10 N         -68.6327  -56.2196  -22.1230 N.pl3   1  UNL1       -0.2923
     11 C         -69.8030  -56.5070  -22.9619 C.3     1  UNL1        0.0923
     12 C         -70.8955  -57.2339  -22.1679 C.3     1  UNL1        0.0252
     13 C         -71.1321  -56.5217  -20.8227 C.3     1  UNL1        0.0472
     14 C         -69.8335  -56.4264  -19.9701 C.3     1  UNL1        0.0252
     15 C         -68.5518  -56.7474  -20.7554 C.3     1  UNL1        0.0923
     16 C         -72.2686  -57.2116  -20.0441 C.3     1  UNL1        0.2054
     17 O         -73.1837  -56.2517  -19.5122 O.3     1  UNL1       -0.4755
     18 C         -72.9456  -55.4207  -18.4051 C.ar    1  UNL1        0.1388
     19 C         -72.3992  -55.8971  -17.1983 C.ar    1  UNL1        0.0369
     20 C         -72.1863  -55.0229  -16.1305 C.ar    1  UNL1        0.0033
     21 C         -72.5099  -53.6700  -16.2523 C.ar    1  UNL1        0.0066
     22 C         -73.0505  -53.1745  -17.4504 C.ar    1  UNL1        0.0785
     23 C         -73.2623  -54.0613  -18.5221 C.ar    1  UNL1        0.0433
     24 C         -73.3911  -51.7402  -17.5784 C.2     1  UNL1        0.3381
     25 O         -74.0798  -51.3316  -18.5524 O.2     1  UNL1       -0.2451
     26 O         -72.9536  -50.8268  -16.6227 O.3     1  UNL1       -0.4771
     27 H         -73.1812  -49.8426  -16.7007 H       1  UNL1        0.2954
     28 C         -63.4518  -52.3697  -23.3952 C.2     1  UNL1        0.2839
     29 O         -62.8824  -53.3873  -22.9169 O.2     1  UNL1       -0.2665
     30 N         -64.7837  -52.4735  -23.9204 N.am    1  UNL1       -0.2766
     31 H         -65.0360  -51.8647  -24.7308 H       1  UNL1        0.1553
     32 C         -60.6376  -51.6613  -21.9678 C.3     1  UNL1        0.0345
     33 C         -61.4813  -50.7956  -22.8541 C.ar    1  UNL1        0.0202
     34 C         -62.6959  -51.1076  -23.4778 C.ar    1  UNL1        0.1946
     35 O         -63.1071  -50.0826  -24.2037 O.2     1  UNL1       -0.4492
     36 C         -62.2342  -49.1149  -24.0654 C.ar    1  UNL1        0.1452
     37 C         -62.2742  -47.8511  -24.6440 C.ar    1  UNL1        0.0375
     38 C         -61.2268  -46.9591  -24.3539 C.ar    1  UNL1        0.0031
     39 C         -60.1610  -47.3412  -23.4947 C.ar    1  UNL1        0.0002
     40 C         -60.1583  -48.6385  -22.9281 C.ar    1  UNL1        0.0028
     41 C         -61.2133  -49.4969  -23.2383 C.ar    1  UNL1        0.0337
     42 C         -59.0607  -46.3902  -23.1942 C.ar    1  UNL1        0.0000
     43 C         -59.3442  -45.0841  -22.7519 C.ar    1  UNL1        0.0000
     44 C         -58.3060  -44.1912  -22.4686 C.ar    1  UNL1        0.0000
     45 C         -56.9766  -44.5898  -22.6240 C.ar    1  UNL1        0.0000
     46 C         -56.6823  -45.8828  -23.0622 C.ar    1  UNL1        0.0000
     47 C         -57.7164  -46.7802  -23.3460 C.ar    1  UNL1        0.0000
@<TRIPOS>BOND
     1    32    33    1
     2    33    34   ar
     3    34    28    1
     4    28    29    2
     5    28    30   am
     6    30     1    1
     7     1     2   ar
     8     2     3   ar
     9     3     4   ar
    10     4    10    1
    11    10    11    1
    12    11    12    1
    13    12    13    1
    14    13    16    1
    15    16    17    1
    16    17    18    1
    17    18    19   ar
    18    19    20   ar
    19    20    21   ar
    20    21    22   ar
    21    22    24    1
    22    24    25    2
    23    24    26    1
    24    22    23   ar
    25    13    14    1
    26    14    15    1
    27     4     5   ar
    28     5     6    1
    29     5     7   ar
    30    34    35   ar
    31    35    36   ar
    32    36    37   ar
    33    37    38   ar
    34    38    39   ar
    35    39    42    1
    36    42    43   ar
    37    43    44   ar
    38    44    45   ar
    39    45    46   ar
    40    46    47   ar
    41    39    40   ar
    42    40    41   ar
    43    41    33   ar
    44     7     1   ar
    45    41    36   ar
    46    15    10    1
    47    47    42   ar
    48    23    18   ar
    49    30    31    1
    50    26    27    1
    51     6     8    1
    52     6     9    1
@<TRIPOS>MOLECULE
*****
 47 52 0 0 0
SMALL
GASTEIGER

@<TRIPOS>ATOM
      1 C         -64.0578  -52.6565  -23.8220 C.ar    1  UNL1        0.0714
      2 C         -65.4147  -52.6838  -24.1616 C.ar    1  UNL1        0.1150
      3 N         -66.2319  -53.6383  -23.6465 N.ar    1  UNL1       -0.2266
      4 C         -65.7836  -54.5925  -22.7861 C.ar    1  UNL1        0.1448
      5 C         -64.4230  -54.6097  -22.4155 C.ar    1  UNL1        0.0748
      6 N         -63.8901  -55.6297  -21.5625 N.pl3   1  UNL1       -0.3548
      7 C         -63.5708  -53.6229  -22.9280 C.ar    1  UNL1        0.0332
      8 H         -62.8935  -55.5942  -21.2517 H       1  UNL1        0.1424
      9 H         -64.4501  -56.4676  -21.2944 H       1  UNL1        0.1424
     10 N         -66.7183  -55.5442  -22.2554 N.pl3   1  UNL1       -0.2923
     11 C         -67.5639  -56.3069  -23.1823 C.3     1  UNL1        0.0923
     12 C         -68.6927  -57.0336  -22.4406 C.3     1  UNL1        0.0252
     13 C         -69.3874  -56.0684  -21.4615 C.3     1  UNL1        0.0472
     14 C         -68.3920  -55.4520  -20.4361 C.3     1  UNL1        0.0252
     15 C         -66.9144  -55.6599  -20.8050 C.3     1  UNL1        0.0923
     16 C         -70.5601  -56.7748  -20.7546 C.3     1  UNL1        0.2054
     17 O         -70.2147  -57.1274  -19.4137 O.3     1  UNL1       -0.4755
     18 C         -70.5763  -56.4114  -18.2607 C.ar    1  UNL1        0.1388
     19 C         -71.6094  -55.4550  -18.2504 C.ar    1  UNL1        0.0369
     20 C         -71.9231  -54.7730  -17.0731 C.ar    1  UNL1        0.0033
     21 C         -71.2179  -55.0365  -15.8970 C.ar    1  UNL1        0.0066
     22 C         -70.1878  -55.9914  -15.8857 C.ar    1  UNL1        0.0785
     23 C         -69.8773  -56.6748  -17.0759 C.ar    1  UNL1        0.0433
     24 C         -69.4428  -56.2707  -14.6381 C.2     1  UNL1        0.3381
     25 O         -68.2006  -56.4849  -14.6701 O.2     1  UNL1       -0.2451
     26 O         -70.1078  -56.2998  -13.4149 O.3     1  UNL1       -0.4771
     27 H         -69.6074  -56.4900  -12.5548 H       1  UNL1        0.2954
     28 C         -62.5416  -50.6454  -23.5397 C.2     1  UNL1        0.2839
     29 O         -62.2588  -50.9109  -22.3405 O.2     1  UNL1       -0.2665
     30 N         -63.2118  -51.6212  -24.3515 N.am    1  UNL1       -0.2766
     31 H         -62.9836  -51.6461  -25.3705 H       1  UNL1        0.1553
     32 C         -63.9094  -48.9740  -25.9470 C.3     1  UNL1        0.0345
     33 C         -62.6841  -48.6370  -25.1520 C.ar    1  UNL1        0.0202
     34 C         -62.0983  -49.3586  -24.1043 C.ar    1  UNL1        0.1946
     35 O         -61.0445  -48.7086  -23.6423 O.2     1  UNL1       -0.4492
     36 C         -60.9034  -47.6147  -24.3502 C.ar    1  UNL1        0.1452
     37 C         -59.9204  -46.6406  -24.2145 C.ar    1  UNL1        0.0375
     38 C         -59.9549  -45.5417  -25.0908 C.ar    1  UNL1        0.0031
     39 C         -60.9656  -45.4333  -26.0844 C.ar    1  UNL1        0.0002
     40 C         -61.9486  -46.4468  -26.1869 C.ar    1  UNL1        0.0028
     41 C         -61.8836  -47.5220  -25.3005 C.ar    1  UNL1        0.0337
     42 C         -60.9913  -44.2689  -27.0056 C.ar    1  UNL1        0.0000
     43 C         -60.8203  -42.9616  -26.5119 C.ar    1  UNL1        0.0000
     44 C         -60.8438  -41.8672  -27.3819 C.ar    1  UNL1        0.0000
     45 C         -61.0388  -42.0638  -28.7508 C.ar    1  UNL1        0.0000
     46 C         -61.2098  -43.3557  -29.2529 C.ar    1  UNL1        0.0000
     47 C         -61.1861  -44.4539  -28.3877 C.ar    1  UNL1        0.0000
@<TRIPOS>BOND
     1    32    33    1
     2    33    34   ar
     3    34    28    1
     4    28    29    2
     5    28    30   am
     6    30     1    1
     7     1     2   ar
     8     2     3   ar
     9     3     4   ar
    10     4    10    1
    11    10    11    1
    12    11    12    1
    13    12    13    1
    14    13    16    1
    15    16    17    1
    16    17    18    1
    17    18    19   ar
    18    19    20   ar
    19    20    21   ar
    20    21    22   ar
    21    22    24    1
    22    24    25    2
    23    24    26    1
    24    22    23   ar
    25    13    14    1
    26    14    15    1
    27     4     5   ar
    28     5     6    1
    29     5     7   ar
    30    34    35   ar
    31    35    36   ar
    32    36    37   ar
    33    37    38   ar
    34    38    39   ar
    35    39    42    1
    36    42    43   ar
    37    43    44   ar
    38    44    45   ar
    39    45    46   ar
    40    46    47   ar
    41    39    40   ar
    42    40    41   ar
    43    41    33   ar
    44     7     1   ar
    45    41    36   ar
    46    15    10    1
    47    47    42   ar
    48    23    18   ar
    49    30    31    1
    50    26    27    1
    51     6     8    1
    52     6     9    1
@<TRIPOS>MOLECULE
*****
 47 52 0 0 0
SMALL
GASTEIGER

@<TRIPOS>ATOM
      1 C         -64.8996  -53.1010  -23.9255 C.ar    1  UNL1        0.0714
      2 C         -66.2953  -53.1085  -23.8278 C.ar    1  UNL1        0.1150
      3 N         -66.9171  -53.9378  -22.9504 N.ar    1  UNL1       -0.2266
      4 C         -66.2288  -54.7807  -22.1335 C.ar    1  UNL1        0.1448
      5 C         -64.8203  -54.8128  -22.1964 C.ar    1  UNL1        0.0748
      6 N         -64.0539  -55.7260  -21.4022 N.pl3   1  UNL1       -0.3548
      7 C         -64.1642  -53.9530  -23.0869 C.ar    1  UNL1        0.0332
      8 H         -63.0100  -55.6964  -21.4186 H       1  UNL1        0.1424
      9 H         -64.5069  -56.4880  -20.8530 H       1  UNL1        0.1424
     10 N         -66.9576  -55.5990  -21.2060 N.pl3   1  UNL1       -0.2923
     11 C         -67.8093  -56.6777  -21.7227 C.3     1  UNL1        0.0923
     12 C         -68.7311  -57.2344  -20.6306 C.3     1  UNL1        0.0252
     13 C         -69.4136  -56.0777  -19.8763 C.3     1  UNL1        0.0472
     14 C         -68.3832  -55.0947  -19.2482 C.3     1  UNL1        0.0252
     15 C         -66.9504  -55.2804  -19.7729 C.3     1  UNL1        0.0923
     16 C         -70.3856  -56.6295  -18.8158 C.3     1  UNL1        0.2054
     17 O         -69.6908  -56.9927  -17.6212 O.3     1  UNL1       -0.4755
     18 C         -70.0002  -56.5440  -16.3266 C.ar    1  UNL1        0.1388
     19 C         -69.4297  -57.1061  -15.1688 C.ar    1  UNL1        0.0369
     20 C         -69.7772  -56.6189  -13.9072 C.ar    1  UNL1        0.0033
     21 C         -70.6895  -55.5690  -13.7843 C.ar    1  UNL1        0.0066
     22 C         -71.2651  -54.9910  -14.9280 C.ar    1  UNL1        0.0785
     23 C         -70.9101  -55.4872  -16.1959 C.ar    1  UNL1        0.0433
     24 C         -72.2303  -53.8772  -14.7960 C.2     1  UNL1        0.3381
     25 O         -73.4118  -54.0023  -15.2183 O.2     1  UNL1       -0.2451
     26 O         -71.8420  -52.6784  -14.2032 O.3     1  UNL1       -0.4771
     27 H         -72.4949  -51.9096  -14.1078 H       1  UNL1        0.2954
     28 C         -63.7067  -50.9269  -24.4485 C.2     1  UNL1        0.2839
     29 O         -63.3264  -50.7426  -23.2611 O.2     1  UNL1       -0.2665
     30 N         -64.2546  -52.1954  -24.8375 N.am    1  UNL1       -0.2766
     31 H         -64.0762  -52.5240  -25.8128 H       1  UNL1        0.1553
     32 C         -61.9467  -48.2374  -24.0900 C.3     1  UNL1        0.0345
     33 C         -62.7452  -48.6818  -25.2782 C.ar    1  UNL1        0.0202
     34 C         -63.5001  -49.8511  -25.4339 C.ar    1  UNL1        0.1946
     35 O         -64.0294  -49.8890  -26.6443 O.2     1  UNL1       -0.4492
     36 C         -63.6754  -48.7951  -27.2734 C.ar    1  UNL1        0.1452
     37 C         -64.0154  -48.4162  -28.5673 C.ar    1  UNL1        0.0375
     38 C         -63.5261  -47.1878  -29.0454 C.ar    1  UNL1        0.0031
     39 C         -62.7089  -46.3609  -28.2275 C.ar    1  UNL1        0.0002
     40 C         -62.3852  -46.7856  -26.9165 C.ar    1  UNL1        0.0028
     41 C         -62.8878  -48.0101  -26.4760 C.ar    1  UNL1        0.0337
     42 C         -62.1989  -45.0648  -28.7424 C.ar    1  UNL1        0.0000
     43 C         -61.7054  -44.0873  -27.8576 C.ar    1  UNL1        0.0000
     44 C         -61.2248  -42.8682  -28.3455 C.ar    1  UNL1        0.0000
     45 C         -61.2319  -42.6105  -29.7181 C.ar    1  UNL1        0.0000
     46 C         -61.7190  -43.5720  -30.6061 C.ar    1  UNL1        0.0000
     47 C         -62.2000  -44.7932  -30.1240 C.ar    1  UNL1        0.0000
@<TRIPOS>BOND
     1    32    33    1
     2    33    34   ar
     3    34    28    1
     4    28    29    2
     5    28    30   am
     6    30     1    1
     7     1     2   ar
     8     2     3   ar
     9     3     4   ar
    10     4    10    1
    11    10    11    1
    12    11    12    1
    13    12    13    1
    14    13    16    1
    15    16    17    1
    16    17    18    1
    17    18    19   ar
    18    19    20   ar
    19    20    21   ar
    20    21    22   ar
    21    22    24    1
    22    24    25    2
    23    24    26    1
    24    22    23   ar
    25    13    14    1
    26    14    15    1
    27     4     5   ar
    28     5     6    1
    29     5     7   ar
    30    34    35   ar
    31    35    36   ar
    32    36    37   ar
    33    37    38   ar
    34    38    39   ar
    35    39    42    1
    36    42    43   ar
    37    43    44   ar
    38    44    45   ar
    39    45    46   ar
    40    46    47   ar
    41    39    40   ar
    42    40    41   ar
    43    41    33   ar
    44     7     1   ar
    45    41    36   ar
    46    15    10    1
    47    47    42   ar
    48    23    18   ar
    49    30    31    1
    50    26    27    1
    51     6     8    1
    52     6     9    1
