@<TRIPOS>MOLECULE
*****
 52 57 0 0 0
SMALL
GASTEIGER

@<TRIPOS>ATOM
      1 N         -61.0800  -44.4957  -27.1521 N.am    1  UNL1       -0.2945
      2 C         -60.4409  -45.7769  -27.0214 C.2     1  UNL1        0.2483
      3 O         -59.2950  -45.9559  -27.5180 O.2     1  UNL1       -0.2701
      4 H         -62.1028  -44.4375  -26.9510 H       1  UNL1        0.1501
      5 C         -61.1227  -46.9112  -26.3509 C.ar    1  UNL1        0.0808
      6 C         -61.9398  -47.7681  -27.1091 C.ar    1  UNL1        0.0080
      7 C         -62.5962  -48.8446  -26.5075 C.ar    1  UNL1        0.0148
      8 C         -62.4401  -49.0946  -25.1361 C.ar    1  UNL1        0.0502
      9 C         -61.6162  -48.2510  -24.3775 C.ar    1  UNL1        0.0443
     10 C         -60.9583  -47.1708  -24.9743 C.ar    1  UNL1        0.1457
     11 F         -60.1345  -46.4146  -24.2070 F       1  UNL1       -0.2040
     12 N         -63.1143  -50.2022  -24.5097 N.pl3   1  UNL1       -0.3040
     13 C         -62.5796  -50.8001  -23.2804 C.3     1  UNL1        0.1122
     14 C         -62.7716  -52.3167  -23.3110 C.3     1  UNL1        0.1122
     15 N         -64.1521  -52.6435  -23.6880 N.pl3   1  UNL1       -0.3041
     16 C         -64.6871  -52.0456  -24.9172 C.3     1  UNL1        0.1122
     17 C         -64.4948  -50.5289  -24.8868 C.3     1  UNL1        0.1122
     18 C         -64.8275  -53.7487  -23.0583 C.ar    1  UNL1        0.0479
     19 C         -64.0975  -54.7562  -22.4071 C.ar    1  UNL1        0.0145
     20 C         -64.7587  -55.8332  -21.8138 C.ar    1  UNL1        0.0012
     21 C         -66.1524  -55.9129  -21.8576 C.ar    1  UNL1        0.0039
     22 C         -66.9029  -54.9026  -22.4831 C.ar    1  UNL1        0.0726
     23 C         -66.2287  -53.8348  -23.1021 C.ar    1  UNL1        0.0184
     24 C         -68.4038  -55.0137  -22.5791 C.3     1  UNL1        0.4186
     25 F         -68.7670  -56.1338  -23.3070 F       1  UNL1       -0.1659
     26 F         -68.9667  -55.1164  -21.3187 F       1  UNL1       -0.1659
     27 F         -68.9041  -53.8877  -23.2057 F       1  UNL1       -0.1659
     28 C         -60.3804  -43.3239  -27.7032 C.3     1  UNL1        0.1535
     29 C         -60.8156  -43.0299  -29.1231 C.2     1  UNL1        0.2443
     30 O         -61.3357  -41.9157  -29.4045 O.2     1  UNL1       -0.2730
     31 N         -60.6081  -44.0165  -30.1487 N.am    1  UNL1       -0.2825
     32 H         -60.3328  -44.9778  -29.8444 H       1  UNL1        0.1549
     33 C         -60.8755  -43.8144  -31.5487 C.ar    1  UNL1        0.0535
     34 C         -59.8395  -43.9955  -32.4760 C.ar    1  UNL1        0.0353
     35 C         -60.0783  -43.7759  -33.8346 C.ar    1  UNL1        0.1002
     36 N         -61.3058  -43.3719  -34.2546 N.ar    1  UNL1       -0.2422
     37 C         -62.3255  -43.1690  -33.3794 C.ar    1  UNL1        0.1002
     38 C         -62.1300  -43.3793  -32.0122 C.ar    1  UNL1        0.0353
     39 C         -60.5649  -42.0847  -26.8030 C.3     1  UNL1        0.0569
     40 C         -61.9830  -43.2165  -22.1774 C.ar    1  UNL1        0.0228
     41 C         -60.6882  -43.4917  -21.6762 C.ar    1  UNL1       -0.0004
     42 C         -59.5590  -43.4368  -22.5194 C.ar    1  UNL1       -0.0002
     43 C         -59.6945  -43.0837  -23.8703 C.ar    1  UNL1        0.0011
     44 C         -60.9704  -42.7786  -24.3395 C.ar    1  UNL1        0.0129
     45 C         -61.4007  -42.3652  -25.5852 C.ar    1  UNL1       -0.0017
     46 C         -62.7733  -42.1873  -25.4684 C.ar    1  UNL1        0.0681
     47 N         -63.1819  -42.4734  -24.2123 N.ar    1  UNL1       -0.3524
     48 C         -62.0782  -42.8372  -23.5282 C.ar    1  UNL1        0.0546
     49 H         -64.1615  -42.4034  -23.8598 H       1  UNL1        0.1660
     50 C         -63.1874  -43.2340  -21.2695 C.3     1  UNL1        0.1701
     51 C         -64.0307  -41.1377  -20.8147 C.3     1  UNL1        0.1746
     52 O         -64.1187  -42.2513  -21.6751 O.3     1  UNL1       -0.3463
@<TRIPOS>BOND
     1    51    52    1
     2    52    50    1
     3    50    40    1
     4    40    41   ar
     5    41    42   ar
     6    42    43   ar
     7    43    44   ar
     8    44    45   ar
     9    45    39    1
    10    39    28    1
    11    28     1    1
    12     1     2   am
    13     2     3    2
    14     2     5    1
    15     5     6   ar
    16     6     7   ar
    17     7     8   ar
    18     8    12    1
    19    12    13    1
    20    13    14    1
    21    14    15    1
    22    15    18    1
    23    18    19   ar
    24    19    20   ar
    25    20    21   ar
    26    21    22   ar
    27    22    24    1
    28    24    25    1
    29    24    26    1
    30    24    27    1
    31    22    23   ar
    32    15    16    1
    33    16    17    1
    34     8     9   ar
    35     9    10   ar
    36    10    11    1
    37    28    29    1
    38    29    30    2
    39    29    31   am
    40    31    33    1
    41    33    34   ar
    42    34    35   ar
    43    35    36   ar
    44    36    37   ar
    45    37    38   ar
    46    45    46   ar
    47    46    47   ar
    48    47    48   ar
    49    48    40   ar
    50    48    44   ar
    51    10     5   ar
    52    38    33   ar
    53    17    12    1
    54    23    18   ar
    55     1     4    1
    56    31    32    1
    57    47    49    1
@<TRIPOS>MOLECULE
*****
 52 57 0 0 0
SMALL
GASTEIGER

@<TRIPOS>ATOM
      1 N         -63.2241  -47.0174  -26.6238 N.am    1  UNL1       -0.2945
      2 C         -62.2080  -46.5252  -25.7337 C.2     1  UNL1        0.2483
      3 O         -61.1546  -47.1969  -25.5574 O.2     1  UNL1       -0.2701
      4 H         -64.1705  -46.5793  -26.5742 H       1  UNL1        0.1501
      5 C         -62.3926  -45.2605  -24.9805 C.ar    1  UNL1        0.0808
      6 C         -62.2547  -45.2667  -23.5813 C.ar    1  UNL1        0.0080
      7 C         -62.4231  -44.0928  -22.8430 C.ar    1  UNL1        0.0148
      8 C         -62.7216  -42.8841  -23.4894 C.ar    1  UNL1        0.0502
      9 C         -62.8476  -42.8694  -24.8857 C.ar    1  UNL1        0.0443
     10 C         -62.6820  -44.0422  -25.6296 C.ar    1  UNL1        0.1457
     11 F         -62.7656  -43.9650  -26.9810 F       1  UNL1       -0.2040
     12 N         -62.8970  -41.6707  -22.7342 N.pl3   1  UNL1       -0.3040
     13 C         -61.8164  -41.1625  -21.8807 C.3     1  UNL1        0.1122
     14 C         -62.3992  -40.5706  -20.5971 C.3     1  UNL1        0.1122
     15 N         -63.5053  -39.6602  -20.9175 N.pl3   1  UNL1       -0.3041
     16 C         -64.5860  -40.1681  -21.7711 C.3     1  UNL1        0.1122
     17 C         -64.0032  -40.7605  -23.0547 C.3     1  UNL1        0.1122
     18 C         -63.6779  -38.4447  -20.1647 C.ar    1  UNL1        0.0479
     19 C         -64.7041  -38.3321  -19.2128 C.ar    1  UNL1        0.0145
     20 C         -64.8754  -37.1444  -18.4991 C.ar    1  UNL1        0.0012
     21 C         -64.0225  -36.0612  -18.7221 C.ar    1  UNL1        0.0039
     22 C         -62.9741  -36.1616  -19.6527 C.ar    1  UNL1        0.0726
     23 C         -62.8245  -37.3515  -20.3872 C.ar    1  UNL1        0.0184
     24 C         -62.0859  -34.9758  -19.9344 C.3     1  UNL1        0.4186
     25 F         -62.6381  -34.1721  -20.9169 F       1  UNL1       -0.1659
     26 F         -61.9184  -34.2101  -18.7935 F       1  UNL1       -0.1659
     27 F         -60.8501  -35.4244  -20.3615 F       1  UNL1       -0.1659
     28 C         -63.0158  -48.2020  -27.4719 C.3     1  UNL1        0.1535
     29 C         -63.3501  -49.4821  -26.7360 C.2     1  UNL1        0.2443
     30 O         -63.8695  -50.4489  -27.3578 O.2     1  UNL1       -0.2730
     31 N         -63.0480  -49.5957  -25.3345 N.am    1  UNL1       -0.2825
     32 H         -62.7775  -48.7228  -24.8272 H       1  UNL1        0.1549
     33 C         -63.2148  -50.7930  -24.5530 C.ar    1  UNL1        0.0535
     34 C         -62.2365  -51.1351  -23.6085 C.ar    1  UNL1        0.0353
     35 C         -62.3722  -52.3085  -22.8630 C.ar    1  UNL1        0.1002
     36 N         -63.4400  -53.1245  -23.0641 N.ar    1  UNL1       -0.2422
     37 C         -64.3954  -52.8312  -23.9850 C.ar    1  UNL1        0.1002
     38 C         -64.2993  -51.6665  -24.7503 C.ar    1  UNL1        0.0353
     39 C         -63.8148  -48.0986  -28.7876 C.3     1  UNL1        0.0569
     40 C         -62.3507  -43.6613  -30.4772 C.ar    1  UNL1        0.0228
     41 C         -60.9791  -43.8156  -30.1636 C.ar    1  UNL1       -0.0004
     42 C         -60.5126  -44.9734  -29.5073 C.ar    1  UNL1       -0.0002
     43 C         -61.3979  -46.0090  -29.1729 C.ar    1  UNL1        0.0011
     44 C         -62.7383  -45.8590  -29.5223 C.ar    1  UNL1        0.0129
     45 C         -63.8144  -46.7105  -29.3650 C.ar    1  UNL1       -0.0017
     46 C         -64.9016  -46.0483  -29.9208 C.ar    1  UNL1        0.0681
     47 N         -64.5251  -44.8433  -30.4032 N.ar    1  UNL1       -0.3524
     48 C         -63.2045  -44.7311  -30.1544 C.ar    1  UNL1        0.0546
     49 H         -65.1480  -44.1585  -30.8846 H       1  UNL1        0.1660
     50 C         -62.8466  -42.4430  -31.2156 C.3     1  UNL1        0.1701
     51 C         -64.3322  -41.2073  -29.9591 C.3     1  UNL1        0.1746
     52 O         -64.2132  -42.2223  -30.9306 O.3     1  UNL1       -0.3463
@<TRIPOS>BOND
     1    51    52    1
     2    52    50    1
     3    50    40    1
     4    40    41   ar
     5    41    42   ar
     6    42    43   ar
     7    43    44   ar
     8    44    45   ar
     9    45    39    1
    10    39    28    1
    11    28     1    1
    12     1     2   am
    13     2     3    2
    14     2     5    1
    15     5     6   ar
    16     6     7   ar
    17     7     8   ar
    18     8    12    1
    19    12    13    1
    20    13    14    1
    21    14    15    1
    22    15    18    1
    23    18    19   ar
    24    19    20   ar
    25    20    21   ar
    26    21    22   ar
    27    22    24    1
    28    24    25    1
    29    24    26    1
    30    24    27    1
    31    22    23   ar
    32    15    16    1
    33    16    17    1
    34     8     9   ar
    35     9    10   ar
    36    10    11    1
    37    28    29    1
    38    29    30    2
    39    29    31   am
    40    31    33    1
    41    33    34   ar
    42    34    35   ar
    43    35    36   ar
    44    36    37   ar
    45    37    38   ar
    46    45    46   ar
    47    46    47   ar
    48    47    48   ar
    49    48    40   ar
    50    48    44   ar
    51    10     5   ar
    52    38    33   ar
    53    17    12    1
    54    23    18   ar
    55     1     4    1
    56    31    32    1
    57    47    49    1
@<TRIPOS>MOLECULE
*****
 52 57 0 0 0
SMALL
GASTEIGER

@<TRIPOS>ATOM
      1 N         -63.0740  -47.4443  -25.2564 N.am    1  UNL1       -0.2945
      2 C         -62.0775  -46.9065  -24.3704 C.2     1  UNL1        0.2483
      3 O         -61.1575  -47.6544  -23.9390 O.2     1  UNL1       -0.2701
      4 H         -63.9439  -46.8874  -25.4082 H       1  UNL1        0.1501
      5 C         -62.1345  -45.4957  -23.9152 C.ar    1  UNL1        0.0808
      6 C         -62.3504  -45.2204  -22.5534 C.ar    1  UNL1        0.0080
      7 C         -62.4102  -43.9028  -22.0930 C.ar    1  UNL1        0.0148
      8 C         -62.2434  -42.8315  -22.9831 C.ar    1  UNL1        0.0502
      9 C         -62.0150  -43.1002  -24.3401 C.ar    1  UNL1        0.0443
     10 C         -61.9562  -44.4173  -24.8067 C.ar    1  UNL1        0.1457
     11 F         -61.6841  -44.6243  -26.1191 F       1  UNL1       -0.2040
     12 N         -62.3045  -41.4710  -22.5151 N.pl3   1  UNL1       -0.3040
     13 C         -61.1226  -40.8345  -21.9212 C.3     1  UNL1        0.1122
     14 C         -61.5423  -39.9387  -20.7554 C.3     1  UNL1        0.1122
     15 N         -62.6569  -39.0731  -21.1594 N.pl3   1  UNL1       -0.3041
     16 C         -63.8388  -39.7093  -21.7534 C.3     1  UNL1        0.1122
     17 C         -63.4191  -40.6055  -22.9191 C.3     1  UNL1        0.1122
     18 C         -62.7153  -37.7113  -20.6945 C.ar    1  UNL1        0.0479
     19 C         -61.7512  -36.7745  -21.1005 C.ar    1  UNL1        0.0145
     20 C         -61.8049  -35.4605  -20.6319 C.ar    1  UNL1        0.0012
     21 C         -62.8227  -35.0660  -19.7606 C.ar    1  UNL1        0.0039
     22 C         -63.8114  -35.9816  -19.3614 C.ar    1  UNL1        0.0726
     23 C         -63.7353  -37.3103  -19.8160 C.ar    1  UNL1        0.0184
     24 C         -64.8797  -35.5729  -18.3786 C.3     1  UNL1        0.4186
     25 F         -64.3313  -34.8583  -17.3274 F       1  UNL1       -0.1659
     26 F         -65.8292  -34.7757  -18.9940 F       1  UNL1       -0.1659
     27 F         -65.4964  -36.7051  -17.8801 F       1  UNL1       -0.1659
     28 C         -62.9731  -48.8013  -25.8172 C.3     1  UNL1        0.1535
     29 C         -63.7248  -49.8110  -24.9761 C.2     1  UNL1        0.2443
     30 O         -64.8622  -49.5228  -24.5129 O.2     1  UNL1       -0.2730
     31 N         -63.1457  -51.1047  -24.7325 N.am    1  UNL1       -0.2825
     32 H         -62.1415  -51.2396  -24.9892 H       1  UNL1        0.1549
     33 C         -63.8061  -52.1838  -24.0458 C.ar    1  UNL1        0.0535
     34 C         -63.1203  -52.8731  -23.0356 C.ar    1  UNL1        0.0353
     35 C         -63.7394  -53.9400  -22.3803 C.ar    1  UNL1        0.1002
     36 N         -64.9959  -54.3196  -22.7320 N.ar    1  UNL1       -0.2422
     37 C         -65.6802  -53.6846  -23.7196 C.ar    1  UNL1        0.1002
     38 C         -65.0987  -52.6113  -24.3989 C.ar    1  UNL1        0.0353
     39 C         -63.4522  -48.8403  -27.2832 C.3     1  UNL1        0.0569
     40 C         -61.1567  -44.9735  -29.3965 C.ar    1  UNL1        0.0228
     41 C         -59.8483  -45.3179  -28.9809 C.ar    1  UNL1       -0.0004
     42 C         -59.6217  -46.4439  -28.1626 C.ar    1  UNL1       -0.0002
     43 C         -60.6896  -47.2613  -27.7630 C.ar    1  UNL1        0.0011
     44 C         -61.9666  -46.9310  -28.2116 C.ar    1  UNL1        0.0129
     45 C         -63.1821  -47.5589  -28.0215 C.ar    1  UNL1       -0.0017
     46 C         -64.1110  -46.7981  -28.7200 C.ar    1  UNL1        0.0681
     47 N         -63.5074  -45.7475  -29.3186 N.ar    1  UNL1       -0.3524
     48 C         -62.1991  -45.8311  -29.0023 C.ar    1  UNL1        0.0546
     49 H         -63.9787  -45.0342  -29.9168 H       1  UNL1        0.1660
     50 C         -61.3981  -43.7939  -30.3053 C.3     1  UNL1        0.1701
     51 C         -62.2636  -43.2368  -32.3676 C.3     1  UNL1        0.1746
     52 O         -62.3804  -44.1138  -31.2697 O.3     1  UNL1       -0.3463
@<TRIPOS>BOND
     1    51    52    1
     2    52    50    1
     3    50    40    1
     4    40    41   ar
     5    41    42   ar
     6    42    43   ar
     7    43    44   ar
     8    44    45   ar
     9    45    39    1
    10    39    28    1
    11    28     1    1
    12     1     2   am
    13     2     3    2
    14     2     5    1
    15     5     6   ar
    16     6     7   ar
    17     7     8   ar
    18     8    12    1
    19    12    13    1
    20    13    14    1
    21    14    15    1
    22    15    18    1
    23    18    19   ar
    24    19    20   ar
    25    20    21   ar
    26    21    22   ar
    27    22    24    1
    28    24    25    1
    29    24    26    1
    30    24    27    1
    31    22    23   ar
    32    15    16    1
    33    16    17    1
    34     8     9   ar
    35     9    10   ar
    36    10    11    1
    37    28    29    1
    38    29    30    2
    39    29    31   am
    40    31    33    1
    41    33    34   ar
    42    34    35   ar
    43    35    36   ar
    44    36    37   ar
    45    37    38   ar
    46    45    46   ar
    47    46    47   ar
    48    47    48   ar
    49    48    40   ar
    50    48    44   ar
    51    10     5   ar
    52    38    33   ar
    53    17    12    1
    54    23    18   ar
    55     1     4    1
    56    31    32    1
    57    47    49    1
@<TRIPOS>MOLECULE
*****
 52 57 0 0 0
SMALL
GASTEIGER

@<TRIPOS>ATOM
      1 N         -62.7952  -46.6561  -25.6840 N.am    1  UNL1       -0.2945
      2 C         -61.9394  -46.2820  -24.5909 C.2     1  UNL1        0.2483
      3 O         -61.0862  -47.1040  -24.1573 O.2     1  UNL1       -0.2701
      4 H         -63.6378  -46.0676  -25.8678 H       1  UNL1        0.1501
      5 C         -62.0698  -44.9602  -23.9301 C.ar    1  UNL1        0.0808
      6 C         -62.1310  -44.8956  -22.5269 C.ar    1  UNL1        0.0080
      7 C         -62.2545  -43.6666  -21.8743 C.ar    1  UNL1        0.0148
      8 C         -62.3076  -42.4739  -22.6108 C.ar    1  UNL1        0.0502
      9 C         -62.2341  -42.5312  -24.0098 C.ar    1  UNL1        0.0443
     10 C         -62.1124  -43.7591  -24.6683 C.ar    1  UNL1        0.1457
     11 F         -61.9957  -43.7566  -26.0195 F       1  UNL1       -0.2040
     12 N         -62.4355  -41.2038  -21.9443 N.pl3   1  UNL1       -0.3040
     13 C         -63.7585  -40.6040  -21.7332 C.3     1  UNL1        0.1122
     14 C         -63.6807  -39.0885  -21.9206 C.3     1  UNL1        0.1122
     15 N         -62.5510  -38.5428  -21.1584 N.pl3   1  UNL1       -0.3041
     16 C         -61.2280  -39.1425  -21.3691 C.3     1  UNL1        0.1122
     17 C         -61.3059  -40.6581  -21.1822 C.3     1  UNL1        0.1122
     18 C         -62.6808  -37.2745  -20.4885 C.ar    1  UNL1        0.0479
     19 C         -61.7001  -36.2811  -20.6408 C.ar    1  UNL1        0.0145
     20 C         -61.8246  -35.0606  -19.9745 C.ar    1  UNL1        0.0012
     21 C         -62.9298  -34.8159  -19.1564 C.ar    1  UNL1        0.0039
     22 C         -63.9347  -35.7874  -19.0098 C.ar    1  UNL1        0.0726
     23 C         -63.7890  -37.0247  -19.6624 C.ar    1  UNL1        0.0184
     24 C         -65.1013  -35.5470  -18.0848 C.3     1  UNL1        0.4186
     25 F         -64.6873  -34.9056  -16.9301 F       1  UNL1       -0.1659
     26 F         -66.0561  -34.7558  -18.6998 F       1  UNL1       -0.1659
     27 F         -65.6711  -36.7601  -17.7466 F       1  UNL1       -0.1659
     28 C         -62.6067  -47.9088  -26.4332 C.3     1  UNL1        0.1535
     29 C         -62.8943  -49.1222  -25.5748 C.2     1  UNL1        0.2443
     30 O         -64.0153  -49.6958  -25.6503 O.2     1  UNL1       -0.2730
     31 N         -61.8749  -49.6287  -24.6960 N.am    1  UNL1       -0.2825
     32 H         -61.0314  -49.0312  -24.5409 H       1  UNL1        0.1549
     33 C         -61.9872  -50.8337  -23.9164 C.ar    1  UNL1        0.0535
     34 C         -60.8471  -51.3460  -23.2810 C.ar    1  UNL1        0.0353
     35 C         -60.9363  -52.5294  -22.5442 C.ar    1  UNL1        0.1002
     36 N         -62.1200  -53.1909  -22.4573 N.ar    1  UNL1       -0.2422
     37 C         -63.2387  -52.7309  -23.0769 C.ar    1  UNL1        0.1002
     38 C         -63.1938  -51.5501  -23.8220 C.ar    1  UNL1        0.0353
     39 C         -63.4602  -47.9286  -27.7183 C.3     1  UNL1        0.0569
     40 C         -61.3663  -44.1918  -30.2361 C.ar    1  UNL1        0.0228
     41 C         -60.0347  -44.4553  -29.8349 C.ar    1  UNL1       -0.0004
     42 C         -59.7443  -45.4964  -28.9290 C.ar    1  UNL1       -0.0002
     43 C         -60.7704  -46.3094  -28.4246 C.ar    1  UNL1        0.0011
     44 C         -62.0711  -46.0618  -28.8584 C.ar    1  UNL1        0.0129
     45 C         -63.2575  -46.7096  -28.5744 C.ar    1  UNL1       -0.0017
     46 C         -64.2329  -46.0443  -29.3060 C.ar    1  UNL1        0.0681
     47 N         -63.6848  -45.0318  -30.0138 N.ar    1  UNL1       -0.3524
     48 C         -62.3656  -45.0445  -29.7343 C.ar    1  UNL1        0.0546
     49 H         -64.1985  -44.3901  -30.6564 H       1  UNL1        0.1660
     50 C         -61.6760  -43.1059  -31.2362 C.3     1  UNL1        0.1701
     51 C         -62.3169  -41.3137  -29.9363 C.3     1  UNL1        0.1746
     52 O         -62.7747  -42.3345  -30.7945 O.3     1  UNL1       -0.3463
@<TRIPOS>BOND
     1    51    52    1
     2    52    50    1
     3    50    40    1
     4    40    41   ar
     5    41    42   ar
     6    42    43   ar
     7    43    44   ar
     8    44    45   ar
     9    45    39    1
    10    39    28    1
    11    28     1    1
    12     1     2   am
    13     2     3    2
    14     2     5    1
    15     5     6   ar
    16     6     7   ar
    17     7     8   ar
    18     8    12    1
    19    12    13    1
    20    13    14    1
    21    14    15    1
    22    15    18    1
    23    18    19   ar
    24    19    20   ar
    25    20    21   ar
    26    21    22   ar
    27    22    24    1
    28    24    25    1
    29    24    26    1
    30    24    27    1
    31    22    23   ar
    32    15    16    1
    33    16    17    1
    34     8     9   ar
    35     9    10   ar
    36    10    11    1
    37    28    29    1
    38    29    30    2
    39    29    31   am
    40    31    33    1
    41    33    34   ar
    42    34    35   ar
    43    35    36   ar
    44    36    37   ar
    45    37    38   ar
    46    45    46   ar
    47    46    47   ar
    48    47    48   ar
    49    48    40   ar
    50    48    44   ar
    51    10     5   ar
    52    38    33   ar
    53    17    12    1
    54    23    18   ar
    55     1     4    1
    56    31    32    1
    57    47    49    1
@<TRIPOS>MOLECULE
*****
 52 57 0 0 0
SMALL
GASTEIGER

@<TRIPOS>ATOM
      1 N         -61.2949  -44.4500  -27.0789 N.am    1  UNL1       -0.2945
      2 C         -60.7139  -45.7644  -27.1236 C.2     1  UNL1        0.2483
      3 O         -59.6339  -45.9480  -27.7495 O.2     1  UNL1       -0.2701
      4 H         -62.2882  -44.3656  -26.7688 H       1  UNL1        0.1501
      5 C         -61.3841  -46.9232  -26.4841 C.ar    1  UNL1        0.0808
      6 C         -60.8786  -47.4280  -25.2730 C.ar    1  UNL1        0.0080
      7 C         -61.4863  -48.5184  -24.6460 C.ar    1  UNL1        0.0148
      8 C         -62.6204  -49.1207  -25.2107 C.ar    1  UNL1        0.0502
      9 C         -63.1365  -48.6135  -26.4116 C.ar    1  UNL1        0.0443
     10 C         -62.5309  -47.5232  -27.0446 C.ar    1  UNL1        0.1457
     11 F         -63.0978  -47.0399  -28.1779 F       1  UNL1       -0.2040
     12 N         -63.2512  -50.2454  -24.5698 N.pl3   1  UNL1       -0.3040
     13 C         -62.7436  -50.7534  -23.2896 C.3     1  UNL1        0.1122
     14 C         -62.8316  -52.2796  -23.2616 C.3     1  UNL1        0.1122
     15 N         -64.1652  -52.7165  -23.6922 N.pl3   1  UNL1       -0.3041
     16 C         -64.6731  -52.2085  -24.9723 C.3     1  UNL1        0.1122
     17 C         -64.5848  -50.6823  -25.0005 C.3     1  UNL1        0.1122
     18 C         -64.7974  -53.8388  -23.0481 C.ar    1  UNL1        0.0479
     19 C         -64.0297  -54.8055  -22.3788 C.ar    1  UNL1        0.0145
     20 C         -64.6487  -55.8996  -21.7714 C.ar    1  UNL1        0.0012
     21 C         -66.0378  -56.0371  -21.8192 C.ar    1  UNL1        0.0039
     22 C         -66.8264  -55.0680  -22.4628 C.ar    1  UNL1        0.0726
     23 C         -66.1938  -53.9830  -23.0957 C.ar    1  UNL1        0.0184
     24 C         -68.3210  -55.2420  -22.5627 C.3     1  UNL1        0.4186
     25 F         -68.9646  -54.5390  -21.5588 F       1  UNL1       -0.1659
     26 F         -68.7856  -54.7778  -23.7812 F       1  UNL1       -0.1659
     27 F         -68.6318  -56.5836  -22.4435 F       1  UNL1       -0.1659
     28 C         -60.5931  -43.2653  -27.5987 C.3     1  UNL1        0.1535
     29 C         -60.9395  -43.0021  -29.0488 C.2     1  UNL1        0.2443
     30 O         -61.4501  -41.8984  -29.3841 O.2     1  UNL1       -0.2730
     31 N         -60.6589  -44.0057  -30.0399 N.am    1  UNL1       -0.2825
     32 H         -60.3955  -44.9585  -29.7003 H       1  UNL1        0.1549
     33 C         -60.8383  -43.8324  -31.4577 C.ar    1  UNL1        0.0535
     34 C         -59.7547  -44.0619  -32.3174 C.ar    1  UNL1        0.0353
     35 C         -59.9076  -43.8707  -33.6926 C.ar    1  UNL1        0.1002
     36 N         -61.0975  -43.4478  -34.1941 N.ar    1  UNL1       -0.2422
     37 C         -62.1613  -43.1983  -33.3860 C.ar    1  UNL1        0.1002
     38 C         -62.0519  -43.3788  -32.0051 C.ar    1  UNL1        0.0353
     39 C         -60.8732  -42.0208  -26.7311 C.3     1  UNL1        0.0569
     40 C         -62.7580  -42.5521  -22.1645 C.ar    1  UNL1        0.0228
     41 C         -64.0030  -41.9346  -22.4328 C.ar    1  UNL1       -0.0004
     42 C         -64.2769  -41.3781  -23.6995 C.ar    1  UNL1       -0.0002
     43 C         -63.3266  -41.4473  -24.7291 C.ar    1  UNL1        0.0011
     44 C         -62.1208  -42.0918  -24.4611 C.ar    1  UNL1        0.0129
     45 C         -61.0327  -42.3481  -25.2724 C.ar    1  UNL1       -0.0017
     46 C         -60.1288  -43.0437  -24.4798 C.ar    1  UNL1        0.0681
     47 N         -60.6263  -43.2159  -23.2350 N.ar    1  UNL1       -0.3524
     48 C         -61.8408  -42.6299  -23.2277 C.ar    1  UNL1        0.0546
     49 H         -60.1526  -43.7207  -22.4543 H       1  UNL1        0.1660
     50 C         -62.4772  -43.1845  -20.8242 C.3     1  UNL1        0.1701
     51 C         -61.1125  -41.6131  -19.8339 C.3     1  UNL1        0.1746
     52 O         -62.3987  -42.1907  -19.8225 O.3     1  UNL1       -0.3463
@<TRIPOS>BOND
     1    51    52    1
     2    52    50    1
     3    50    40    1
     4    40    41   ar
     5    41    42   ar
     6    42    43   ar
     7    43    44   ar
     8    44    45   ar
     9    45    39    1
    10    39    28    1
    11    28     1    1
    12     1     2   am
    13     2     3    2
    14     2     5    1
    15     5     6   ar
    16     6     7   ar
    17     7     8   ar
    18     8    12    1
    19    12    13    1
    20    13    14    1
    21    14    15    1
    22    15    18    1
    23    18    19   ar
    24    19    20   ar
    25    20    21   ar
    26    21    22   ar
    27    22    24    1
    28    24    25    1
    29    24    26    1
    30    24    27    1
    31    22    23   ar
    32    15    16    1
    33    16    17    1
    34     8     9   ar
    35     9    10   ar
    36    10    11    1
    37    28    29    1
    38    29    30    2
    39    29    31   am
    40    31    33    1
    41    33    34   ar
    42    34    35   ar
    43    35    36   ar
    44    36    37   ar
    45    37    38   ar
    46    45    46   ar
    47    46    47   ar
    48    47    48   ar
    49    48    40   ar
    50    48    44   ar
    51    10     5   ar
    52    38    33   ar
    53    17    12    1
    54    23    18   ar
    55     1     4    1
    56    31    32    1
    57    47    49    1
@<TRIPOS>MOLECULE
*****
 52 57 0 0 0
SMALL
GASTEIGER

@<TRIPOS>ATOM
      1 N         -62.6120  -46.3020  -25.1159 N.am    1  UNL1       -0.2945
      2 C         -61.8660  -45.9537  -23.9371 C.2     1  UNL1        0.2483
      3 O         -61.0042  -46.7564  -23.4845 O.2     1  UNL1       -0.2701
      4 H         -63.4694  -45.7472  -25.3326 H       1  UNL1        0.1501
      5 C         -62.1213  -44.6843  -23.2130 C.ar    1  UNL1        0.0808
      6 C         -62.3247  -44.7146  -21.8221 C.ar    1  UNL1        0.0080
      7 C         -62.5682  -43.5369  -21.1113 C.ar    1  UNL1        0.0148
      8 C         -62.6018  -42.3013  -21.7746 C.ar    1  UNL1        0.0502
      9 C         -62.3869  -42.2636  -23.1595 C.ar    1  UNL1        0.0443
     10 C         -62.1446  -43.4398  -23.8764 C.ar    1  UNL1        0.1457
     11 F         -61.8943  -43.3439  -25.2059 F       1  UNL1       -0.2040
     12 N         -62.8529  -41.0837  -21.0478 N.pl3   1  UNL1       -0.3040
     13 C         -63.9521  -41.0091  -20.0779 C.3     1  UNL1        0.1122
     14 C         -64.6179  -39.6345  -20.1479 C.3     1  UNL1        0.1122
     15 N         -63.5996  -38.5778  -20.1125 N.pl3   1  UNL1       -0.3041
     16 C         -62.5001  -38.6522  -21.0822 C.3     1  UNL1        0.1122
     17 C         -61.8345  -40.0271  -21.0125 C.3     1  UNL1        0.1122
     18 C         -63.8494  -37.3620  -19.3820 C.ar    1  UNL1        0.0479
     19 C         -62.8918  -36.8538  -18.4894 C.ar    1  UNL1        0.0145
     20 C         -63.1485  -35.6839  -17.7723 C.ar    1  UNL1        0.0012
     21 C         -64.3578  -35.0061  -17.9426 C.ar    1  UNL1        0.0039
     22 C         -65.3194  -35.4845  -18.8490 C.ar    1  UNL1        0.0726
     23 C         -65.0651  -36.6782  -19.5477 C.ar    1  UNL1        0.0184
     24 C         -66.6474  -34.7849  -18.9946 C.3     1  UNL1        0.4186
     25 F         -67.4968  -35.5107  -19.8121 F       1  UNL1       -0.1659
     26 F         -67.2578  -34.6360  -17.7612 F       1  UNL1       -0.1659
     27 F         -66.4451  -33.5359  -19.5510 F       1  UNL1       -0.1659
     28 C         -62.2958  -47.4940  -25.9192 C.3     1  UNL1        0.1535
     29 C         -62.5214  -48.7708  -25.1375 C.2     1  UNL1        0.2443
     30 O         -63.6581  -49.3177  -25.1390 O.2     1  UNL1       -0.2730
     31 N         -61.4277  -49.3662  -24.4181 N.am    1  UNL1       -0.2825
     32 H         -60.5578  -48.7976  -24.3060 H       1  UNL1        0.1549
     33 C         -61.4872  -50.6307  -23.7327 C.ar    1  UNL1        0.0535
     34 C         -60.3093  -51.1794  -23.2062 C.ar    1  UNL1        0.0353
     35 C         -60.3482  -52.4187  -22.5630 C.ar    1  UNL1        0.1002
     36 N         -61.5207  -53.0982  -22.4625 N.ar    1  UNL1       -0.2422
     37 C         -62.6761  -52.6027  -22.9787 C.ar    1  UNL1        0.1002
     38 C         -62.6817  -51.3658  -23.6279 C.ar    1  UNL1        0.0353
     39 C         -63.0929  -47.5089  -27.2400 C.3     1  UNL1        0.0569
     40 C         -62.7874  -44.1031  -30.8449 C.ar    1  UNL1        0.0228
     41 C         -64.1759  -44.0243  -31.1082 C.ar    1  UNL1       -0.0004
     42 C         -65.0904  -44.8521  -30.4244 C.ar    1  UNL1       -0.0002
     43 C         -64.6426  -45.7559  -29.4494 C.ar    1  UNL1        0.0011
     44 C         -63.2773  -45.7947  -29.1745 C.ar    1  UNL1        0.0129
     45 C         -62.5608  -46.5366  -28.2557 C.ar    1  UNL1       -0.0017
     46 C         -61.2364  -46.1470  -28.4094 C.ar    1  UNL1        0.0681
     47 N         -61.1290  -45.2073  -29.3748 N.ar    1  UNL1       -0.3524
     48 C         -62.3770  -44.9984  -29.8410 C.ar    1  UNL1        0.0546
     49 H         -60.2459  -44.7380  -29.6722 H       1  UNL1        0.1660
     50 C         -61.8109  -43.1907  -31.5445 C.3     1  UNL1        0.1701
     51 C         -60.0928  -43.7962  -32.9566 C.3     1  UNL1        0.1746
     52 O         -61.4934  -43.7037  -32.8225 O.3     1  UNL1       -0.3463
@<TRIPOS>BOND
     1    51    52    1
     2    52    50    1
     3    50    40    1
     4    40    41   ar
     5    41    42   ar
     6    42    43   ar
     7    43    44   ar
     8    44    45   ar
     9    45    39    1
    10    39    28    1
    11    28     1    1
    12     1     2   am
    13     2     3    2
    14     2     5    1
    15     5     6   ar
    16     6     7   ar
    17     7     8   ar
    18     8    12    1
    19    12    13    1
    20    13    14    1
    21    14    15    1
    22    15    18    1
    23    18    19   ar
    24    19    20   ar
    25    20    21   ar
    26    21    22   ar
    27    22    24    1
    28    24    25    1
    29    24    26    1
    30    24    27    1
    31    22    23   ar
    32    15    16    1
    33    16    17    1
    34     8     9   ar
    35     9    10   ar
    36    10    11    1
    37    28    29    1
    38    29    30    2
    39    29    31   am
    40    31    33    1
    41    33    34   ar
    42    34    35   ar
    43    35    36   ar
    44    36    37   ar
    45    37    38   ar
    46    45    46   ar
    47    46    47   ar
    48    47    48   ar
    49    48    40   ar
    50    48    44   ar
    51    10     5   ar
    52    38    33   ar
    53    17    12    1
    54    23    18   ar
    55     1     4    1
    56    31    32    1
    57    47    49    1
@<TRIPOS>MOLECULE
*****
 52 57 0 0 0
SMALL
GASTEIGER

@<TRIPOS>ATOM
      1 N         -62.2135  -46.3404  -25.5790 N.am    1  UNL1       -0.2945
      2 C         -61.5944  -45.7006  -24.4501 C.2     1  UNL1        0.2483
      3 O         -60.5902  -46.2345  -23.9039 O.2     1  UNL1       -0.2701
      4 H         -63.1655  -46.0180  -25.8613 H       1  UNL1        0.1501
      5 C         -62.1413  -44.4432  -23.8837 C.ar    1  UNL1        0.0808
      6 C         -62.3833  -44.3595  -22.5012 C.ar    1  UNL1        0.0080
      7 C         -62.8987  -43.1900  -21.9371 C.ar    1  UNL1        0.0148
      8 C         -63.1721  -42.0742  -22.7419 C.ar    1  UNL1        0.0502
      9 C         -62.9206  -42.1475  -24.1193 C.ar    1  UNL1        0.0443
     10 C         -62.4066  -43.3165  -24.6896 C.ar    1  UNL1        0.1457
     11 F         -62.1350  -43.3195  -26.0184 F       1  UNL1       -0.2040
     12 N         -63.7039  -40.8658  -22.1667 N.pl3   1  UNL1       -0.3040
     13 C         -62.8293  -39.9433  -21.4329 C.3     1  UNL1        0.1122
     14 C         -63.5745  -39.3620  -20.2310 C.3     1  UNL1        0.1122
     15 N         -64.8951  -38.8721  -20.6442 N.pl3   1  UNL1       -0.3041
     16 C         -65.7698  -39.7944  -21.3782 C.3     1  UNL1        0.1122
     17 C         -65.0245  -40.3760  -22.5800 C.3     1  UNL1        0.1122
     18 C         -65.4247  -37.6613  -20.0718 C.ar    1  UNL1        0.0479
     19 C         -66.7122  -37.2136  -20.4094 C.ar    1  UNL1        0.0145
     20 C         -67.2119  -36.0300  -19.8633 C.ar    1  UNL1        0.0012
     21 C         -66.4370  -35.2854  -18.9712 C.ar    1  UNL1        0.0039
     22 C         -65.1556  -35.7286  -18.6013 C.ar    1  UNL1        0.0726
     23 C         -64.6483  -36.9076  -19.1763 C.ar    1  UNL1        0.0184
     24 C         -64.2960  -34.8991  -17.6809 C.3     1  UNL1        0.4186
     25 F         -64.5813  -35.1821  -16.3562 F       1  UNL1       -0.1659
     26 F         -62.9544  -35.1608  -17.8992 F       1  UNL1       -0.1659
     27 F         -64.5380  -33.5589  -17.9173 F       1  UNL1       -0.1659
     28 C         -61.6220  -47.5186  -26.2333 C.3     1  UNL1        0.1535
     29 C         -61.9063  -48.7889  -25.4601 C.2     1  UNL1        0.2443
     30 O         -62.9239  -49.4808  -25.7376 O.2     1  UNL1       -0.2730
     31 N         -60.9970  -49.2119  -24.4294 N.am    1  UNL1       -0.2825
     32 H         -60.2671  -48.5304  -24.1207 H       1  UNL1        0.1549
     33 C         -61.0974  -50.4511  -23.7037 C.ar    1  UNL1        0.0535
     34 C         -62.3592  -50.9008  -23.2893 C.ar    1  UNL1        0.0353
     35 C         -62.4679  -52.0874  -22.5605 C.ar    1  UNL1        0.1002
     36 N         -61.3532  -52.7951  -22.2397 N.ar    1  UNL1       -0.2422
     37 C         -60.1143  -52.3766  -22.6098 C.ar    1  UNL1        0.1002
     38 C         -59.9611  -51.1965  -23.3415 C.ar    1  UNL1        0.0353
     39 C         -62.0964  -47.6464  -27.6957 C.3     1  UNL1        0.0569
     40 C         -63.1787  -43.4724  -30.1644 C.ar    1  UNL1        0.0228
     41 C         -64.5843  -43.6380  -30.1496 C.ar    1  UNL1       -0.0004
     42 C         -65.1715  -44.7896  -29.5856 C.ar    1  UNL1       -0.0002
     43 C         -64.3724  -45.7856  -29.0046 C.ar    1  UNL1        0.0011
     44 C         -62.9929  -45.5902  -28.9929 C.ar    1  UNL1        0.0129
     45 C         -61.9752  -46.3603  -28.4648 C.ar    1  UNL1       -0.0017
     46 C         -60.8025  -45.6635  -28.7265 C.ar    1  UNL1        0.0681
     47 N         -61.0723  -44.5139  -29.3841 N.ar    1  UNL1       -0.3524
     48 C         -62.4103  -44.4757  -29.5473 C.ar    1  UNL1        0.0546
     49 H         -60.3688  -43.8033  -29.6819 H       1  UNL1        0.1660
     50 C         -62.5494  -42.2235  -30.7297 C.3     1  UNL1        0.1701
     51 C         -61.5969  -40.7040  -29.2818 C.3     1  UNL1        0.1746
     52 O         -61.3812  -41.8948  -30.0054 O.3     1  UNL1       -0.3463
@<TRIPOS>BOND
     1    51    52    1
     2    52    50    1
     3    50    40    1
     4    40    41   ar
     5    41    42   ar
     6    42    43   ar
     7    43    44   ar
     8    44    45   ar
     9    45    39    1
    10    39    28    1
    11    28     1    1
    12     1     2   am
    13     2     3    2
    14     2     5    1
    15     5     6   ar
    16     6     7   ar
    17     7     8   ar
    18     8    12    1
    19    12    13    1
    20    13    14    1
    21    14    15    1
    22    15    18    1
    23    18    19   ar
    24    19    20   ar
    25    20    21   ar
    26    21    22   ar
    27    22    24    1
    28    24    25    1
    29    24    26    1
    30    24    27    1
    31    22    23   ar
    32    15    16    1
    33    16    17    1
    34     8     9   ar
    35     9    10   ar
    36    10    11    1
    37    28    29    1
    38    29    30    2
    39    29    31   am
    40    31    33    1
    41    33    34   ar
    42    34    35   ar
    43    35    36   ar
    44    36    37   ar
    45    37    38   ar
    46    45    46   ar
    47    46    47   ar
    48    47    48   ar
    49    48    40   ar
    50    48    44   ar
    51    10     5   ar
    52    38    33   ar
    53    17    12    1
    54    23    18   ar
    55     1     4    1
    56    31    32    1
    57    47    49    1
@<TRIPOS>MOLECULE
*****
 52 57 0 0 0
SMALL
GASTEIGER

@<TRIPOS>ATOM
      1 N         -61.0809  -45.3293  -23.9323 N.am    1  UNL1       -0.2945
      2 C         -60.4204  -44.3105  -23.1623 C.2     1  UNL1        0.2483
      3 O         -59.2032  -44.4478  -22.8601 O.2     1  UNL1       -0.2701
      4 H         -62.1243  -45.3156  -23.9670 H       1  UNL1        0.1501
      5 C         -61.1553  -43.1173  -22.6754 C.ar    1  UNL1        0.0808
      6 C         -60.6763  -42.4269  -21.5482 C.ar    1  UNL1        0.0080
      7 C         -61.3457  -41.3003  -21.0642 C.ar    1  UNL1        0.0148
      8 C         -62.5028  -40.8324  -21.7046 C.ar    1  UNL1        0.0502
      9 C         -62.9779  -41.5093  -22.8368 C.ar    1  UNL1        0.0443
     10 C         -62.3127  -42.6388  -23.3244 C.ar    1  UNL1        0.1457
     11 F         -62.7846  -43.2282  -24.4510 F       1  UNL1       -0.2040
     12 N         -63.1979  -39.6720  -21.2106 N.pl3   1  UNL1       -0.3040
     13 C         -62.6080  -38.3353  -21.3509 C.3     1  UNL1        0.1122
     14 C         -62.9037  -37.5006  -20.1045 C.3     1  UNL1        0.1122
     15 N         -64.3289  -37.5886  -19.7641 N.pl3   1  UNL1       -0.3041
     16 C         -64.9191  -38.9252  -19.6239 C.3     1  UNL1        0.1122
     17 C         -64.6231  -39.7602  -20.8702 C.3     1  UNL1        0.1122
     18 C         -65.0247  -36.4268  -19.2740 C.ar    1  UNL1        0.0479
     19 C         -64.3749  -35.5023  -18.4403 C.ar    1  UNL1        0.0145
     20 C         -65.0613  -34.3874  -17.9555 C.ar    1  UNL1        0.0012
     21 C         -66.3983  -34.1798  -18.3019 C.ar    1  UNL1        0.0039
     22 C         -67.0598  -35.0799  -19.1547 C.ar    1  UNL1        0.0726
     23 C         -66.3701  -36.2149  -19.6172 C.ar    1  UNL1        0.0184
     24 C         -68.5183  -34.8873  -19.4864 C.3     1  UNL1        0.4186
     25 F         -68.6654  -34.0672  -20.5919 F       1  UNL1       -0.1659
     26 F         -69.1190  -36.1024  -19.7670 F       1  UNL1       -0.1659
     27 F         -69.1576  -34.3072  -18.4069 F       1  UNL1       -0.1659
     28 C         -60.3492  -46.4587  -24.5282 C.3     1  UNL1        0.1535
     29 C         -60.4874  -47.7158  -23.6959 C.2     1  UNL1        0.2443
     30 O         -60.2784  -47.6742  -22.4526 O.2     1  UNL1       -0.2730
     31 N         -60.8824  -48.9461  -24.3272 N.am    1  UNL1       -0.2825
     32 H         -60.8809  -48.9742  -25.3721 H       1  UNL1        0.1549
     33 C         -61.1544  -50.1761  -23.6305 C.ar    1  UNL1        0.0535
     34 C         -60.0848  -50.9179  -23.1093 C.ar    1  UNL1        0.0353
     35 C         -60.3326  -52.1270  -22.4551 C.ar    1  UNL1        0.1002
     36 N         -61.6043  -52.5911  -22.3389 N.ar    1  UNL1       -0.2422
     37 C         -62.6609  -51.9057  -22.8495 C.ar    1  UNL1        0.1002
     38 C         -62.4575  -50.6912  -23.5093 C.ar    1  UNL1        0.0353
     39 C         -60.7936  -46.7106  -25.9840 C.3     1  UNL1        0.0569
     40 C         -62.7846  -42.5616  -27.8575 C.ar    1  UNL1        0.0228
     41 C         -61.5726  -41.8391  -27.9689 C.ar    1  UNL1       -0.0004
     42 C         -60.3550  -42.3952  -27.5248 C.ar    1  UNL1       -0.0002
     43 C         -60.3175  -43.6892  -26.9843 C.ar    1  UNL1        0.0011
     44 C         -61.5125  -44.4023  -26.9165 C.ar    1  UNL1        0.0129
     45 C         -61.7755  -45.6867  -26.4817 C.ar    1  UNL1       -0.0017
     46 C         -63.1395  -45.8735  -26.6658 C.ar    1  UNL1        0.0681
     47 N         -63.7023  -44.7626  -27.1909 N.ar    1  UNL1       -0.3524
     48 C         -62.7056  -43.8663  -27.3387 C.ar    1  UNL1        0.0546
     49 H         -64.7091  -44.6496  -27.4401 H       1  UNL1        0.1660
     50 C         -64.0819  -41.9864  -28.3689 C.3     1  UNL1        0.1701
     51 C         -65.1961  -42.7665  -30.2298 C.3     1  UNL1        0.1746
     52 O         -64.9078  -43.0169  -28.8724 O.3     1  UNL1       -0.3463
@<TRIPOS>BOND
     1    51    52    1
     2    52    50    1
     3    50    40    1
     4    40    41   ar
     5    41    42   ar
     6    42    43   ar
     7    43    44   ar
     8    44    45   ar
     9    45    39    1
    10    39    28    1
    11    28     1    1
    12     1     2   am
    13     2     3    2
    14     2     5    1
    15     5     6   ar
    16     6     7   ar
    17     7     8   ar
    18     8    12    1
    19    12    13    1
    20    13    14    1
    21    14    15    1
    22    15    18    1
    23    18    19   ar
    24    19    20   ar
    25    20    21   ar
    26    21    22   ar
    27    22    24    1
    28    24    25    1
    29    24    26    1
    30    24    27    1
    31    22    23   ar
    32    15    16    1
    33    16    17    1
    34     8     9   ar
    35     9    10   ar
    36    10    11    1
    37    28    29    1
    38    29    30    2
    39    29    31   am
    40    31    33    1
    41    33    34   ar
    42    34    35   ar
    43    35    36   ar
    44    36    37   ar
    45    37    38   ar
    46    45    46   ar
    47    46    47   ar
    48    47    48   ar
    49    48    40   ar
    50    48    44   ar
    51    10     5   ar
    52    38    33   ar
    53    17    12    1
    54    23    18   ar
    55     1     4    1
    56    31    32    1
    57    47    49    1
@<TRIPOS>MOLECULE
*****
 52 57 0 0 0
SMALL
GASTEIGER

@<TRIPOS>ATOM
      1 N         -60.8329  -45.3343  -23.8677 N.am    1  UNL1       -0.2945
      2 C         -60.1951  -46.6228  -23.8642 C.2     1  UNL1        0.2483
      3 O         -58.9365  -46.6959  -23.9129 O.2     1  UNL1       -0.2701
      4 H         -61.8572  -45.2971  -24.0659 H       1  UNL1        0.1501
      5 C         -60.9913  -47.8746  -23.8497 C.ar    1  UNL1        0.0808
      6 C         -60.5454  -48.9646  -23.0817 C.ar    1  UNL1        0.0080
      7 C         -61.2717  -50.1574  -23.0475 C.ar    1  UNL1        0.0148
      8 C         -62.4667  -50.2819  -23.7716 C.ar    1  UNL1        0.0502
      9 C         -62.9230  -49.1938  -24.5290 C.ar    1  UNL1        0.0443
     10 C         -62.1987  -47.9980  -24.5683 C.ar    1  UNL1        0.1457
     11 F         -62.7080  -46.9594  -25.2762 F       1  UNL1       -0.2040
     12 N         -63.2199  -51.5089  -23.7411 N.pl3   1  UNL1       -0.3040
     13 C         -64.1599  -51.8322  -24.8211 C.3     1  UNL1        0.1122
     14 C         -65.4014  -52.5146  -24.2461 C.3     1  UNL1        0.1122
     15 N         -65.0070  -53.5953  -23.3342 N.pl3   1  UNL1       -0.3041
     16 C         -64.0669  -53.2723  -22.2542 C.3     1  UNL1        0.1122
     17 C         -62.8254  -52.5895  -22.8292 C.3     1  UNL1        0.1122
     18 C         -65.7580  -54.8238  -23.3070 C.ar    1  UNL1        0.0479
     19 C         -65.4710  -55.8172  -22.3569 C.ar    1  UNL1        0.0145
     20 C         -66.1923  -57.0125  -22.3479 C.ar    1  UNL1        0.0012
     21 C         -67.2099  -57.2264  -23.2803 C.ar    1  UNL1        0.0039
     22 C         -67.5294  -56.2351  -24.2240 C.ar    1  UNL1        0.0726
     23 C         -66.7805  -55.0448  -24.2443 C.ar    1  UNL1        0.0184
     24 C         -68.5906  -56.4851  -25.2658 C.3     1  UNL1        0.4186
     25 F         -69.0741  -55.2899  -25.7697 F       1  UNL1       -0.1659
     26 F         -68.0761  -57.2213  -26.3190 F       1  UNL1       -0.1659
     27 F         -69.6343  -57.1873  -24.6927 F       1  UNL1       -0.1659
     28 C         -60.0681  -44.0814  -23.7598 C.3     1  UNL1        0.1535
     29 C         -60.8877  -42.8867  -24.1991 C.2     1  UNL1        0.2443
     30 O         -60.3121  -41.8628  -24.6590 O.2     1  UNL1       -0.2730
     31 N         -62.3223  -42.9385  -24.1125 N.am    1  UNL1       -0.2825
     32 H         -62.7447  -43.7292  -23.5750 H       1  UNL1        0.1549
     33 C         -63.2117  -41.9166  -24.5992 C.ar    1  UNL1        0.0535
     34 C         -63.9822  -41.1871  -23.6826 C.ar    1  UNL1        0.0353
     35 C         -64.8695  -40.2118  -24.1435 C.ar    1  UNL1        0.1002
     36 N         -64.9980  -39.9821  -25.4766 N.ar    1  UNL1       -0.2422
     37 C         -64.2799  -40.6849  -26.3916 C.ar    1  UNL1        0.1002
     38 C         -63.3797  -41.6678  -25.9733 C.ar    1  UNL1        0.0353
     39 C         -59.5208  -43.8786  -22.3317 C.3     1  UNL1        0.0569
     40 C         -63.3738  -42.3708  -19.5806 C.ar    1  UNL1        0.0228
     41 C         -64.1768  -43.5178  -19.7881 C.ar    1  UNL1       -0.0004
     42 C         -63.7449  -44.5603  -20.6342 C.ar    1  UNL1       -0.0002
     43 C         -62.4962  -44.4914  -21.2699 C.ar    1  UNL1        0.0011
     44 C         -61.7011  -43.3737  -21.0257 C.ar    1  UNL1        0.0129
     45 C         -60.4323  -43.0527  -21.4673 C.ar    1  UNL1       -0.0017
     46 C         -60.1313  -41.8274  -20.8865 C.ar    1  UNL1        0.0681
     47 N         -61.1592  -41.4030  -20.1185 N.ar    1  UNL1       -0.3524
     48 C         -62.1163  -42.3486  -20.2096 C.ar    1  UNL1        0.0546
     49 H         -61.1791  -40.5214  -19.5607 H       1  UNL1        0.1660
     50 C         -63.8142  -41.2731  -18.6444 C.3     1  UNL1        0.1701
     51 C         -64.0640  -39.0349  -19.1351 C.3     1  UNL1        0.1746
     52 O         -63.1296  -40.0732  -18.9429 O.3     1  UNL1       -0.3463
@<TRIPOS>BOND
     1    51    52    1
     2    52    50    1
     3    50    40    1
     4    40    41   ar
     5    41    42   ar
     6    42    43   ar
     7    43    44   ar
     8    44    45   ar
     9    45    39    1
    10    39    28    1
    11    28     1    1
    12     1     2   am
    13     2     3    2
    14     2     5    1
    15     5     6   ar
    16     6     7   ar
    17     7     8   ar
    18     8    12    1
    19    12    13    1
    20    13    14    1
    21    14    15    1
    22    15    18    1
    23    18    19   ar
    24    19    20   ar
    25    20    21   ar
    26    21    22   ar
    27    22    24    1
    28    24    25    1
    29    24    26    1
    30    24    27    1
    31    22    23   ar
    32    15    16    1
    33    16    17    1
    34     8     9   ar
    35     9    10   ar
    36    10    11    1
    37    28    29    1
    38    29    30    2
    39    29    31   am
    40    31    33    1
    41    33    34   ar
    42    34    35   ar
    43    35    36   ar
    44    36    37   ar
    45    37    38   ar
    46    45    46   ar
    47    46    47   ar
    48    47    48   ar
    49    48    40   ar
    50    48    44   ar
    51    10     5   ar
    52    38    33   ar
    53    17    12    1
    54    23    18   ar
    55     1     4    1
    56    31    32    1
    57    47    49    1
