@<TRIPOS>MOLECULE
*****
 46 52 0 0 0
SMALL
GASTEIGER

@<TRIPOS>ATOM
      1 C         -10.4308  -12.2768   31.6810 C.3     1  UNL1        0.0814
      2 C         -10.9584  -13.1350   30.5098 C.3     1  UNL1        0.0252
      3 C          -9.8664  -13.1359   29.4255 C.3     1  UNL1        0.0278
      4 C          -8.8422  -12.1922   29.9374 C.ar    1  UNL1       -0.0251
      5 C          -7.6805  -11.8086   29.2701 C.ar    1  UNL1       -0.0046
      6 C          -6.7824  -10.9369   29.9082 C.ar    1  UNL1       -0.0005
      7 C          -7.0639  -10.4784   31.2117 C.ar    1  UNL1       -0.0046
      8 C          -8.2221  -10.9034   31.8981 C.ar    1  UNL1       -0.0255
      9 C          -9.1339  -11.7223   31.1972 C.ar    1  UNL1       -0.0156
     10 C         -12.3452  -11.2378   33.0567 C.3     1  UNL1        0.1158
     11 N         -13.0720  -10.0953   33.1269 N.3     1  UNL1       -0.2851
     12 C         -12.5427   -9.3307   32.1631 C.3     1  UNL1        0.0910
     13 C         -12.9265   -8.0444   31.8213 C.3     1  UNL1        0.1018
     14 C         -12.2229   -7.4156   30.7859 C.3     1  UNL1        0.3136
     15 N         -11.1872   -8.0546   30.1405 N.am    1  UNL1       -0.1293
     16 C         -10.8153   -9.3334   30.5014 C.2     1  UNL1        0.4047
     17 O          -9.8514   -9.8996   29.9223 O.2     1  UNL1       -0.2174
     18 C         -11.5267   -9.9790   31.5302 C.3     1  UNL1        0.2038
     19 N         -11.3896  -11.2168   32.0707 N.3     1  UNL1       -0.2473
     20 H         -12.9700   -9.6535   34.0406 H       1  UNL1        0.1244
     21 C         -13.2998  -13.5375   33.3289 C.3     1  UNL1        0.0029
     22 C         -12.6114  -12.3654   34.0193 C.3     1  UNL1        0.0326
     23 C         -10.4591   -7.3353   29.0806 C.3     1  UNL1        0.3404
     24 C          -9.1767   -6.7419   29.6257 C.ar    1  UNL1        0.0640
     25 C          -8.0712   -7.5911   29.8132 C.ar    1  UNL1        0.0031
     26 C          -6.8604   -7.0890   30.2947 C.ar    1  UNL1       -0.0001
     27 C          -6.7362   -5.7334   30.5973 C.ar    1  UNL1        0.0007
     28 C          -7.8233   -4.8753   30.4225 C.ar    1  UNL1        0.0102
     29 C          -9.0452   -5.3661   29.9398 C.ar    1  UNL1        0.0710
     30 C         -10.1412   -4.4393   29.7883 C.1     1  UNL1        0.1003
     31 N         -11.0207   -3.6969   29.6665 N.1     1  UNL1       -0.1908
     32 C          -5.5508  -10.4988   29.2126 C.ar    1  UNL1        0.0030
     33 C          -5.6587  -10.0618   27.8808 C.ar    1  UNL1        0.0001
     34 C          -4.5455   -9.5628   27.2038 C.ar    1  UNL1        0.0000
     35 C          -3.3111   -9.4923   27.8465 C.ar    1  UNL1        0.0001
     36 C          -3.1806   -9.9331   29.1646 C.ar    1  UNL1        0.0031
     37 C          -4.2872  -10.4515   29.8619 C.ar    1  UNL1        0.0371
     38 C          -4.0818  -10.9785   31.2332 C.ar    1  UNL1        0.1806
     39 N          -3.6676  -12.2268   31.5256 N.ar    1  UNL1       -0.1084
     40 N          -3.5996  -12.2667   32.8488 N.ar    1  UNL1       -0.0229
     41 N          -3.9506  -11.0941   33.3546 N.ar    1  UNL1       -0.0464
     42 N          -4.2508  -10.2733   32.3647 N.ar    1  UNL1       -0.2388
     43 H          -4.5703   -9.2860   32.4765 H       1  UNL1        0.1923
     44 C          -8.4497  -10.4995   33.3470 C.3     1  UNL1        0.0221
     45 C          -8.1755  -11.6696   34.3017 C.3     1  UNL1        0.0047
     46 C          -7.6061   -9.2763   33.7197 C.3     1  UNL1        0.0047
@<TRIPOS>BOND
     1    21    22    1
     2    22    10    1
     3    10    11    1
     4    11    12    1
     5    12    13    1
     6    13    14    1
     7    14    15    1
     8    15    23    1
     9    23    24    1
    10    24    25   ar
    11    25    26   ar
    12    26    27   ar
    13    27    28   ar
    14    28    29   ar
    15    29    30    1
    16    30    31    3
    17    15    16    1
    18    16    17    2
    19    16    18    1
    20    18    19    1
    21    19     1    1
    22     1     2    1
    23     2     3    1
    24     3     4    1
    25     4     5   ar
    26     5     6   ar
    27     6    32    1
    28    32    33   ar
    29    33    34   ar
    30    34    35   ar
    31    35    36   ar
    32    36    37   ar
    33    37    38    1
    34    38    39   ar
    35    39    40   ar
    36    40    41   ar
    37    41    42   ar
    38     6     7   ar
    39     7     8   ar
    40     8    44    1
    41    44    45    1
    42    44    46    1
    43     8     9   ar
    44    19    10    1
    45     9     1    1
    46    18    12    1
    47     9     4   ar
    48    29    24   ar
    49    37    32   ar
    50    42    38   ar
    51    42    43    1
    52    11    20    1
@<TRIPOS>MOLECULE
*****
 46 52 0 0 0
SMALL
GASTEIGER

@<TRIPOS>ATOM
      1 C         -10.5210   -8.4369   29.7735 C.3     1  UNL1        0.0814
      2 C          -9.6557   -9.1612   28.7184 C.3     1  UNL1        0.0252
      3 C          -9.8360  -10.6720   28.9494 C.3     1  UNL1        0.0278
      4 C         -10.6609  -10.7577   30.1798 C.ar    1  UNL1       -0.0251
      5 C         -11.0386  -11.9319   30.8284 C.ar    1  UNL1       -0.0046
      6 C         -11.8628  -11.8507   31.9631 C.ar    1  UNL1       -0.0005
      7 C         -12.3027  -10.5896   32.4157 C.ar    1  UNL1       -0.0046
      8 C         -11.9504   -9.4070   31.7299 C.ar    1  UNL1       -0.0255
      9 C         -11.0641   -9.5243   30.6372 C.ar    1  UNL1       -0.0156
     10 C          -9.9978   -6.1027   30.7299 C.3     1  UNL1        0.1158
     11 N          -9.0570   -5.4735   31.4766 N.3     1  UNL1       -0.2851
     12 C          -8.1936   -6.4522   31.7776 C.3     1  UNL1        0.0910
     13 C          -7.0422   -6.3363   32.5389 C.3     1  UNL1        0.1018
     14 C          -6.2870   -7.4978   32.7459 C.3     1  UNL1        0.3136
     15 N          -6.6820   -8.7060   32.2152 N.am    1  UNL1       -0.1293
     16 C          -7.8366   -8.8017   31.4658 C.2     1  UNL1        0.4047
     17 O          -8.2023   -9.9151   31.0057 O.2     1  UNL1       -0.2174
     18 C          -8.5937   -7.6369   31.2395 C.3     1  UNL1        0.2038
     19 N          -9.7418   -7.4388   30.5426 N.3     1  UNL1       -0.2473
     20 H          -9.4674   -5.0763   32.3217 H       1  UNL1        0.1244
     21 C         -10.7638   -4.0702   29.4825 C.3     1  UNL1        0.0029
     22 C         -11.1888   -5.3398   30.2120 C.3     1  UNL1        0.0326
     23 C          -5.8684   -9.9031   32.4909 C.3     1  UNL1        0.3404
     24 C          -5.0668  -10.2941   31.2668 C.ar    1  UNL1        0.0640
     25 C          -5.4339   -9.7500   30.0227 C.ar    1  UNL1        0.0031
     26 C          -4.7148  -10.0639   28.8675 C.ar    1  UNL1       -0.0001
     27 C          -3.6208  -10.9258   28.9371 C.ar    1  UNL1        0.0007
     28 C          -3.2435  -11.4797   30.1617 C.ar    1  UNL1        0.0102
     29 C          -3.9568  -11.1732   31.3297 C.ar    1  UNL1        0.0710
     30 C          -3.5329  -11.7815   32.5680 C.1     1  UNL1        0.1003
     31 N          -3.1928  -12.2702   33.5605 N.1     1  UNL1       -0.1908
     32 C         -12.2617  -13.0824   32.6817 C.ar    1  UNL1        0.0030
     33 C         -13.4450  -13.7299   32.2855 C.ar    1  UNL1        0.0001
     34 C         -13.8262  -14.9365   32.8730 C.ar    1  UNL1        0.0000
     35 C         -13.0321  -15.5131   33.8623 C.ar    1  UNL1        0.0001
     36 C         -11.8600  -14.8793   34.2784 C.ar    1  UNL1        0.0031
     37 C         -11.4632  -13.6558   33.7082 C.ar    1  UNL1        0.0371
     38 C         -10.2517  -12.9830   34.2375 C.ar    1  UNL1        0.1806
     39 N          -9.6639  -13.2683   35.4157 N.ar    1  UNL1       -0.1084
     40 N          -8.6162  -12.4590   35.4836 N.ar    1  UNL1       -0.0229
     41 N          -8.5537  -11.7090   34.3939 N.ar    1  UNL1       -0.0464
     42 N          -9.5613  -12.0223   33.6000 N.ar    1  UNL1       -0.2388
     43 H          -9.7617  -11.5783   32.6769 H       1  UNL1        0.1923
     44 C         -12.5325   -8.0676   32.1561 C.3     1  UNL1        0.0221
     45 C         -13.3140   -7.4095   31.0107 C.3     1  UNL1        0.0047
     46 C         -13.4074   -8.2166   33.4046 C.3     1  UNL1        0.0047
@<TRIPOS>BOND
     1    21    22    1
     2    22    10    1
     3    10    11    1
     4    11    12    1
     5    12    13    1
     6    13    14    1
     7    14    15    1
     8    15    23    1
     9    23    24    1
    10    24    25   ar
    11    25    26   ar
    12    26    27   ar
    13    27    28   ar
    14    28    29   ar
    15    29    30    1
    16    30    31    3
    17    15    16    1
    18    16    17    2
    19    16    18    1
    20    18    19    1
    21    19     1    1
    22     1     2    1
    23     2     3    1
    24     3     4    1
    25     4     5   ar
    26     5     6   ar
    27     6    32    1
    28    32    33   ar
    29    33    34   ar
    30    34    35   ar
    31    35    36   ar
    32    36    37   ar
    33    37    38    1
    34    38    39   ar
    35    39    40   ar
    36    40    41   ar
    37    41    42   ar
    38     6     7   ar
    39     7     8   ar
    40     8    44    1
    41    44    45    1
    42    44    46    1
    43     8     9   ar
    44    19    10    1
    45     9     1    1
    46    18    12    1
    47     9     4   ar
    48    29    24   ar
    49    37    32   ar
    50    42    38   ar
    51    42    43    1
    52    11    20    1
