@<TRIPOS>MOLECULE
*****
 47 52 0 0 0
SMALL
GASTEIGER

@<TRIPOS>ATOM
      1 C          59.2022   90.7304    5.9011 C.ar    1  UNL1        0.0702
      2 C          60.4537   90.7620    5.2657 C.ar    1  UNL1        0.0191
      3 C          60.6119   91.4527    4.0634 C.ar    1  UNL1        0.0356
      4 C          59.5122   92.1101    3.4926 C.ar    1  UNL1        0.1318
      5 N          58.3000   92.0392    4.1100 N.ar    1  UNL1       -0.2279
      6 C          58.1221   91.3718    5.2807 C.ar    1  UNL1        0.1149
      7 N          59.6415   92.8193    2.2464 N.pl3   1  UNL1       -0.2932
      8 C          60.0489   94.2313    2.2346 C.3     1  UNL1        0.0923
      9 C          60.9395   94.5113    1.0218 C.3     1  UNL1        0.0252
     10 C          60.2432   94.0599   -0.2755 C.3     1  UNL1        0.0472
     11 C          59.8795   92.5646   -0.1919 C.3     1  UNL1        0.0252
     12 C          59.0076   92.2805    1.0362 C.3     1  UNL1        0.0923
     13 C          61.0837   94.3633   -1.5326 C.3     1  UNL1        0.2054
     14 O          62.3727   94.8918   -1.2063 O.3     1  UNL1       -0.4755
     15 C          63.3597   94.2756   -0.4178 C.ar    1  UNL1        0.1388
     16 C          64.6970   94.4830   -0.7719 C.ar    1  UNL1        0.0369
     17 C          65.7267   93.8964   -0.0351 C.ar    1  UNL1        0.0033
     18 C          65.4311   93.0953    1.0689 C.ar    1  UNL1        0.0066
     19 C          64.0962   92.8759    1.4501 C.ar    1  UNL1        0.0785
     20 C          63.0637   93.4743    0.7044 C.ar    1  UNL1        0.0433
     21 C          63.7779   92.0256    2.6194 C.2     1  UNL1        0.3381
     22 O          62.9056   92.3885    3.4544 O.2     1  UNL1       -0.2451
     23 O          64.4406   90.8156    2.8097 O.3     1  UNL1       -0.4771
     24 H          64.2308   90.2270    3.6070 H       1  UNL1        0.2954
     25 C          60.0410   89.6996    8.0589 C.2     1  UNL1        0.2839
     26 O          61.0701   90.4253    8.1129 O.2     1  UNL1       -0.2665
     27 N          58.9938   90.0079    7.1268 N.am    1  UNL1       -0.2766
     28 H          58.0119   89.7897    7.4081 H       1  UNL1        0.1553
     29 C          59.4520   84.9710   11.7223 C.ar    1  UNL1        0.0002
     30 C          59.4527   86.0261   12.6746 C.ar    1  UNL1        0.0031
     31 C          59.5772   87.3656   12.2662 C.ar    1  UNL1        0.0375
     32 C          59.6996   87.6245   10.9055 C.ar    1  UNL1        0.1452
     33 O          59.8239   88.7927   10.3246 O.2     1  UNL1       -0.4492
     34 C          59.9038   88.5918    9.0208 C.ar    1  UNL1        0.1946
     35 C          59.8514   87.2198    8.7439 C.ar    1  UNL1        0.0202
     36 C          59.9384   86.5318    7.4151 C.3     1  UNL1        0.0345
     37 C          59.7018   86.6186    9.9778 C.ar    1  UNL1        0.0337
     38 C          59.5798   85.2786   10.3463 C.ar    1  UNL1        0.0028
     39 C          59.0632   80.8702   13.0107 C.ar    1  UNL1        0.0347
     40 C          58.1786   81.4120   12.0604 C.ar    1  UNL1        0.0028
     41 C          58.3050   82.7396   11.6426 C.ar    1  UNL1        0.0001
     42 C          59.3185   83.5599   12.1651 C.ar    1  UNL1        0.0000
     43 C          60.2033   83.0221   13.1147 C.ar    1  UNL1        0.0001
     44 C          60.0784   81.6941   13.5324 C.ar    1  UNL1        0.0028
     45 C          58.7451   78.3372   12.4589 C.3     1  UNL1        0.0773
     46 C          58.9151   79.4545   13.4443 C.2     1  UNL1        0.1735
     47 O          58.9310   79.1716   14.6734 O.2     1  UNL1       -0.2913
@<TRIPOS>BOND
     1    45    46    1
     2    46    47    2
     3    46    39    1
     4    39    40   ar
     5    40    41   ar
     6    41    42   ar
     7    42    29    1
     8    29    30   ar
     9    30    31   ar
    10    31    32   ar
    11    32    33   ar
    12    33    34   ar
    13    34    25    1
    14    25    26    2
    15    25    27   am
    16    27     1    1
    17     1     2   ar
    18     2     3   ar
    19     3     4   ar
    20     4     7    1
    21     7     8    1
    22     8     9    1
    23     9    10    1
    24    10    13    1
    25    13    14    1
    26    14    15    1
    27    15    16   ar
    28    16    17   ar
    29    17    18   ar
    30    18    19   ar
    31    19    21    1
    32    21    22    2
    33    21    23    1
    34    19    20   ar
    35    10    11    1
    36    11    12    1
    37     4     5   ar
    38     5     6   ar
    39    34    35   ar
    40    35    36    1
    41    35    37   ar
    42    37    38   ar
    43    42    43   ar
    44    43    44   ar
    45    44    39   ar
    46    38    29   ar
    47    37    32   ar
    48     6     1   ar
    49    12     7    1
    50    20    15   ar
    51    27    28    1
    52    23    24    1
