@<TRIPOS>MOLECULE
*****
 47 52 0 0 0
SMALL
GASTEIGER

@<TRIPOS>ATOM
      1 C         -25.5326   49.8242   -9.1458 C.ar    1  UNL1        0.0702
      2 C         -25.5312   48.5226   -8.6211 C.ar    1  UNL1        0.0191
      3 C         -26.5337   47.6211   -8.9823 C.ar    1  UNL1        0.0356
      4 C         -27.5559   48.0330   -9.8519 C.ar    1  UNL1        0.1318
      5 N         -27.5402   49.3039  -10.3413 N.ar    1  UNL1       -0.2279
      6 C         -26.5743   50.1983  -10.0034 C.ar    1  UNL1        0.1149
      7 N         -28.5919   47.1238  -10.2679 N.pl3   1  UNL1       -0.2932
      8 C         -29.6606   47.5381  -11.1868 C.3     1  UNL1        0.0923
      9 C         -31.0412   47.2330  -10.5821 C.3     1  UNL1        0.0252
     10 C         -31.0694   45.9438   -9.7115 C.3     1  UNL1        0.0472
     11 C         -29.8795   45.0115  -10.0385 C.3     1  UNL1        0.0252
     12 C         -28.5314   45.7219   -9.8315 C.3     1  UNL1        0.0923
     13 C         -31.1303   46.2925   -8.2111 C.3     1  UNL1        0.2054
     14 O         -30.8288   47.6723   -8.0128 O.3     1  UNL1       -0.4755
     15 C         -29.7802   48.1484   -7.2124 C.ar    1  UNL1        0.1388
     16 C         -29.0524   47.3115   -6.3464 C.ar    1  UNL1        0.0369
     17 C         -28.0180   47.8360   -5.5688 C.ar    1  UNL1        0.0033
     18 C         -27.6987   49.1935   -5.6451 C.ar    1  UNL1        0.0066
     19 C         -28.4138   50.0445   -6.5044 C.ar    1  UNL1        0.0785
     20 C         -29.4548   49.5085   -7.2850 C.ar    1  UNL1        0.0433
     21 C         -28.0739   51.4824   -6.5837 C.2     1  UNL1        0.3381
     22 O         -27.0393   51.8615   -7.1967 O.2     1  UNL1       -0.2451
     23 O         -28.8950   52.4321   -5.9811 O.3     1  UNL1       -0.4771
     24 H         -28.6715   53.4190   -6.0293 H       1  UNL1        0.2954
     25 C         -23.4962   51.2514   -9.6639 C.2     1  UNL1        0.2839
     26 O         -23.3706   50.7554  -10.8153 O.2     1  UNL1       -0.2665
     27 N         -24.5340   50.7908   -8.7805 N.am    1  UNL1       -0.2766
     28 H         -24.6119   51.2170   -7.8316 H       1  UNL1        0.1553
     29 C         -23.5855   54.4133  -10.3569 C.3     1  UNL1        0.0345
     30 C         -22.5898   53.6630   -9.5251 C.ar    1  UNL1        0.0202
     31 C         -22.5423   52.2920   -9.2429 C.ar    1  UNL1        0.1946
     32 O         -21.4667   52.0155   -8.5265 O.2     1  UNL1       -0.4492
     33 C         -20.8280   53.1391   -8.3086 C.ar    1  UNL1        0.1452
     34 C         -19.6497   53.3172   -7.5921 C.ar    1  UNL1        0.0375
     35 C         -19.1346   54.6209   -7.4827 C.ar    1  UNL1        0.0031
     36 C         -19.8006   55.7209   -8.0885 C.ar    1  UNL1        0.0002
     37 C         -20.9968   55.4949   -8.8109 C.ar    1  UNL1        0.0028
     38 C         -21.4792   54.1889   -8.8967 C.ar    1  UNL1        0.0337
     39 C         -19.2473   57.0936   -7.9665 C.ar    1  UNL1        0.0001
     40 C         -18.4746   57.4567   -6.8482 C.ar    1  UNL1        0.0013
     41 C         -17.9554   58.7497   -6.7341 C.ar    1  UNL1        0.0141
     42 C         -18.1987   59.6997   -7.7342 C.ar    1  UNL1        0.0415
     43 N         -17.6665   61.0218   -7.6165 N.pl3   1  UNL1       -0.3570
     44 C         -18.9670   59.3454   -8.8506 C.ar    1  UNL1        0.0141
     45 C         -19.4882   58.0533   -8.9668 C.ar    1  UNL1        0.0013
     46 H         -17.8428   61.7370   -8.3570 H       1  UNL1        0.1424
     47 H         -17.0925   61.2953   -6.7879 H       1  UNL1        0.1424
@<TRIPOS>BOND
     1    29    30    1
     2    30    31   ar
     3    31    25    1
     4    25    26    2
     5    25    27   am
     6    27     1    1
     7     1     2   ar
     8     2     3   ar
     9     3     4   ar
    10     4     7    1
    11     7     8    1
    12     8     9    1
    13     9    10    1
    14    10    13    1
    15    13    14    1
    16    14    15    1
    17    15    16   ar
    18    16    17   ar
    19    17    18   ar
    20    18    19   ar
    21    19    21    1
    22    21    22    2
    23    21    23    1
    24    19    20   ar
    25    10    11    1
    26    11    12    1
    27     4     5   ar
    28     5     6   ar
    29    31    32   ar
    30    32    33   ar
    31    33    34   ar
    32    34    35   ar
    33    35    36   ar
    34    36    39    1
    35    39    40   ar
    36    40    41   ar
    37    41    42   ar
    38    42    43    1
    39    42    44   ar
    40    44    45   ar
    41    36    37   ar
    42    37    38   ar
    43    38    30   ar
    44     6     1   ar
    45    38    33   ar
    46    12     7    1
    47    45    39   ar
    48    20    15   ar
    49    27    28    1
    50    23    24    1
    51    43    46    1
    52    43    47    1
@<TRIPOS>MOLECULE
*****
 47 52 0 0 0
SMALL
GASTEIGER

@<TRIPOS>ATOM
      1 C         -25.4468   49.5887   -9.0891 C.ar    1  UNL1        0.0702
      2 C         -26.1391   49.6464  -10.3085 C.ar    1  UNL1        0.0191
      3 C         -27.0675   48.6562  -10.6340 C.ar    1  UNL1        0.0356
      4 C         -27.2842   47.5904   -9.7462 C.ar    1  UNL1        0.1318
      5 N         -26.5939   47.5521   -8.5727 N.ar    1  UNL1       -0.2279
      6 C         -25.6855   48.5050   -8.2353 C.ar    1  UNL1        0.1149
      7 N         -28.2527   46.5650  -10.0352 N.pl3   1  UNL1       -0.2932
      8 C         -28.6639   46.2561  -11.4112 C.3     1  UNL1        0.0923
      9 C         -30.1946   46.3193  -11.5445 C.3     1  UNL1        0.0252
     10 C         -30.9513   45.8555  -10.2667 C.3     1  UNL1        0.0472
     11 C         -30.0499   44.9902   -9.3553 C.3     1  UNL1        0.0252
     12 C         -28.7796   45.7474   -8.9336 C.3     1  UNL1        0.0923
     13 C         -31.5457   47.0599   -9.5098 C.3     1  UNL1        0.2054
     14 O         -31.4297   48.2433  -10.2973 O.3     1  UNL1       -0.4755
     15 C         -30.6133   49.3362   -9.9720 C.ar    1  UNL1        0.1388
     16 C         -30.0685   49.5146   -8.6869 C.ar    1  UNL1        0.0369
     17 C         -29.2628   50.6219   -8.4140 C.ar    1  UNL1        0.0033
     18 C         -28.9919   51.5590   -9.4135 C.ar    1  UNL1        0.0066
     19 C         -29.5264   51.3973  -10.7028 C.ar    1  UNL1        0.0785
     20 C         -30.3375   50.2788  -10.9702 C.ar    1  UNL1        0.0433
     21 C         -29.2383   52.3913  -11.7603 C.2     1  UNL1        0.3381
     22 O         -28.6000   52.0565  -12.7950 O.2     1  UNL1       -0.2451
     23 O         -29.6702   53.7080  -11.6226 O.3     1  UNL1       -0.4771
     24 H         -29.4782   54.3964  -12.3405 H       1  UNL1        0.2954
     25 C         -23.4800   51.1015   -9.6324 C.2     1  UNL1        0.2839
     26 O         -23.3872   50.6546  -10.8067 O.2     1  UNL1       -0.2665
     27 N         -24.4648   50.5732   -8.7266 N.am    1  UNL1       -0.2766
     28 H         -24.5162   50.9598   -7.7591 H       1  UNL1        0.1553
     29 C         -23.5791   54.2510  -10.3786 C.3     1  UNL1        0.0345
     30 C         -22.5947   53.5221   -9.5149 C.ar    1  UNL1        0.0202
     31 C         -22.5426   52.1563   -9.2095 C.ar    1  UNL1        0.1946
     32 O         -21.4795   51.8998   -8.4673 O.2     1  UNL1       -0.4492
     33 C         -20.8538   53.0318   -8.2551 C.ar    1  UNL1        0.1452
     34 C         -19.6915   53.2307   -7.5182 C.ar    1  UNL1        0.0375
     35 C         -19.1885   54.5400   -7.4198 C.ar    1  UNL1        0.0031
     36 C         -19.8504   55.6248   -8.0567 C.ar    1  UNL1        0.0002
     37 C         -21.0302   55.3777   -8.7991 C.ar    1  UNL1        0.0028
     38 C         -21.5009   54.0668   -8.8731 C.ar    1  UNL1        0.0337
     39 C         -19.3100   57.0036   -7.9461 C.ar    1  UNL1        0.0001
     40 C         -18.5601   57.3898   -6.8201 C.ar    1  UNL1        0.0013
     41 C         -18.0530   58.6885   -6.7167 C.ar    1  UNL1        0.0141
     42 C         -18.2859   59.6212   -7.7355 C.ar    1  UNL1        0.0415
     43 N         -17.7662   60.9492   -7.6287 N.pl3   1  UNL1       -0.3570
     44 C         -19.0315   59.2437   -8.8597 C.ar    1  UNL1        0.0141
     45 C         -19.5405   57.9460   -8.9651 C.ar    1  UNL1        0.0013
     46 H         -17.9348   61.6515   -8.3832 H       1  UNL1        0.1424
     47 H         -17.2091   61.2398   -6.7944 H       1  UNL1        0.1424
@<TRIPOS>BOND
     1    29    30    1
     2    30    31   ar
     3    31    25    1
     4    25    26    2
     5    25    27   am
     6    27     1    1
     7     1     2   ar
     8     2     3   ar
     9     3     4   ar
    10     4     7    1
    11     7     8    1
    12     8     9    1
    13     9    10    1
    14    10    13    1
    15    13    14    1
    16    14    15    1
    17    15    16   ar
    18    16    17   ar
    19    17    18   ar
    20    18    19   ar
    21    19    21    1
    22    21    22    2
    23    21    23    1
    24    19    20   ar
    25    10    11    1
    26    11    12    1
    27     4     5   ar
    28     5     6   ar
    29    31    32   ar
    30    32    33   ar
    31    33    34   ar
    32    34    35   ar
    33    35    36   ar
    34    36    39    1
    35    39    40   ar
    36    40    41   ar
    37    41    42   ar
    38    42    43    1
    39    42    44   ar
    40    44    45   ar
    41    36    37   ar
    42    37    38   ar
    43    38    30   ar
    44     6     1   ar
    45    38    33   ar
    46    12     7    1
    47    45    39   ar
    48    20    15   ar
    49    27    28    1
    50    23    24    1
    51    43    46    1
    52    43    47    1
@<TRIPOS>MOLECULE
*****
 47 52 0 0 0
SMALL
GASTEIGER

@<TRIPOS>ATOM
      1 C         -31.3591   48.6706   -7.3997 C.ar    1  UNL1        0.0702
      2 C         -31.2215   47.6272   -8.3281 C.ar    1  UNL1        0.0191
      3 C         -31.2150   47.9037   -9.6962 C.ar    1  UNL1        0.0356
      4 C         -31.3730   49.2273  -10.1366 C.ar    1  UNL1        0.1318
      5 N         -31.5132   50.2216   -9.2165 N.ar    1  UNL1       -0.2279
      6 C         -31.5224   49.9756   -7.8799 C.ar    1  UNL1        0.1149
      7 N         -31.3449   49.5547  -11.5384 N.pl3   1  UNL1       -0.2932
      8 C         -31.1707   48.5229  -12.5696 C.3     1  UNL1        0.0923
      9 C         -30.0010   48.8824  -13.5010 C.3     1  UNL1        0.0252
     10 C         -29.8411   50.4115  -13.7394 C.3     1  UNL1        0.0472
     11 C         -31.1437   51.1772  -13.4090 C.3     1  UNL1        0.0252
     12 C         -31.5827   50.9440  -11.9538 C.3     1  UNL1        0.0923
     13 C         -28.6340   50.9683  -12.9588 C.3     1  UNL1        0.2054
     14 O         -28.5437   50.3445  -11.6795 O.3     1  UNL1       -0.4755
     15 C         -27.6499   50.7301  -10.6699 C.ar    1  UNL1        0.1388
     16 C         -26.2599   50.7976  -10.8784 C.ar    1  UNL1        0.0369
     17 C         -25.4125   51.1857   -9.8387 C.ar    1  UNL1        0.0033
     18 C         -25.9380   51.5097   -8.5858 C.ar    1  UNL1        0.0066
     19 C         -27.3232   51.4487   -8.3589 C.ar    1  UNL1        0.0785
     20 C         -28.1708   51.0568   -9.4116 C.ar    1  UNL1        0.0433
     21 C         -27.8778   51.7922   -7.0308 C.2     1  UNL1        0.3381
     22 O         -28.6827   51.0121   -6.4534 O.2     1  UNL1       -0.2451
     23 O         -27.5152   52.9823   -6.4051 O.3     1  UNL1       -0.4771
     24 H         -27.8891   53.2271   -5.4960 H       1  UNL1        0.2954
     25 C         -30.2573   48.0179   -5.2060 C.2     1  UNL1        0.2839
     26 O         -29.1543   47.7777   -5.7656 O.2     1  UNL1       -0.2665
     27 N         -31.3962   48.4269   -5.9840 N.am    1  UNL1       -0.2766
     28 H         -32.2977   48.6153   -5.4943 H       1  UNL1        0.1553
     29 C         -30.8489   50.2955   -2.9816 C.3     1  UNL1        0.0345
     30 C         -30.6279   48.8264   -2.7842 C.ar    1  UNL1        0.0202
     31 C         -30.3528   47.8463   -3.7460 C.ar    1  UNL1        0.1946
     32 O         -30.1571   46.6790   -3.1581 O.2     1  UNL1       -0.4492
     33 C         -30.3155   46.8462   -1.8679 C.ar    1  UNL1        0.1452
     34 C         -30.2106   45.8827   -0.8708 C.ar    1  UNL1        0.0375
     35 C         -30.4215   46.2845    0.4600 C.ar    1  UNL1        0.0031
     36 C         -30.7315   47.6361    0.7727 C.ar    1  UNL1        0.0002
     37 C         -30.8267   48.5855   -0.2729 C.ar    1  UNL1        0.0028
     38 C         -30.6133   48.1504   -1.5809 C.ar    1  UNL1        0.0337
     39 C         -30.9522   48.0493    2.1819 C.ar    1  UNL1        0.0001
     40 C         -31.0499   49.4112    2.5213 C.ar    1  UNL1        0.0013
     41 C         -31.2565   49.7987    3.8485 C.ar    1  UNL1        0.0141
     42 C         -31.3695   48.8332    4.8571 C.ar    1  UNL1        0.0415
     43 N         -31.5813   49.2310    6.2143 N.pl3   1  UNL1       -0.3570
     44 C         -31.2735   47.4754    4.5267 C.ar    1  UNL1        0.0141
     45 C         -31.0660   47.0852    3.2004 C.ar    1  UNL1        0.0013
     46 H         -31.6667   48.5184    6.9731 H       1  UNL1        0.1424
     47 H         -31.6543   50.2409    6.4703 H       1  UNL1        0.1424
@<TRIPOS>BOND
     1    29    30    1
     2    30    31   ar
     3    31    25    1
     4    25    26    2
     5    25    27   am
     6    27     1    1
     7     1     2   ar
     8     2     3   ar
     9     3     4   ar
    10     4     7    1
    11     7     8    1
    12     8     9    1
    13     9    10    1
    14    10    13    1
    15    13    14    1
    16    14    15    1
    17    15    16   ar
    18    16    17   ar
    19    17    18   ar
    20    18    19   ar
    21    19    21    1
    22    21    22    2
    23    21    23    1
    24    19    20   ar
    25    10    11    1
    26    11    12    1
    27     4     5   ar
    28     5     6   ar
    29    31    32   ar
    30    32    33   ar
    31    33    34   ar
    32    34    35   ar
    33    35    36   ar
    34    36    39    1
    35    39    40   ar
    36    40    41   ar
    37    41    42   ar
    38    42    43    1
    39    42    44   ar
    40    44    45   ar
    41    36    37   ar
    42    37    38   ar
    43    38    30   ar
    44     6     1   ar
    45    38    33   ar
    46    12     7    1
    47    45    39   ar
    48    20    15   ar
    49    27    28    1
    50    23    24    1
    51    43    46    1
    52    43    47    1
@<TRIPOS>MOLECULE
*****
 47 52 0 0 0
SMALL
GASTEIGER

@<TRIPOS>ATOM
      1 C         -25.5166   49.8495   -9.1664 C.ar    1  UNL1        0.0702
      2 C         -25.4552   48.5194   -8.7232 C.ar    1  UNL1        0.0191
      3 C         -26.4554   47.6147   -9.0829 C.ar    1  UNL1        0.0356
      4 C         -27.5345   48.0505   -9.8681 C.ar    1  UNL1        0.1318
      5 N         -27.5760   49.3484  -10.2789 N.ar    1  UNL1       -0.2279
      6 C         -26.6136   50.2463   -9.9408 C.ar    1  UNL1        0.1149
      7 N         -28.5710   47.1406  -10.2811 N.pl3   1  UNL1       -0.2932
      8 C         -29.8470   47.6199  -10.8291 C.3     1  UNL1        0.0923
      9 C         -31.0292   47.0144  -10.0539 C.3     1  UNL1        0.0252
     10 C         -30.7678   45.5657   -9.5502 C.3     1  UNL1        0.0472
     11 C         -29.6204   44.8893  -10.3364 C.3     1  UNL1        0.0252
     12 C         -28.3141   45.6945  -10.2346 C.3     1  UNL1        0.0923
     13 C         -30.5108   45.5481   -8.0303 C.3     1  UNL1        0.2054
     14 O         -30.5111   46.8778   -7.5146 O.3     1  UNL1       -0.4755
     15 C         -29.4259   47.4736   -6.8557 C.ar    1  UNL1        0.1388
     16 C         -29.2645   48.8693   -6.7781 C.ar    1  UNL1        0.0369
     17 C         -28.1643   49.4124   -6.1115 C.ar    1  UNL1        0.0033
     18 C         -27.2174   48.5752   -5.5175 C.ar    1  UNL1        0.0066
     19 C         -27.3620   47.1792   -5.5840 C.ar    1  UNL1        0.0785
     20 C         -28.4734   46.6393   -6.2574 C.ar    1  UNL1        0.0433
     21 C         -26.3576   46.2939   -4.9540 C.2     1  UNL1        0.3381
     22 O         -26.5313   45.8631   -3.7818 O.2     1  UNL1       -0.2451
     23 O         -25.2091   45.9276   -5.6512 O.3     1  UNL1       -0.4771
     24 H         -24.5151   45.3221   -5.2292 H       1  UNL1        0.2954
     25 C         -23.4768   51.2750   -9.6757 C.2     1  UNL1        0.2839
     26 O         -23.3414   50.7726  -10.8231 O.2     1  UNL1       -0.2665
     27 N         -24.5216   50.8188   -8.7983 N.am    1  UNL1       -0.2766
     28 H         -24.6076   51.2503   -7.8525 H       1  UNL1        0.1553
     29 C         -23.5675   54.4346  -10.3792 C.3     1  UNL1        0.0345
     30 C         -22.5752   53.6885   -9.5395 C.ar    1  UNL1        0.0202
     31 C         -22.5270   52.3186   -9.2526 C.ar    1  UNL1        0.1946
     32 O         -21.4550   52.0462   -8.5294 O.2     1  UNL1       -0.4492
     33 C         -20.8194   53.1716   -8.3115 C.ar    1  UNL1        0.1452
     34 C         -19.6455   53.3539   -7.5889 C.ar    1  UNL1        0.0375
     35 C         -19.1331   54.6588   -7.4808 C.ar    1  UNL1        0.0031
     36 C         -19.7975   55.7558   -8.0939 C.ar    1  UNL1        0.0002
     37 C         -20.9893   55.5254   -8.8222 C.ar    1  UNL1        0.0028
     38 C         -21.4691   54.2184   -8.9066 C.ar    1  UNL1        0.0337
     39 C         -19.2473   57.1298   -7.9731 C.ar    1  UNL1        0.0001
     40 C         -18.4879   57.5000   -6.8481 C.ar    1  UNL1        0.0013
     41 C         -17.9714   58.7942   -6.7352 C.ar    1  UNL1        0.0141
     42 C         -18.2043   59.7383   -7.7433 C.ar    1  UNL1        0.0415
     43 N         -17.6750   61.0618   -7.6268 N.pl3   1  UNL1       -0.3570
     44 C         -18.9593   59.3769   -8.8665 C.ar    1  UNL1        0.0141
     45 C         -19.4776   58.0837   -8.9814 C.ar    1  UNL1        0.0013
     46 H         -17.8436   61.7725   -8.3733 H       1  UNL1        0.1424
     47 H         -17.1109   61.3405   -6.7932 H       1  UNL1        0.1424
@<TRIPOS>BOND
     1    29    30    1
     2    30    31   ar
     3    31    25    1
     4    25    26    2
     5    25    27   am
     6    27     1    1
     7     1     2   ar
     8     2     3   ar
     9     3     4   ar
    10     4     7    1
    11     7     8    1
    12     8     9    1
    13     9    10    1
    14    10    13    1
    15    13    14    1
    16    14    15    1
    17    15    16   ar
    18    16    17   ar
    19    17    18   ar
    20    18    19   ar
    21    19    21    1
    22    21    22    2
    23    21    23    1
    24    19    20   ar
    25    10    11    1
    26    11    12    1
    27     4     5   ar
    28     5     6   ar
    29    31    32   ar
    30    32    33   ar
    31    33    34   ar
    32    34    35   ar
    33    35    36   ar
    34    36    39    1
    35    39    40   ar
    36    40    41   ar
    37    41    42   ar
    38    42    43    1
    39    42    44   ar
    40    44    45   ar
    41    36    37   ar
    42    37    38   ar
    43    38    30   ar
    44     6     1   ar
    45    38    33   ar
    46    12     7    1
    47    45    39   ar
    48    20    15   ar
    49    27    28    1
    50    23    24    1
    51    43    46    1
    52    43    47    1
@<TRIPOS>MOLECULE
*****
 47 52 0 0 0
SMALL
GASTEIGER

@<TRIPOS>ATOM
      1 C         -30.2538   47.0955   -6.7577 C.ar    1  UNL1        0.0702
      2 C         -29.0854   46.5891   -7.3474 C.ar    1  UNL1        0.0191
      3 C         -29.0786   46.2377   -8.6983 C.ar    1  UNL1        0.0356
      4 C         -30.2539   46.3696   -9.4547 C.ar    1  UNL1        0.1318
      5 N         -31.3774   46.8555   -8.8577 N.ar    1  UNL1       -0.2279
      6 C         -31.4070   47.2039   -7.5444 C.ar    1  UNL1        0.1149
      7 N         -30.2785   46.0425  -10.8566 N.pl3   1  UNL1       -0.2932
      8 C         -29.0426   45.8443  -11.6257 C.3     1  UNL1        0.0923
      9 C         -29.0336   46.7423  -12.8742 C.3     1  UNL1        0.0252
     10 C         -30.4427   46.9567  -13.4981 C.3     1  UNL1        0.0472
     11 C         -31.4363   45.8605  -13.0472 C.3     1  UNL1        0.0252
     12 C         -31.5720   45.8159  -11.5160 C.3     1  UNL1        0.0923
     13 C         -30.9717   48.3721  -13.1927 C.3     1  UNL1        0.2054
     14 O         -30.7742   48.6860  -11.8156 O.3     1  UNL1       -0.4755
     15 C         -30.1002   49.8243  -11.3499 C.ar    1  UNL1        0.1388
     16 C         -29.8089   50.9214  -12.1815 C.ar    1  UNL1        0.0369
     17 C         -29.1333   52.0306  -11.6688 C.ar    1  UNL1        0.0033
     18 C         -28.7426   52.0592  -10.3281 C.ar    1  UNL1        0.0066
     19 C         -29.0253   50.9735   -9.4824 C.ar    1  UNL1        0.0785
     20 C         -29.7065   49.8592  -10.0064 C.ar    1  UNL1        0.0433
     21 C         -28.6105   51.0057   -8.0624 C.2     1  UNL1        0.3381
     22 O         -29.1448   50.2314   -7.2229 O.2     1  UNL1       -0.2451
     23 O         -27.6242   51.8931   -7.6393 O.3     1  UNL1       -0.4771
     24 H         -27.3328   51.9234   -6.6695 H       1  UNL1        0.2954
     25 C         -30.5539   46.5026   -4.3061 C.2     1  UNL1        0.2839
     26 O         -30.8077   45.2970   -4.5698 O.2     1  UNL1       -0.2665
     27 N         -30.3108   47.4454   -5.3651 N.am    1  UNL1       -0.2766
     28 H         -30.1069   48.4379   -5.1173 H       1  UNL1        0.1553
     29 C         -30.9951   49.4836   -3.1208 C.3     1  UNL1        0.0345
     30 C         -30.7468   48.2058   -2.3778 C.ar    1  UNL1        0.0202
     31 C         -30.5368   46.9209   -2.8937 C.ar    1  UNL1        0.1946
     32 O         -30.2868   46.0746   -1.9098 O.2     1  UNL1       -0.4492
     33 C         -30.3484   46.7390   -0.7817 C.ar    1  UNL1        0.1452
     34 C         -30.1596   46.2429    0.5036 C.ar    1  UNL1        0.0375
     35 C         -30.2725   47.1400    1.5804 C.ar    1  UNL1        0.0031
     36 C         -30.5697   48.5121    1.3577 C.ar    1  UNL1        0.0002
     37 C         -30.7524   48.9759    0.0327 C.ar    1  UNL1        0.0028
     38 C         -30.6350   48.0572   -1.0102 C.ar    1  UNL1        0.0337
     39 C         -30.6865   49.4506    2.5026 C.ar    1  UNL1        0.0001
     40 C         -31.3153   50.6991    2.3430 C.ar    1  UNL1        0.0013
     41 C         -31.4235   51.5821    3.4214 C.ar    1  UNL1        0.0141
     42 C         -30.9066   51.2326    4.6754 C.ar    1  UNL1        0.0415
     43 N         -31.0183   52.1366    5.7779 N.pl3   1  UNL1       -0.3570
     44 C         -30.2794   49.9912    4.8420 C.ar    1  UNL1        0.0141
     45 C         -30.1691   49.1067    3.7650 C.ar    1  UNL1        0.0013
     46 H         -30.6358   51.8848    6.7166 H       1  UNL1        0.1424
     47 H         -31.4843   53.0643    5.6635 H       1  UNL1        0.1424
@<TRIPOS>BOND
     1    29    30    1
     2    30    31   ar
     3    31    25    1
     4    25    26    2
     5    25    27   am
     6    27     1    1
     7     1     2   ar
     8     2     3   ar
     9     3     4   ar
    10     4     7    1
    11     7     8    1
    12     8     9    1
    13     9    10    1
    14    10    13    1
    15    13    14    1
    16    14    15    1
    17    15    16   ar
    18    16    17   ar
    19    17    18   ar
    20    18    19   ar
    21    19    21    1
    22    21    22    2
    23    21    23    1
    24    19    20   ar
    25    10    11    1
    26    11    12    1
    27     4     5   ar
    28     5     6   ar
    29    31    32   ar
    30    32    33   ar
    31    33    34   ar
    32    34    35   ar
    33    35    36   ar
    34    36    39    1
    35    39    40   ar
    36    40    41   ar
    37    41    42   ar
    38    42    43    1
    39    42    44   ar
    40    44    45   ar
    41    36    37   ar
    42    37    38   ar
    43    38    30   ar
    44     6     1   ar
    45    38    33   ar
    46    12     7    1
    47    45    39   ar
    48    20    15   ar
    49    27    28    1
    50    23    24    1
    51    43    46    1
    52    43    47    1
@<TRIPOS>MOLECULE
*****
 47 52 0 0 0
SMALL
GASTEIGER

@<TRIPOS>ATOM
      1 C         -26.3181   51.4436  -14.7199 C.ar    1  UNL1        0.0702
      2 C         -26.0947   50.9618  -16.0189 C.ar    1  UNL1        0.0191
      3 C         -27.0860   50.2293  -16.6740 C.ar    1  UNL1        0.0356
      4 C         -28.2955   49.9564  -16.0155 C.ar    1  UNL1        0.1318
      5 N         -28.4853   50.4276  -14.7519 N.ar    1  UNL1       -0.2279
      6 C         -27.5344   51.1427  -14.0950 C.ar    1  UNL1        0.1149
      7 N         -29.3513   49.2270  -16.6684 N.pl3   1  UNL1       -0.2932
      8 C         -30.7639   49.5914  -16.4953 C.3     1  UNL1        0.0923
      9 C         -31.5838   48.3731  -16.0387 C.3     1  UNL1        0.0252
     10 C         -31.0810   47.0255  -16.6318 C.3     1  UNL1        0.0472
     11 C         -30.2175   47.2481  -17.8956 C.3     1  UNL1        0.0252
     12 C         -29.0038   48.1450  -17.5999 C.3     1  UNL1        0.0923
     13 C         -30.3363   46.1973  -15.5660 C.3     1  UNL1        0.2054
     14 O         -31.0350   46.2496  -14.3239 O.3     1  UNL1       -0.4755
     15 C         -30.4816   46.7116  -13.1209 C.ar    1  UNL1        0.1388
     16 C         -30.6171   48.0447  -12.6912 C.ar    1  UNL1        0.0369
     17 C         -30.0448   48.4548  -11.4853 C.ar    1  UNL1        0.0033
     18 C         -29.3349   47.5456  -10.6979 C.ar    1  UNL1        0.0066
     19 C         -29.1896   46.2104  -11.1102 C.ar    1  UNL1        0.0785
     20 C         -29.7692   45.8046  -12.3266 C.ar    1  UNL1        0.0433
     21 C         -28.4369   45.2489  -10.2745 C.2     1  UNL1        0.3381
     22 O         -28.9743   44.7264   -9.2605 O.2     1  UNL1       -0.2451
     23 O         -27.1258   44.9113  -10.6007 O.3     1  UNL1       -0.4771
     24 H         -26.6016   44.2542  -10.0353 H       1  UNL1        0.2954
     25 C         -24.6992   51.7247  -12.7828 C.2     1  UNL1        0.2839
     26 O         -25.0783   50.6546  -12.2362 O.2     1  UNL1       -0.2665
     27 N         -25.3152   52.1797  -14.0006 N.am    1  UNL1       -0.2766
     28 H         -24.9836   53.0713  -14.4287 H       1  UNL1        0.1553
     29 C         -24.5033   52.5929   -9.6693 C.3     1  UNL1        0.0345
     30 C         -23.5350   52.8623  -10.7811 C.ar    1  UNL1        0.0202
     31 C         -23.6313   52.5026  -12.1312 C.ar    1  UNL1        0.1946
     32 O         -22.6005   52.9863  -12.8020 O.2     1  UNL1       -0.4492
     33 C         -21.8285   53.6193  -11.9529 C.ar    1  UNL1        0.1452
     34 C         -20.6316   54.2736  -12.2231 C.ar    1  UNL1        0.0375
     35 C         -19.9615   54.8922  -11.1529 C.ar    1  UNL1        0.0031
     36 C         -20.4951   54.8485   -9.8360 C.ar    1  UNL1        0.0002
     37 C         -21.7177   54.1733   -9.6053 C.ar    1  UNL1        0.0028
     38 C         -22.3533   53.5697  -10.6903 C.ar    1  UNL1        0.0337
     39 C         -19.7787   55.5054   -8.7133 C.ar    1  UNL1        0.0001
     40 C         -18.9292   54.7616   -7.8739 C.ar    1  UNL1        0.0013
     41 C         -18.2564   55.3810   -6.8166 C.ar    1  UNL1        0.0141
     42 C         -18.4204   56.7521   -6.5812 C.ar    1  UNL1        0.0415
     43 N         -17.7311   57.3846   -5.4995 N.pl3   1  UNL1       -0.3570
     44 C         -19.2644   57.4991   -7.4128 C.ar    1  UNL1        0.0141
     45 C         -19.9391   56.8819   -8.4703 C.ar    1  UNL1        0.0013
     46 H         -17.8473   58.4062   -5.3162 H       1  UNL1        0.1424
     47 H         -17.0997   56.8359   -4.8742 H       1  UNL1        0.1424
@<TRIPOS>BOND
     1    29    30    1
     2    30    31   ar
     3    31    25    1
     4    25    26    2
     5    25    27   am
     6    27     1    1
     7     1     2   ar
     8     2     3   ar
     9     3     4   ar
    10     4     7    1
    11     7     8    1
    12     8     9    1
    13     9    10    1
    14    10    13    1
    15    13    14    1
    16    14    15    1
    17    15    16   ar
    18    16    17   ar
    19    17    18   ar
    20    18    19   ar
    21    19    21    1
    22    21    22    2
    23    21    23    1
    24    19    20   ar
    25    10    11    1
    26    11    12    1
    27     4     5   ar
    28     5     6   ar
    29    31    32   ar
    30    32    33   ar
    31    33    34   ar
    32    34    35   ar
    33    35    36   ar
    34    36    39    1
    35    39    40   ar
    36    40    41   ar
    37    41    42   ar
    38    42    43    1
    39    42    44   ar
    40    44    45   ar
    41    36    37   ar
    42    37    38   ar
    43    38    30   ar
    44     6     1   ar
    45    38    33   ar
    46    12     7    1
    47    45    39   ar
    48    20    15   ar
    49    27    28    1
    50    23    24    1
    51    43    46    1
    52    43    47    1
@<TRIPOS>MOLECULE
*****
 47 52 0 0 0
SMALL
GASTEIGER

@<TRIPOS>ATOM
      1 C         -25.9927   49.8720   -9.3960 C.ar    1  UNL1        0.0702
      2 C         -25.8684   48.4906   -9.1825 C.ar    1  UNL1        0.0191
      3 C         -26.9098   47.6310   -9.5363 C.ar    1  UNL1        0.0356
      4 C         -28.0902   48.1600  -10.0819 C.ar    1  UNL1        0.1318
      5 N         -28.1902   49.5050  -10.2715 N.ar    1  UNL1       -0.2279
      6 C         -27.1893   50.3605   -9.9346 C.ar    1  UNL1        0.1149
      7 N         -29.1750   47.3028  -10.4834 N.pl3   1  UNL1       -0.2932
      8 C         -28.9399   46.0461  -11.2068 C.3     1  UNL1        0.0923
      9 C         -29.7702   46.0042  -12.5006 C.3     1  UNL1        0.0252
     10 C         -31.1494   46.7139  -12.3794 C.3     1  UNL1        0.0472
     11 C         -31.5839   46.8626  -10.9025 C.3     1  UNL1        0.0252
     12 C         -30.5463   47.6494  -10.0845 C.3     1  UNL1        0.0923
     13 C         -31.1389   48.0691  -13.1141 C.3     1  UNL1        0.2054
     14 O         -29.9459   48.2036  -13.8839 O.3     1  UNL1       -0.4755
     15 C         -29.9040   48.2242  -15.2855 C.ar    1  UNL1        0.1388
     16 C         -29.7284   49.4131  -16.0175 C.ar    1  UNL1        0.0369
     17 C         -29.6958   49.3794  -17.4131 C.ar    1  UNL1        0.0033
     18 C         -29.8367   48.1668  -18.0916 C.ar    1  UNL1        0.0066
     19 C         -30.0123   46.9695  -17.3778 C.ar    1  UNL1        0.0785
     20 C         -30.0441   47.0114  -15.9716 C.ar    1  UNL1        0.0433
     21 C         -30.1615   45.6859  -18.0986 C.2     1  UNL1        0.3381
     22 O         -31.2938   45.3102  -18.5067 O.2     1  UNL1       -0.2451
     23 O         -29.0507   44.8794  -18.3335 O.3     1  UNL1       -0.4771
     24 H         -29.1418   43.9988  -18.8258 H       1  UNL1        0.2954
     25 C         -23.8557   51.1585   -9.8758 C.2     1  UNL1        0.2839
     26 O         -23.7106   50.6101  -11.0008 O.2     1  UNL1       -0.2665
     27 N         -24.9554   50.7940   -9.0230 N.am    1  UNL1       -0.2766
     28 H         -25.0484   51.2618   -8.0953 H       1  UNL1        0.1553
     29 C         -23.9476   54.3610  -10.3460 C.3     1  UNL1        0.0345
     30 C         -22.9084   53.5464   -9.6372 C.ar    1  UNL1        0.0202
     31 C         -22.8609   52.1590   -9.4520 C.ar    1  UNL1        0.1946
     32 O         -21.7432   51.8242   -8.8315 O.2     1  UNL1       -0.4492
     33 C         -21.0755   52.9243   -8.5827 C.ar    1  UNL1        0.1452
     34 C         -19.8489   53.0421   -7.9384 C.ar    1  UNL1        0.0375
     35 C         -19.3093   54.3304   -7.7769 C.ar    1  UNL1        0.0031
     36 C         -19.9995   55.4754   -8.2600 C.ar    1  UNL1        0.0002
     37 C         -21.2451   55.3104   -8.9121 C.ar    1  UNL1        0.0028
     38 C         -21.7504   54.0179   -9.0525 C.ar    1  UNL1        0.0337
     39 C         -19.4201   56.8313   -8.0839 C.ar    1  UNL1        0.0001
     40 C         -18.6540   57.1395   -6.9448 C.ar    1  UNL1        0.0013
     41 C         -18.1102   58.4168   -6.7798 C.ar    1  UNL1        0.0141
     42 C         -18.3219   59.4056   -7.7490 C.ar    1  UNL1        0.0415
     43 N         -17.7646   60.7116   -7.5792 N.pl3   1  UNL1       -0.3570
     44 C         -19.0834   59.1060   -8.8859 C.ar    1  UNL1        0.0141
     45 C         -19.6292   57.8298   -9.0529 C.ar    1  UNL1        0.0013
     46 H         -17.9172   61.4554   -8.2964 H       1  UNL1        0.1424
     47 H         -17.1954   60.9444   -6.7350 H       1  UNL1        0.1424
@<TRIPOS>BOND
     1    29    30    1
     2    30    31   ar
     3    31    25    1
     4    25    26    2
     5    25    27   am
     6    27     1    1
     7     1     2   ar
     8     2     3   ar
     9     3     4   ar
    10     4     7    1
    11     7     8    1
    12     8     9    1
    13     9    10    1
    14    10    13    1
    15    13    14    1
    16    14    15    1
    17    15    16   ar
    18    16    17   ar
    19    17    18   ar
    20    18    19   ar
    21    19    21    1
    22    21    22    2
    23    21    23    1
    24    19    20   ar
    25    10    11    1
    26    11    12    1
    27     4     5   ar
    28     5     6   ar
    29    31    32   ar
    30    32    33   ar
    31    33    34   ar
    32    34    35   ar
    33    35    36   ar
    34    36    39    1
    35    39    40   ar
    36    40    41   ar
    37    41    42   ar
    38    42    43    1
    39    42    44   ar
    40    44    45   ar
    41    36    37   ar
    42    37    38   ar
    43    38    30   ar
    44     6     1   ar
    45    38    33   ar
    46    12     7    1
    47    45    39   ar
    48    20    15   ar
    49    27    28    1
    50    23    24    1
    51    43    46    1
    52    43    47    1
@<TRIPOS>MOLECULE
*****
 47 52 0 0 0
SMALL
GASTEIGER

@<TRIPOS>ATOM
      1 C         -25.4183   49.6774   -9.0717 C.ar    1  UNL1        0.0702
      2 C         -25.8439   49.5070  -10.3981 C.ar    1  UNL1        0.0191
      3 C         -26.7841   48.5239  -10.7108 C.ar    1  UNL1        0.0356
      4 C         -27.2804   47.6913   -9.6953 C.ar    1  UNL1        0.1318
      5 N         -26.8457   47.8707   -8.4171 N.ar    1  UNL1       -0.2279
      6 C         -25.9311   48.8212   -8.0897 C.ar    1  UNL1        0.1149
      7 N         -28.2705   46.6841   -9.9747 N.pl3   1  UNL1       -0.2932
      8 C         -28.7113   46.3930  -11.3455 C.3     1  UNL1        0.0923
      9 C         -30.2430   46.4821  -11.4506 C.3     1  UNL1        0.0252
     10 C         -30.9841   46.0202  -10.1629 C.3     1  UNL1        0.0472
     11 C         -30.0806   45.1330   -9.2748 C.3     1  UNL1        0.0252
     12 C         -28.7908   45.8661   -8.8703 C.3     1  UNL1        0.0923
     13 C         -31.5450   47.2277   -9.3860 C.3     1  UNL1        0.2054
     14 O         -31.3951   48.4206  -10.1532 O.3     1  UNL1       -0.4755
     15 C         -30.5062   49.4591   -9.8400 C.ar    1  UNL1        0.1388
     16 C         -29.8982   50.2554  -10.8281 C.ar    1  UNL1        0.0369
     17 C         -29.0183   51.2763  -10.4632 C.ar    1  UNL1        0.0033
     18 C         -28.7359   51.5144   -9.1163 C.ar    1  UNL1        0.0066
     19 C         -29.3339   50.7302   -8.1156 C.ar    1  UNL1        0.0785
     20 C         -30.2196   49.7032   -8.4911 C.ar    1  UNL1        0.0433
     21 C         -29.0332   50.9840   -6.6892 C.2     1  UNL1        0.3381
     22 O         -29.5536   51.9647   -6.0912 O.2     1  UNL1       -0.2451
     23 O         -28.1714   50.1406   -5.9925 O.3     1  UNL1       -0.4771
     24 H         -27.9588   50.3054   -5.0159 H       1  UNL1        0.2954
     25 C         -23.4408   51.1764   -9.6146 C.2     1  UNL1        0.2839
     26 O         -23.3427   50.7195  -10.7846 O.2     1  UNL1       -0.2665
     27 N         -24.4339   50.6601   -8.7108 N.am    1  UNL1       -0.2766
     28 H         -24.4896   51.0547   -7.7468 H       1  UNL1        0.1553
     29 C         -23.5544   54.3310  -10.3364 C.3     1  UNL1        0.0345
     30 C         -22.5592   53.5978   -9.4889 C.ar    1  UNL1        0.0202
     31 C         -22.5009   52.2300   -9.1941 C.ar    1  UNL1        0.1946
     32 O         -21.4294   51.9703   -8.4655 O.2     1  UNL1       -0.4492
     33 C         -20.8037   53.1020   -8.2518 C.ar    1  UNL1        0.1452
     34 C         -19.6338   53.2979   -7.5261 C.ar    1  UNL1        0.0375
     35 C         -19.1324   54.6075   -7.4236 C.ar    1  UNL1        0.0031
     36 C         -19.8034   55.6956   -8.0453 C.ar    1  UNL1        0.0002
     37 C         -20.9907   55.4515   -8.7765 C.ar    1  UNL1        0.0028
     38 C         -21.4596   54.1402   -8.8551 C.ar    1  UNL1        0.0337
     39 C         -19.2647   57.0747   -7.9304 C.ar    1  UNL1        0.0001
     40 C         -18.5179   57.4592   -6.8017 C.ar    1  UNL1        0.0013
     41 C         -18.0123   58.7582   -6.6944 C.ar    1  UNL1        0.0141
     42 C         -18.2436   59.6928   -7.7117 C.ar    1  UNL1        0.0415
     43 N         -17.7255   61.0211   -7.6009 N.pl3   1  UNL1       -0.3570
     44 C         -18.9862   59.3170   -8.8385 C.ar    1  UNL1        0.0141
     45 C         -19.4936   58.0190   -8.9479 C.ar    1  UNL1        0.0013
     46 H         -17.8930   61.7249   -8.3542 H       1  UNL1        0.1424
     47 H         -17.1707   61.3105   -6.7646 H       1  UNL1        0.1424
@<TRIPOS>BOND
     1    29    30    1
     2    30    31   ar
     3    31    25    1
     4    25    26    2
     5    25    27   am
     6    27     1    1
     7     1     2   ar
     8     2     3   ar
     9     3     4   ar
    10     4     7    1
    11     7     8    1
    12     8     9    1
    13     9    10    1
    14    10    13    1
    15    13    14    1
    16    14    15    1
    17    15    16   ar
    18    16    17   ar
    19    17    18   ar
    20    18    19   ar
    21    19    21    1
    22    21    22    2
    23    21    23    1
    24    19    20   ar
    25    10    11    1
    26    11    12    1
    27     4     5   ar
    28     5     6   ar
    29    31    32   ar
    30    32    33   ar
    31    33    34   ar
    32    34    35   ar
    33    35    36   ar
    34    36    39    1
    35    39    40   ar
    36    40    41   ar
    37    41    42   ar
    38    42    43    1
    39    42    44   ar
    40    44    45   ar
    41    36    37   ar
    42    37    38   ar
    43    38    30   ar
    44     6     1   ar
    45    38    33   ar
    46    12     7    1
    47    45    39   ar
    48    20    15   ar
    49    27    28    1
    50    23    24    1
    51    43    46    1
    52    43    47    1
@<TRIPOS>MOLECULE
*****
 47 52 0 0 0
SMALL
GASTEIGER

@<TRIPOS>ATOM
      1 C         -31.0906   49.4542   -7.2812 C.ar    1  UNL1        0.0702
      2 C         -31.5753   48.4877   -8.1758 C.ar    1  UNL1        0.0191
      3 C         -31.5474   48.7294   -9.5502 C.ar    1  UNL1        0.0356
      4 C         -31.0562   49.9544  -10.0288 C.ar    1  UNL1        0.1318
      5 N         -30.5993   50.8799   -9.1402 N.ar    1  UNL1       -0.2279
      6 C         -30.6168   50.6661   -7.7982 C.ar    1  UNL1        0.1149
      7 N         -30.9871   50.2292  -11.4404 N.pl3   1  UNL1       -0.2932
      8 C         -30.8957   49.1511  -12.4341 C.3     1  UNL1        0.0923
      9 C         -29.6908   49.3739  -13.3633 C.3     1  UNL1        0.0252
     10 C         -29.3945   50.8739  -13.6512 C.3     1  UNL1        0.0472
     11 C         -30.6272   51.7621  -13.3622 C.3     1  UNL1        0.0252
     12 C         -31.0978   51.6189  -11.9051 C.3     1  UNL1        0.0923
     13 C         -28.1498   51.3491  -12.8757 C.3     1  UNL1        0.2054
     14 O         -28.0685   50.6827  -11.6174 O.3     1  UNL1       -0.4755
     15 C         -26.9988   50.8102  -10.7195 C.ar    1  UNL1        0.1388
     16 C         -27.1215   50.5040   -9.3516 C.ar    1  UNL1        0.0369
     17 C         -26.0255   50.6501   -8.4988 C.ar    1  UNL1        0.0033
     18 C         -24.8009   51.1004   -8.9970 C.ar    1  UNL1        0.0066
     19 C         -24.6591   51.4105  -10.3600 C.ar    1  UNL1        0.0785
     20 C         -25.7681   51.2607  -11.2132 C.ar    1  UNL1        0.0433
     21 C         -23.3608   51.8876  -10.8858 C.2     1  UNL1        0.3381
     22 O         -22.3600   51.1209  -10.9083 O.2     1  UNL1       -0.2451
     23 O         -23.2321   53.1900  -11.3616 O.3     1  UNL1       -0.4771
     24 H         -22.3479   53.5267  -11.7235 H       1  UNL1        0.2954
     25 C         -30.5201   48.1373   -5.1854 C.2     1  UNL1        0.2839
     26 O         -29.9770   47.2119   -5.8458 O.2     1  UNL1       -0.2665
     27 N         -31.1243   49.2560   -5.8583 N.am    1  UNL1       -0.2766
     28 H         -31.5699   50.0057   -5.2859 H       1  UNL1        0.1553
     29 C         -31.3320   50.4277   -3.0451 C.3     1  UNL1        0.0345
     30 C         -30.9087   49.0129   -2.7898 C.ar    1  UNL1        0.0202
     31 C         -30.5391   48.0298   -3.7163 C.ar    1  UNL1        0.1946
     32 O         -30.1673   46.9304   -3.0840 O.2     1  UNL1       -0.4492
     33 C         -30.3004   47.1412   -1.7973 C.ar    1  UNL1        0.1452
     34 C         -30.0312   46.2526   -0.7622 C.ar    1  UNL1        0.0375
     35 C         -30.2462   46.6908    0.5564 C.ar    1  UNL1        0.0031
     36 C         -30.7236   48.0037    0.8194 C.ar    1  UNL1        0.0002
     37 C         -30.9830   48.8771   -0.2639 C.ar    1  UNL1        0.0028
     38 C         -30.7602   48.4075   -1.5583 C.ar    1  UNL1        0.0337
     39 C         -30.9471   48.4558    2.2162 C.ar    1  UNL1        0.0001
     40 C         -30.9792   49.8274    2.5277 C.ar    1  UNL1        0.0013
     41 C         -31.1885   50.2515    3.8432 C.ar    1  UNL1        0.0141
     42 C         -31.3696   49.3136    4.8677 C.ar    1  UNL1        0.0415
     43 N         -31.5841   49.7488    6.2130 N.pl3   1  UNL1       -0.3570
     44 C         -31.3390   47.9463    4.5651 C.ar    1  UNL1        0.0141
     45 C         -31.1290   47.5194    3.2505 C.ar    1  UNL1        0.0013
     46 H         -31.7199   49.0569    6.9835 H       1  UNL1        0.1424
     47 H         -31.6085   50.7661    6.4483 H       1  UNL1        0.1424
@<TRIPOS>BOND
     1    29    30    1
     2    30    31   ar
     3    31    25    1
     4    25    26    2
     5    25    27   am
     6    27     1    1
     7     1     2   ar
     8     2     3   ar
     9     3     4   ar
    10     4     7    1
    11     7     8    1
    12     8     9    1
    13     9    10    1
    14    10    13    1
    15    13    14    1
    16    14    15    1
    17    15    16   ar
    18    16    17   ar
    19    17    18   ar
    20    18    19   ar
    21    19    21    1
    22    21    22    2
    23    21    23    1
    24    19    20   ar
    25    10    11    1
    26    11    12    1
    27     4     5   ar
    28     5     6   ar
    29    31    32   ar
    30    32    33   ar
    31    33    34   ar
    32    34    35   ar
    33    35    36   ar
    34    36    39    1
    35    39    40   ar
    36    40    41   ar
    37    41    42   ar
    38    42    43    1
    39    42    44   ar
    40    44    45   ar
    41    36    37   ar
    42    37    38   ar
    43    38    30   ar
    44     6     1   ar
    45    38    33   ar
    46    12     7    1
    47    45    39   ar
    48    20    15   ar
    49    27    28    1
    50    23    24    1
    51    43    46    1
    52    43    47    1
