@<TRIPOS>MOLECULE
*****
 50 55 0 0 0
SMALL
GASTEIGER

@<TRIPOS>ATOM
      1 O         -60.2410  -46.7301  -25.2174 O.2     1  UNL1       -0.2701
      2 C         -61.3886  -46.2229  -25.3495 C.2     1  UNL1        0.2483
      3 N         -62.3458  -46.8445  -26.2235 N.am    1  UNL1       -0.2945
      4 H         -63.1774  -46.2875  -26.5226 H       1  UNL1        0.1501
      5 C         -61.7315  -44.9858  -24.6063 C.ar    1  UNL1        0.0808
      6 C         -61.6446  -44.9529  -23.2029 C.ar    1  UNL1        0.0080
      7 C         -61.9588  -43.7882  -22.4980 C.ar    1  UNL1        0.0148
      8 C         -62.3606  -42.6302  -23.1809 C.ar    1  UNL1        0.0502
      9 C         -62.4437  -42.6567  -24.5804 C.ar    1  UNL1        0.0443
     10 C         -62.1299  -43.8199  -25.2904 C.ar    1  UNL1        0.1457
     11 F         -62.2441  -43.8097  -26.6431 F       1  UNL1       -0.2040
     12 N         -62.6889  -41.4279  -22.4592 N.pl3   1  UNL1       -0.3040
     13 C         -63.8417  -40.6177  -22.8674 C.3     1  UNL1        0.1123
     14 C         -64.5661  -40.0729  -21.6355 C.3     1  UNL1        0.1136
     15 N         -63.6024  -39.4754  -20.7003 N.pl3   1  UNL1       -0.2897
     16 C         -62.4368  -40.2783  -20.3066 C.3     1  UNL1        0.1136
     17 C         -61.7186  -40.8188  -21.5434 C.3     1  UNL1        0.1123
     18 C         -63.9208  -38.2762  -19.9654 C.ar    1  UNL1        0.1318
     19 C         -65.0253  -38.2220  -19.0994 C.ar    1  UNL1        0.0343
     20 C         -65.2988  -37.0436  -18.4037 C.ar    1  UNL1        0.0083
     21 C         -64.4856  -35.9140  -18.5788 C.ar    1  UNL1        0.0906
     22 C         -63.3721  -36.0199  -19.4264 C.ar    1  UNL1        0.1041
     23 N         -63.1248  -37.1786  -20.0925 N.ar    1  UNL1       -0.2292
     24 C         -64.7402  -34.6520  -17.7946 C.3     1  UNL1        0.4200
     25 F         -64.9487  -34.9423  -16.4575 F       1  UNL1       -0.1658
     26 F         -63.6451  -33.8163  -17.9091 F       1  UNL1       -0.1658
     27 F         -65.8605  -33.9965  -18.2754 F       1  UNL1       -0.1658
     28 C         -62.0777  -48.1182  -26.8981 C.3     1  UNL1        0.1536
     29 C         -62.2716  -49.2657  -25.9358 C.2     1  UNL1        0.2443
     30 O         -63.3364  -49.9387  -25.9979 O.2     1  UNL1       -0.2730
     31 N         -61.2959  -49.5427  -24.9159 N.am    1  UNL1       -0.2825
     32 H         -60.5360  -48.8435  -24.7578 H       1  UNL1        0.1549
     33 C         -61.4074  -50.6251  -23.9774 C.ar    1  UNL1        0.0535
     34 C         -60.2529  -51.3097  -23.5740 C.ar    1  UNL1        0.0353
     35 C         -60.3587  -52.3710  -22.6720 C.ar    1  UNL1        0.1002
     36 N         -61.5774  -52.7483  -22.2030 N.ar    1  UNL1       -0.2422
     37 C         -62.7166  -52.1169  -22.5921 C.ar    1  UNL1        0.1002
     38 C         -62.6550  -51.0489  -23.4908 C.ar    1  UNL1        0.0353
     39 C         -62.9803  -48.2545  -28.1381 C.3     1  UNL1        0.0592
     40 C         -62.9457  -47.0148  -28.9876 C.ar    1  UNL1        0.0254
     41 C         -64.0172  -46.4420  -29.6642 C.ar    1  UNL1        0.1966
     42 F         -65.2700  -46.9569  -29.7242 F       1  UNL1       -0.1855
     43 N         -63.6628  -45.2700  -30.2360 N.ar    1  UNL1       -0.3307
     44 C         -62.3693  -45.0881  -29.9161 C.ar    1  UNL1        0.0580
     45 C         -61.5626  -44.0017  -30.2521 C.ar    1  UNL1        0.0170
     46 C         -60.2351  -43.9987  -29.7866 C.ar    1  UNL1        0.0015
     47 C         -59.7484  -45.0692  -29.0044 C.ar    1  UNL1        0.0001
     48 C         -60.5840  -46.1531  -28.6811 C.ar    1  UNL1        0.0012
     49 C         -61.8968  -46.1290  -29.1543 C.ar    1  UNL1        0.0153
     50 H         -64.2746  -44.6306  -30.7902 H       1  UNL1        0.1680
@<TRIPOS>BOND
     1     1     2    2
     2     2     3   am
     3     3    28    1
     4    28    39    1
     5    39    40    1
     6    40    41   ar
     7    41    42    1
     8    41    43   ar
     9    43    44   ar
    10    44    45   ar
    11    45    46   ar
    12    46    47   ar
    13    47    48   ar
    14    48    49   ar
    15    28    29    1
    16    29    30    2
    17    29    31   am
    18    31    33    1
    19    33    34   ar
    20    34    35   ar
    21    35    36   ar
    22    36    37   ar
    23    37    38   ar
    24     2     5    1
    25     5     6   ar
    26     6     7   ar
    27     7     8   ar
    28     8    12    1
    29    12    13    1
    30    13    14    1
    31    14    15    1
    32    15    18    1
    33    18    19   ar
    34    19    20   ar
    35    20    21   ar
    36    21    24    1
    37    24    25    1
    38    24    26    1
    39    24    27    1
    40    21    22   ar
    41    22    23   ar
    42    15    16    1
    43    16    17    1
    44     8     9   ar
    45     9    10   ar
    46    10    11    1
    47    49    40   ar
    48    38    33   ar
    49    10     5   ar
    50    49    44   ar
    51    17    12    1
    52    23    18   ar
    53     3     4    1
    54    43    50    1
    55    31    32    1
@<TRIPOS>MOLECULE
*****
 50 55 0 0 0
SMALL
GASTEIGER

@<TRIPOS>ATOM
      1 O         -63.1374  -54.3479  -22.4433 O.2     1  UNL1       -0.2701
      2 C         -64.0579  -53.5898  -22.8551 C.2     1  UNL1        0.2483
      3 N         -65.4308  -53.9866  -22.6991 N.am    1  UNL1       -0.2945
      4 H         -66.1563  -53.4908  -23.2640 H       1  UNL1        0.1501
      5 C         -63.7097  -52.3015  -23.5029 C.ar    1  UNL1        0.0808
      6 C         -64.5187  -51.7806  -24.5288 C.ar    1  UNL1        0.0080
      7 C         -64.2001  -50.5641  -25.1374 C.ar    1  UNL1        0.0148
      8 C         -63.0699  -49.8393  -24.7295 C.ar    1  UNL1        0.0502
      9 C         -62.2633  -50.3522  -23.7035 C.ar    1  UNL1        0.0443
     10 C         -62.5782  -51.5693  -23.0911 C.ar    1  UNL1        0.1457
     11 F         -61.7592  -52.0408  -22.1166 F       1  UNL1       -0.2040
     12 N         -62.7349  -48.5864  -25.3555 N.pl3   1  UNL1       -0.3040
     13 C         -62.8162  -48.4488  -26.8138 C.3     1  UNL1        0.1123
     14 C         -63.3572  -47.0670  -27.1839 C.3     1  UNL1        0.1136
     15 N         -62.6449  -46.0230  -26.4334 N.pl3   1  UNL1       -0.2897
     16 C         -62.5453  -46.1702  -24.9751 C.3     1  UNL1        0.1136
     17 C         -62.0038  -47.5536  -24.6139 C.3     1  UNL1        0.1123
     18 C         -62.3099  -44.7609  -27.0453 C.ar    1  UNL1        0.1318
     19 C         -60.9750  -44.3447  -27.1769 C.ar    1  UNL1        0.0343
     20 C         -60.6915  -43.1172  -27.7776 C.ar    1  UNL1        0.0083
     21 C         -61.7332  -42.2959  -28.2338 C.ar    1  UNL1        0.0906
     22 C         -63.0510  -42.7636  -28.1148 C.ar    1  UNL1        0.1041
     23 N         -63.3028  -43.9631  -27.5274 N.ar    1  UNL1       -0.2292
     24 C         -61.4379  -40.9919  -28.9301 C.3     1  UNL1        0.4200
     25 F         -60.1993  -40.5054  -28.5497 F       1  UNL1       -0.1658
     26 F         -61.4420  -41.1949  -30.2974 F       1  UNL1       -0.1658
     27 F         -62.3929  -40.0418  -28.6121 F       1  UNL1       -0.1658
     28 C         -65.8163  -55.2040  -21.9791 C.3     1  UNL1        0.1536
     29 C         -66.7996  -54.8689  -20.8831 C.2     1  UNL1        0.2443
     30 O         -67.0728  -53.6581  -20.6598 O.2     1  UNL1       -0.2730
     31 N         -67.3598  -55.9041  -20.0563 N.am    1  UNL1       -0.2825
     32 H         -66.9555  -56.8647  -20.1276 H       1  UNL1        0.1549
     33 C         -68.3106  -55.6606  -19.0067 C.ar    1  UNL1        0.0535
     34 C         -67.8882  -55.6988  -17.6710 C.ar    1  UNL1        0.0353
     35 C         -68.8122  -55.4758  -16.6475 C.ar    1  UNL1        0.1002
     36 N         -70.1172  -55.2410  -16.9463 N.ar    1  UNL1       -0.2422
     37 C         -70.5604  -55.2186  -18.2312 C.ar    1  UNL1        0.1002
     38 C         -69.6687  -55.4343  -19.2849 C.ar    1  UNL1        0.0353
     39 C         -66.3918  -56.2364  -22.9659 C.3     1  UNL1        0.0592
     40 C         -67.4865  -55.6459  -23.8100 C.ar    1  UNL1        0.0254
     41 C         -67.3302  -54.9476  -25.0024 C.ar    1  UNL1        0.1966
     42 F         -66.1421  -54.6215  -25.5681 F       1  UNL1       -0.1855
     43 N         -68.5273  -54.6585  -25.5589 N.ar    1  UNL1       -0.3307
     44 C         -69.4475  -55.1809  -24.7291 C.ar    1  UNL1        0.0580
     45 C         -70.8324  -55.1671  -24.8901 C.ar    1  UNL1        0.0170
     46 C         -71.6155  -55.8026  -23.9093 C.ar    1  UNL1        0.0015
     47 C         -71.0044  -56.4306  -22.8017 C.ar    1  UNL1        0.0001
     48 C         -69.6050  -56.4285  -22.6638 C.ar    1  UNL1        0.0012
     49 C         -68.8527  -55.7927  -23.6525 C.ar    1  UNL1        0.0153
     50 H         -68.6974  -54.1547  -26.4576 H       1  UNL1        0.1680
@<TRIPOS>BOND
     1     1     2    2
     2     2     3   am
     3     3    28    1
     4    28    39    1
     5    39    40    1
     6    40    41   ar
     7    41    42    1
     8    41    43   ar
     9    43    44   ar
    10    44    45   ar
    11    45    46   ar
    12    46    47   ar
    13    47    48   ar
    14    48    49   ar
    15    28    29    1
    16    29    30    2
    17    29    31   am
    18    31    33    1
    19    33    34   ar
    20    34    35   ar
    21    35    36   ar
    22    36    37   ar
    23    37    38   ar
    24     2     5    1
    25     5     6   ar
    26     6     7   ar
    27     7     8   ar
    28     8    12    1
    29    12    13    1
    30    13    14    1
    31    14    15    1
    32    15    18    1
    33    18    19   ar
    34    19    20   ar
    35    20    21   ar
    36    21    24    1
    37    24    25    1
    38    24    26    1
    39    24    27    1
    40    21    22   ar
    41    22    23   ar
    42    15    16    1
    43    16    17    1
    44     8     9   ar
    45     9    10   ar
    46    10    11    1
    47    49    40   ar
    48    38    33   ar
    49    10     5   ar
    50    49    44   ar
    51    17    12    1
    52    23    18   ar
    53     3     4    1
    54    43    50    1
    55    31    32    1
@<TRIPOS>MOLECULE
*****
 50 55 0 0 0
SMALL
GASTEIGER

@<TRIPOS>ATOM
      1 O         -59.9770  -46.8769  -24.3470 O.2     1  UNL1       -0.2701
      2 C         -61.0118  -46.2411  -24.6887 C.2     1  UNL1        0.2483
      3 N         -61.7652  -46.6701  -25.8354 N.am    1  UNL1       -0.2945
      4 H         -62.4493  -46.0021  -26.2560 H       1  UNL1        0.1501
      5 C         -61.4322  -45.0532  -23.9060 C.ar    1  UNL1        0.0808
      6 C         -61.6654  -45.1597  -22.5231 C.ar    1  UNL1        0.0080
      7 C         -62.0541  -44.0428  -21.7793 C.ar    1  UNL1        0.0148
      8 C         -62.2120  -42.7946  -22.4005 C.ar    1  UNL1        0.0502
      9 C         -61.9755  -42.6824  -23.7781 C.ar    1  UNL1        0.0443
     10 C         -61.5860  -43.7974  -24.5268 C.ar    1  UNL1        0.1457
     11 F         -61.3880  -43.6505  -25.8617 F       1  UNL1       -0.2040
     12 N         -62.6156  -41.6405  -21.6393 N.pl3   1  UNL1       -0.3040
     13 C         -61.6030  -40.7732  -21.0274 C.3     1  UNL1        0.1123
     14 C         -62.0293  -39.3083  -21.1336 C.3     1  UNL1        0.1136
     15 N         -63.4241  -39.1505  -20.6976 N.pl3   1  UNL1       -0.2897
     16 C         -64.4360  -40.0323  -21.2949 C.3     1  UNL1        0.1136
     17 C         -64.0022  -41.4942  -21.1844 C.3     1  UNL1        0.1123
     18 C         -63.8437  -37.9964  -19.9416 C.ar    1  UNL1        0.1318
     19 C         -65.0139  -38.0179  -19.1652 C.ar    1  UNL1        0.0343
     20 C         -65.3849  -36.8812  -18.4455 C.ar    1  UNL1        0.0083
     21 C         -64.6030  -35.7182  -18.5081 C.ar    1  UNL1        0.0906
     22 C         -63.4233  -35.7488  -19.2677 C.ar    1  UNL1        0.1041
     23 N         -63.0815  -36.8679  -19.9592 N.ar    1  UNL1       -0.2292
     24 C         -64.9652  -34.5014  -17.6954 C.3     1  UNL1        0.4200
     25 F         -64.9559  -34.7974  -16.3434 F       1  UNL1       -0.1658
     26 F         -64.0469  -33.4984  -17.9436 F       1  UNL1       -0.1658
     27 F         -66.2295  -34.0490  -18.0311 F       1  UNL1       -0.1658
     28 C         -61.4370  -47.8929  -26.5744 C.3     1  UNL1        0.1536
     29 C         -61.7871  -49.1078  -25.7486 C.2     1  UNL1        0.2443
     30 O         -62.8641  -49.7179  -25.9899 O.2     1  UNL1       -0.2730
     31 N         -60.9475  -49.5210  -24.6561 N.am    1  UNL1       -0.2825
     32 H         -60.1831  -48.8776  -24.3512 H       1  UNL1        0.1549
     33 C         -61.2104  -50.6732  -23.8387 C.ar    1  UNL1        0.0535
     34 C         -60.1418  -51.4698  -23.4057 C.ar    1  UNL1        0.0353
     35 C         -60.3944  -52.5982  -22.6220 C.ar    1  UNL1        0.1002
     36 N         -61.6716  -52.9306  -22.2972 N.ar    1  UNL1       -0.2422
     37 C         -62.7297  -52.1892  -22.7198 C.ar    1  UNL1        0.1002
     38 C         -62.5209  -51.0515  -23.5034 C.ar    1  UNL1        0.0353
     39 C         -62.1645  -47.8964  -27.9314 C.3     1  UNL1        0.0592
     40 C         -62.0587  -46.5644  -28.6202 C.ar    1  UNL1        0.0254
     41 C         -60.8880  -45.9173  -29.0005 C.ar    1  UNL1        0.1966
     42 F         -59.6317  -46.3581  -28.7442 F       1  UNL1       -0.1855
     43 N         -61.1573  -44.7932  -29.7005 N.ar    1  UNL1       -0.3307
     44 C         -62.4982  -44.7275  -29.7773 C.ar    1  UNL1        0.0580
     45 C         -63.2587  -43.7584  -30.4304 C.ar    1  UNL1        0.0170
     46 C         -64.6585  -43.8970  -30.4115 C.ar    1  UNL1        0.0015
     47 C         -65.2608  -44.9886  -29.7478 C.ar    1  UNL1        0.0001
     48 C         -64.4694  -45.9512  -29.0963 C.ar    1  UNL1        0.0012
     49 C         -63.0836  -45.7901  -29.1328 C.ar    1  UNL1        0.0153
     50 H         -60.4654  -44.1291  -30.1137 H       1  UNL1        0.1680
@<TRIPOS>BOND
     1     1     2    2
     2     2     3   am
     3     3    28    1
     4    28    39    1
     5    39    40    1
     6    40    41   ar
     7    41    42    1
     8    41    43   ar
     9    43    44   ar
    10    44    45   ar
    11    45    46   ar
    12    46    47   ar
    13    47    48   ar
    14    48    49   ar
    15    28    29    1
    16    29    30    2
    17    29    31   am
    18    31    33    1
    19    33    34   ar
    20    34    35   ar
    21    35    36   ar
    22    36    37   ar
    23    37    38   ar
    24     2     5    1
    25     5     6   ar
    26     6     7   ar
    27     7     8   ar
    28     8    12    1
    29    12    13    1
    30    13    14    1
    31    14    15    1
    32    15    18    1
    33    18    19   ar
    34    19    20   ar
    35    20    21   ar
    36    21    24    1
    37    24    25    1
    38    24    26    1
    39    24    27    1
    40    21    22   ar
    41    22    23   ar
    42    15    16    1
    43    16    17    1
    44     8     9   ar
    45     9    10   ar
    46    10    11    1
    47    49    40   ar
    48    38    33   ar
    49    10     5   ar
    50    49    44   ar
    51    17    12    1
    52    23    18   ar
    53     3     4    1
    54    43    50    1
    55    31    32    1
@<TRIPOS>MOLECULE
*****
 50 55 0 0 0
SMALL
GASTEIGER

@<TRIPOS>ATOM
      1 O         -61.3318  -42.6418  -19.5697 O.2     1  UNL1       -0.2701
      2 C         -61.9739  -41.9840  -20.4338 C.2     1  UNL1        0.2483
      3 N         -62.9749  -41.0420  -20.0129 N.am    1  UNL1       -0.2945
      4 H         -63.6661  -40.7055  -20.7201 H       1  UNL1        0.1501
      5 C         -61.6921  -42.1983  -21.8743 C.ar    1  UNL1        0.0808
      6 C         -60.4322  -42.6652  -22.2900 C.ar    1  UNL1        0.0080
      7 C         -60.1635  -42.8763  -23.6447 C.ar    1  UNL1        0.0148
      8 C         -61.1499  -42.6313  -24.6120 C.ar    1  UNL1        0.0502
      9 C         -62.4093  -42.1708  -24.2018 C.ar    1  UNL1        0.0443
     10 C         -62.6832  -41.9582  -22.8471 C.ar    1  UNL1        0.1457
     11 F         -63.9080  -41.4914  -22.4942 F       1  UNL1       -0.2040
     12 N         -60.8774  -42.8441  -26.0101 N.pl3   1  UNL1       -0.3040
     13 C         -60.8083  -44.2080  -26.5457 C.3     1  UNL1        0.1123
     14 C         -61.4436  -44.2615  -27.9359 C.3     1  UNL1        0.1136
     15 N         -60.9313  -43.1673  -28.7729 N.pl3   1  UNL1       -0.2897
     16 C         -60.9814  -41.8034  -28.2293 C.3     1  UNL1        0.1136
     17 C         -60.3444  -41.7587  -26.8401 C.3     1  UNL1        0.1123
     18 C         -60.6614  -43.3642  -30.1758 C.ar    1  UNL1        0.1318
     19 C         -59.6428  -44.2287  -30.6091 C.ar    1  UNL1        0.0343
     20 C         -59.4144  -44.3946  -31.9758 C.ar    1  UNL1        0.0083
     21 C         -60.1864  -43.6912  -32.9123 C.ar    1  UNL1        0.0906
     22 C         -61.2167  -42.8640  -32.4393 C.ar    1  UNL1        0.1041
     23 N         -61.4215  -42.7191  -31.1035 N.ar    1  UNL1       -0.2292
     24 C         -59.9836  -43.9007  -34.3913 C.3     1  UNL1        0.4200
     25 F         -59.2998  -45.0807  -34.6275 F       1  UNL1       -0.1658
     26 F         -61.2154  -43.9608  -35.0156 F       1  UNL1       -0.1658
     27 F         -59.2518  -42.8596  -34.9357 F       1  UNL1       -0.1658
     28 C         -63.2133  -40.7328  -18.5998 C.3     1  UNL1        0.1536
     29 C         -63.3785  -39.2431  -18.4155 C.2     1  UNL1        0.2443
     30 O         -62.8936  -38.6998  -17.3858 O.2     1  UNL1       -0.2730
     31 N         -64.1391  -38.4658  -19.3570 N.am    1  UNL1       -0.2825
     32 H         -64.6997  -38.9743  -20.0770 H       1  UNL1        0.1549
     33 C         -64.3250  -37.0447  -19.2531 C.ar    1  UNL1        0.0535
     34 C         -63.2165  -36.2194  -19.0202 C.ar    1  UNL1        0.0353
     35 C         -63.3950  -34.8388  -18.9054 C.ar    1  UNL1        0.1002
     36 N         -64.6401  -34.3020  -19.0013 N.ar    1  UNL1       -0.2422
     37 C         -65.7365  -35.0790  -19.2062 C.ar    1  UNL1        0.1002
     38 C         -65.6018  -36.4642  -19.3292 C.ar    1  UNL1        0.0353
     39 C         -64.4422  -41.5102  -18.0934 C.3     1  UNL1        0.0592
     40 C         -65.2068  -42.1367  -19.2259 C.ar    1  UNL1        0.0254
     41 C         -65.4770  -43.4901  -19.3965 C.ar    1  UNL1        0.1966
     42 F         -65.0272  -44.4851  -18.5930 F       1  UNL1       -0.1855
     43 N         -66.2866  -43.6958  -20.4588 N.ar    1  UNL1       -0.3307
     44 C         -66.5427  -42.4745  -20.9602 C.ar    1  UNL1        0.0580
     45 C         -67.3588  -42.1636  -22.0471 C.ar    1  UNL1        0.0170
     46 C         -67.5131  -40.8075  -22.3878 C.ar    1  UNL1        0.0015
     47 C         -66.8558  -39.8032  -21.6433 C.ar    1  UNL1        0.0001
     48 C         -66.0377  -40.1453  -20.5520 C.ar    1  UNL1        0.0012
     49 C         -65.9043  -41.4979  -20.2350 C.ar    1  UNL1        0.0153
     50 H         -66.6533  -44.6114  -20.8018 H       1  UNL1        0.1680
@<TRIPOS>BOND
     1     1     2    2
     2     2     3   am
     3     3    28    1
     4    28    39    1
     5    39    40    1
     6    40    41   ar
     7    41    42    1
     8    41    43   ar
     9    43    44   ar
    10    44    45   ar
    11    45    46   ar
    12    46    47   ar
    13    47    48   ar
    14    48    49   ar
    15    28    29    1
    16    29    30    2
    17    29    31   am
    18    31    33    1
    19    33    34   ar
    20    34    35   ar
    21    35    36   ar
    22    36    37   ar
    23    37    38   ar
    24     2     5    1
    25     5     6   ar
    26     6     7   ar
    27     7     8   ar
    28     8    12    1
    29    12    13    1
    30    13    14    1
    31    14    15    1
    32    15    18    1
    33    18    19   ar
    34    19    20   ar
    35    20    21   ar
    36    21    24    1
    37    24    25    1
    38    24    26    1
    39    24    27    1
    40    21    22   ar
    41    22    23   ar
    42    15    16    1
    43    16    17    1
    44     8     9   ar
    45     9    10   ar
    46    10    11    1
    47    49    40   ar
    48    38    33   ar
    49    10     5   ar
    50    49    44   ar
    51    17    12    1
    52    23    18   ar
    53     3     4    1
    54    43    50    1
    55    31    32    1
@<TRIPOS>MOLECULE
*****
 50 55 0 0 0
SMALL
GASTEIGER

@<TRIPOS>ATOM
      1 O         -59.9534  -46.8367  -24.3567 O.2     1  UNL1       -0.2701
      2 C         -60.9932  -46.2035  -24.6875 C.2     1  UNL1        0.2483
      3 N         -61.7650  -46.6423  -25.8182 N.am    1  UNL1       -0.2945
      4 H         -62.4554  -45.9776  -26.2339 H       1  UNL1        0.1501
      5 C         -61.4005  -45.0083  -23.9090 C.ar    1  UNL1        0.0808
      6 C         -61.5920  -43.7725  -24.5527 C.ar    1  UNL1        0.0080
      7 C         -61.9830  -42.6452  -23.8260 C.ar    1  UNL1        0.0148
      8 C         -62.1970  -42.7303  -22.4419 C.ar    1  UNL1        0.0502
      9 C         -62.0124  -43.9615  -21.7967 C.ar    1  UNL1        0.0443
     10 C         -61.6213  -45.0928  -22.5197 C.ar    1  UNL1        0.1457
     11 F         -61.4328  -46.2603  -21.8534 F       1  UNL1       -0.2040
     12 N         -62.5970  -41.5707  -21.6872 N.pl3   1  UNL1       -0.3040
     13 C         -61.5830  -40.7206  -21.0540 C.3     1  UNL1        0.1123
     14 C         -61.9834  -39.2489  -21.1665 C.3     1  UNL1        0.1136
     15 N         -63.3839  -39.0691  -20.7580 N.pl3   1  UNL1       -0.2897
     16 C         -64.3977  -39.9338  -21.3766 C.3     1  UNL1        0.1136
     17 C         -63.9899  -41.4026  -21.2597 C.3     1  UNL1        0.1123
     18 C         -63.7998  -37.9092  -20.0089 C.ar    1  UNL1        0.1318
     19 C         -63.0311  -36.7338  -19.9966 C.ar    1  UNL1        0.0343
     20 C         -63.4689  -35.6313  -19.2613 C.ar    1  UNL1        0.0083
     21 C         -64.6615  -35.7002  -18.5258 C.ar    1  UNL1        0.0906
     22 C         -65.4176  -36.8807  -18.5922 C.ar    1  UNL1        0.1041
     23 N         -64.9718  -37.9411  -19.3161 N.ar    1  UNL1       -0.2292
     24 C         -65.1710  -34.5000  -17.7694 C.3     1  UNL1        0.4200
     25 F         -64.3577  -33.4022  -17.9916 F       1  UNL1       -0.1658
     26 F         -66.4529  -34.2047  -18.1942 F       1  UNL1       -0.1658
     27 F         -65.1936  -34.7542  -16.4090 F       1  UNL1       -0.1658
     28 C         -61.4492  -47.8719  -26.5512 C.3     1  UNL1        0.1536
     29 C         -61.7750  -49.0789  -25.7042 C.2     1  UNL1        0.2443
     30 O         -62.8849  -49.6553  -25.8673 O.2     1  UNL1       -0.2730
     31 N         -60.8710  -49.5216  -24.6767 N.am    1  UNL1       -0.2825
     32 H         -60.0671  -48.9029  -24.4273 H       1  UNL1        0.1549
     33 C         -61.1085  -50.6686  -23.8443 C.ar    1  UNL1        0.0535
     34 C         -62.4068  -50.9317  -23.3869 C.ar    1  UNL1        0.0353
     35 C         -62.6394  -52.0382  -22.5667 C.ar    1  UNL1        0.1002
     36 N         -61.6080  -52.8441  -22.2003 N.ar    1  UNL1       -0.2422
     37 C         -60.3350  -52.6024  -22.6111 C.ar    1  UNL1        0.1002
     38 C         -60.0593  -51.5077  -23.4344 C.ar    1  UNL1        0.0353
     39 C         -62.2083  -47.8931  -27.8907 C.3     1  UNL1        0.0592
     40 C         -62.1018  -46.5768  -28.6088 C.ar    1  UNL1        0.0254
     41 C         -60.9339  -45.9635  -29.0490 C.ar    1  UNL1        0.1966
     42 F         -59.6781  -46.4278  -28.8358 F       1  UNL1       -0.1855
     43 N         -61.2071  -44.8465  -29.7589 N.ar    1  UNL1       -0.3307
     44 C         -62.5484  -44.7518  -29.7821 C.ar    1  UNL1        0.0580
     45 C         -63.3137  -43.7778  -30.4221 C.ar    1  UNL1        0.0170
     46 C         -64.7142  -43.8843  -30.3433 C.ar    1  UNL1        0.0015
     47 C         -65.3124  -44.9496  -29.6347 C.ar    1  UNL1        0.0001
     48 C         -64.5161  -45.9178  -28.9977 C.ar    1  UNL1        0.0012
     49 C         -63.1298  -45.7889  -29.0938 C.ar    1  UNL1        0.0153
     50 H         -60.5186  -44.2060  -30.2127 H       1  UNL1        0.1680
@<TRIPOS>BOND
     1     1     2    2
     2     2     3   am
     3     3    28    1
     4    28    39    1
     5    39    40    1
     6    40    41   ar
     7    41    42    1
     8    41    43   ar
     9    43    44   ar
    10    44    45   ar
    11    45    46   ar
    12    46    47   ar
    13    47    48   ar
    14    48    49   ar
    15    28    29    1
    16    29    30    2
    17    29    31   am
    18    31    33    1
    19    33    34   ar
    20    34    35   ar
    21    35    36   ar
    22    36    37   ar
    23    37    38   ar
    24     2     5    1
    25     5     6   ar
    26     6     7   ar
    27     7     8   ar
    28     8    12    1
    29    12    13    1
    30    13    14    1
    31    14    15    1
    32    15    18    1
    33    18    19   ar
    34    19    20   ar
    35    20    21   ar
    36    21    24    1
    37    24    25    1
    38    24    26    1
    39    24    27    1
    40    21    22   ar
    41    22    23   ar
    42    15    16    1
    43    16    17    1
    44     8     9   ar
    45     9    10   ar
    46    10    11    1
    47    49    40   ar
    48    38    33   ar
    49    10     5   ar
    50    49    44   ar
    51    17    12    1
    52    23    18   ar
    53     3     4    1
    54    43    50    1
    55    31    32    1
@<TRIPOS>MOLECULE
*****
 50 55 0 0 0
SMALL
GASTEIGER

@<TRIPOS>ATOM
      1 O         -61.7101  -46.0034  -27.2486 O.2     1  UNL1       -0.2701
      2 C         -62.5401  -46.0200  -26.2987 C.2     1  UNL1        0.2483
      3 N         -63.3127  -47.2062  -26.0484 N.am    1  UNL1       -0.2945
      4 H         -64.1620  -47.1254  -25.4455 H       1  UNL1        0.1501
      5 C         -62.7134  -44.8105  -25.4575 C.ar    1  UNL1        0.0808
      6 C         -62.5134  -44.8777  -24.0669 C.ar    1  UNL1        0.0080
      7 C         -62.6676  -43.7402  -23.2705 C.ar    1  UNL1        0.0148
      8 C         -63.0188  -42.5104  -23.8474 C.ar    1  UNL1        0.0502
      9 C         -63.2141  -42.4374  -25.2341 C.ar    1  UNL1        0.0443
     10 C         -63.0607  -43.5731  -26.0355 C.ar    1  UNL1        0.1457
     11 F         -63.2799  -43.4642  -27.3707 F       1  UNL1       -0.2040
     12 N         -63.1822  -41.3353  -23.0309 N.pl3   1  UNL1       -0.3040
     13 C         -64.3344  -40.4513  -23.2381 C.3     1  UNL1        0.1123
     14 C         -64.8565  -39.9415  -21.8940 C.3     1  UNL1        0.1136
     15 N         -63.7452  -39.4415  -21.0720 N.pl3   1  UNL1       -0.2897
     16 C         -62.5820  -40.3181  -20.8806 C.3     1  UNL1        0.1136
     17 C         -62.0665  -40.8230  -22.2286 C.3     1  UNL1        0.1123
     18 C         -63.8973  -38.2707  -20.2439 C.ar    1  UNL1        0.1318
     19 C         -64.9348  -38.1722  -19.3023 C.ar    1  UNL1        0.0343
     20 C         -65.0468  -37.0236  -18.5176 C.ar    1  UNL1        0.0083
     21 C         -64.1388  -35.9664  -18.6777 C.ar    1  UNL1        0.0906
     22 C         -63.0962  -36.1185  -19.6049 C.ar    1  UNL1        0.1041
     23 N         -63.0065  -37.2470  -20.3572 N.ar    1  UNL1       -0.2292
     24 C         -64.2182  -34.7427  -17.8011 C.3     1  UNL1        0.4200
     25 F         -65.2471  -33.9135  -18.2130 F       1  UNL1       -0.1658
     26 F         -64.4489  -35.1325  -16.4951 F       1  UNL1       -0.1658
     27 F         -63.0356  -34.0256  -17.8559 F       1  UNL1       -0.1658
     28 C         -63.1007  -48.4499  -26.7950 C.3     1  UNL1        0.1536
     29 C         -63.5883  -48.2916  -28.2155 C.2     1  UNL1        0.2443
     30 O         -63.4908  -49.2702  -29.0050 O.2     1  UNL1       -0.2730
     31 N         -64.0865  -47.0266  -28.6851 N.am    1  UNL1       -0.2825
     32 H         -63.9581  -46.1889  -28.0743 H       1  UNL1        0.1549
     33 C         -64.5798  -46.8075  -30.0168 C.ar    1  UNL1        0.0535
     34 C         -64.5873  -45.5092  -30.5445 C.ar    1  UNL1        0.0353
     35 C         -65.0783  -45.2902  -31.8337 C.ar    1  UNL1        0.1002
     36 N         -65.5627  -46.3290  -32.5643 N.ar    1  UNL1       -0.2422
     37 C         -65.5877  -47.5955  -32.0715 C.ar    1  UNL1        0.1002
     38 C         -65.1038  -47.8585  -30.7874 C.ar    1  UNL1        0.0353
     39 C         -61.6136  -48.8454  -26.7430 C.3     1  UNL1        0.0592
     40 C         -61.1132  -48.9347  -25.3282 C.ar    1  UNL1        0.0254
     41 C         -60.3304  -47.9967  -24.6639 C.ar    1  UNL1        0.1966
     42 F         -59.8264  -46.8659  -25.2165 F       1  UNL1       -0.1855
     43 N         -60.1586  -48.3354  -23.3670 N.ar    1  UNL1       -0.3307
     44 C         -60.8398  -49.4827  -23.1995 C.ar    1  UNL1        0.0580
     45 C         -60.9878  -50.2107  -22.0196 C.ar    1  UNL1        0.0170
     46 C         -61.7731  -51.3772  -22.0600 C.ar    1  UNL1        0.0015
     47 C         -62.3863  -51.7860  -23.2648 C.ar    1  UNL1        0.0001
     48 C         -62.2194  -51.0329  -24.4406 C.ar    1  UNL1        0.0012
     49 C         -61.4371  -49.8793  -24.3714 C.ar    1  UNL1        0.0153
     50 H         -59.6265  -47.8028  -22.6434 H       1  UNL1        0.1680
@<TRIPOS>BOND
     1     1     2    2
     2     2     3   am
     3     3    28    1
     4    28    39    1
     5    39    40    1
     6    40    41   ar
     7    41    42    1
     8    41    43   ar
     9    43    44   ar
    10    44    45   ar
    11    45    46   ar
    12    46    47   ar
    13    47    48   ar
    14    48    49   ar
    15    28    29    1
    16    29    30    2
    17    29    31   am
    18    31    33    1
    19    33    34   ar
    20    34    35   ar
    21    35    36   ar
    22    36    37   ar
    23    37    38   ar
    24     2     5    1
    25     5     6   ar
    26     6     7   ar
    27     7     8   ar
    28     8    12    1
    29    12    13    1
    30    13    14    1
    31    14    15    1
    32    15    18    1
    33    18    19   ar
    34    19    20   ar
    35    20    21   ar
    36    21    24    1
    37    24    25    1
    38    24    26    1
    39    24    27    1
    40    21    22   ar
    41    22    23   ar
    42    15    16    1
    43    16    17    1
    44     8     9   ar
    45     9    10   ar
    46    10    11    1
    47    49    40   ar
    48    38    33   ar
    49    10     5   ar
    50    49    44   ar
    51    17    12    1
    52    23    18   ar
    53     3     4    1
    54    43    50    1
    55    31    32    1
@<TRIPOS>MOLECULE
*****
 50 55 0 0 0
SMALL
GASTEIGER

@<TRIPOS>ATOM
      1 O         -61.1284  -46.3522  -26.2527 O.2     1  UNL1       -0.2701
      2 C         -62.1969  -45.6904  -26.3625 C.2     1  UNL1        0.2483
      3 N         -63.1842  -46.0868  -27.3293 N.am    1  UNL1       -0.2945
      4 H         -63.9258  -45.3987  -27.5898 H       1  UNL1        0.1501
      5 C         -62.4158  -44.5058  -25.4968 C.ar    1  UNL1        0.0808
      6 C         -62.0799  -44.5516  -24.1319 C.ar    1  UNL1        0.0080
      7 C         -62.2766  -43.4366  -23.3133 C.ar    1  UNL1        0.0148
      8 C         -62.8073  -42.2505  -23.8426 C.ar    1  UNL1        0.0502
      9 C         -63.1388  -42.1985  -25.2041 C.ar    1  UNL1        0.0443
     10 C         -62.9435  -43.3117  -26.0276 C.ar    1  UNL1        0.1457
     11 F         -63.2976  -43.2265  -27.3353 F       1  UNL1       -0.2040
     12 N         -63.0153  -41.0991  -23.0028 N.pl3   1  UNL1       -0.3040
     13 C         -64.1891  -40.2433  -23.2070 C.3     1  UNL1        0.1123
     14 C         -64.7439  -39.7787  -21.8597 C.3     1  UNL1        0.1136
     15 N         -63.6587  -39.2664  -21.0109 N.pl3   1  UNL1       -0.2897
     16 C         -62.4739  -40.1141  -20.8222 C.3     1  UNL1        0.1136
     17 C         -61.9257  -40.5739  -22.1733 C.3     1  UNL1        0.1123
     18 C         -63.8554  -38.1192  -20.1595 C.ar    1  UNL1        0.1318
     19 C         -62.9707  -37.0287  -20.1878 C.ar    1  UNL1        0.0343
     20 C         -63.1968  -35.9355  -19.3501 C.ar    1  UNL1        0.0083
     21 C         -64.2919  -35.9311  -18.4734 C.ar    1  UNL1        0.0906
     22 C         -65.1713  -37.0246  -18.5005 C.ar    1  UNL1        0.1041
     23 N         -64.9314  -38.0774  -19.3259 N.ar    1  UNL1       -0.2292
     24 C         -64.5758  -34.7351  -17.6009 C.3     1  UNL1        0.4200
     25 F         -65.6912  -34.0532  -18.0557 F       1  UNL1       -0.1658
     26 F         -64.8046  -35.1605  -16.3057 F       1  UNL1       -0.1658
     27 F         -63.5022  -33.8615  -17.6061 F       1  UNL1       -0.1658
     28 C         -63.0470  -47.3050  -28.1332 C.3     1  UNL1        0.1536
     29 C         -63.4110  -48.5154  -27.3069 C.2     1  UNL1        0.2443
     30 O         -64.3422  -49.2668  -27.7055 O.2     1  UNL1       -0.2730
     31 N         -62.7611  -48.7693  -26.0490 N.am    1  UNL1       -0.2825
     32 H         -62.1506  -48.0215  -25.6499 H       1  UNL1        0.1549
     33 C         -63.0456  -49.9071  -25.2187 C.ar    1  UNL1        0.0535
     34 C         -62.3516  -50.0712  -24.0123 C.ar    1  UNL1        0.0353
     35 C         -62.6159  -51.1828  -23.2089 C.ar    1  UNL1        0.1002
     36 N         -63.5285  -52.1089  -23.6051 N.ar    1  UNL1       -0.2422
     37 C         -64.2021  -51.9875  -24.7795 C.ar    1  UNL1        0.1002
     38 C         -63.9695  -50.8895  -25.6116 C.ar    1  UNL1        0.0353
     39 C         -63.9151  -47.1971  -29.4004 C.3     1  UNL1        0.0592
     40 C         -64.1113  -45.7663  -29.8174 C.ar    1  UNL1        0.0254
     41 C         -65.2500  -44.9927  -29.6195 C.ar    1  UNL1        0.1966
     42 F         -66.4097  -45.4332  -29.0726 F       1  UNL1       -0.1855
     43 N         -65.0466  -43.7158  -30.0124 N.ar    1  UNL1       -0.3307
     44 C         -63.7760  -43.6703  -30.4506 C.ar    1  UNL1        0.0580
     45 C         -63.0896  -42.5561  -30.9316 C.ar    1  UNL1        0.0170
     46 C         -61.7461  -42.7247  -31.3133 C.ar    1  UNL1        0.0015
     47 C         -61.1252  -43.9888  -31.2072 C.ar    1  UNL1        0.0001
     48 C         -61.8416  -45.0961  -30.7193 C.ar    1  UNL1        0.0012
     49 C         -63.1720  -44.8997  -30.3460 C.ar    1  UNL1        0.0153
     50 H         -65.7286  -42.9267  -29.9630 H       1  UNL1        0.1680
@<TRIPOS>BOND
     1     1     2    2
     2     2     3   am
     3     3    28    1
     4    28    39    1
     5    39    40    1
     6    40    41   ar
     7    41    42    1
     8    41    43   ar
     9    43    44   ar
    10    44    45   ar
    11    45    46   ar
    12    46    47   ar
    13    47    48   ar
    14    48    49   ar
    15    28    29    1
    16    29    30    2
    17    29    31   am
    18    31    33    1
    19    33    34   ar
    20    34    35   ar
    21    35    36   ar
    22    36    37   ar
    23    37    38   ar
    24     2     5    1
    25     5     6   ar
    26     6     7   ar
    27     7     8   ar
    28     8    12    1
    29    12    13    1
    30    13    14    1
    31    14    15    1
    32    15    18    1
    33    18    19   ar
    34    19    20   ar
    35    20    21   ar
    36    21    24    1
    37    24    25    1
    38    24    26    1
    39    24    27    1
    40    21    22   ar
    41    22    23   ar
    42    15    16    1
    43    16    17    1
    44     8     9   ar
    45     9    10   ar
    46    10    11    1
    47    49    40   ar
    48    38    33   ar
    49    10     5   ar
    50    49    44   ar
    51    17    12    1
    52    23    18   ar
    53     3     4    1
    54    43    50    1
    55    31    32    1
@<TRIPOS>MOLECULE
*****
 50 55 0 0 0
SMALL
GASTEIGER

@<TRIPOS>ATOM
      1 O         -59.4002  -47.1523  -23.9421 O.2     1  UNL1       -0.2701
      2 C         -60.6154  -47.0078  -23.6353 C.2     1  UNL1        0.2483
      3 N         -61.5471  -48.0712  -23.8956 N.am    1  UNL1       -0.2945
      4 H         -62.5677  -47.8490  -23.8827 H       1  UNL1        0.1501
      5 C         -61.0677  -45.7375  -23.0171 C.ar    1  UNL1        0.0808
      6 C         -61.4730  -45.7074  -21.6707 C.ar    1  UNL1        0.0080
      7 C         -61.8927  -44.5125  -21.0808 C.ar    1  UNL1        0.0148
      8 C         -61.9104  -43.3213  -21.8221 C.ar    1  UNL1        0.0502
      9 C         -61.5022  -43.3454  -23.1634 C.ar    1  UNL1        0.0443
     10 C         -61.0811  -44.5389  -23.7582 C.ar    1  UNL1        0.1457
     11 F         -60.7145  -44.5230  -25.0651 F       1  UNL1       -0.2040
     12 N         -62.3452  -42.0873  -21.2201 N.pl3   1  UNL1       -0.3040
     13 C         -61.3566  -41.1247  -20.7220 C.3     1  UNL1        0.1123
     14 C         -61.8143  -39.6963  -21.0207 C.3     1  UNL1        0.1136
     15 N         -63.2155  -39.5148  -20.6155 N.pl3   1  UNL1       -0.2897
     16 C         -64.2031  -40.4899  -21.0973 C.3     1  UNL1        0.1136
     17 C         -63.7381  -41.9146  -20.7947 C.3     1  UNL1        0.1123
     18 C         -63.6661  -38.2818  -20.0188 C.ar    1  UNL1        0.1318
     19 C         -62.9537  -37.0838  -20.1918 C.ar    1  UNL1        0.0343
     20 C         -63.4239  -35.9104  -19.6003 C.ar    1  UNL1        0.0083
     21 C         -64.5925  -35.9287  -18.8245 C.ar    1  UNL1        0.0906
     22 C         -65.2936  -37.1386  -18.7047 C.ar    1  UNL1        0.1041
     23 N         -64.8171  -38.2685  -19.2910 N.ar    1  UNL1       -0.2292
     24 C         -65.1383  -34.6588  -18.2231 C.3     1  UNL1        0.4200
     25 F         -66.3071  -34.2803  -18.8605 F       1  UNL1       -0.1658
     26 F         -65.4030  -34.8671  -16.8824 F       1  UNL1       -0.1658
     27 F         -64.2235  -33.6275  -18.3476 F       1  UNL1       -0.1658
     28 C         -61.1216  -49.3746  -24.4147 C.3     1  UNL1        0.1536
     29 C         -61.8952  -50.4804  -23.7370 C.2     1  UNL1        0.2443
     30 O         -61.6865  -50.7082  -22.5143 O.2     1  UNL1       -0.2730
     31 N         -62.7997  -51.3107  -24.4863 N.am    1  UNL1       -0.2825
     32 H         -62.7910  -51.2340  -25.5281 H       1  UNL1        0.1549
     33 C         -63.5784  -52.3695  -23.9055 C.ar    1  UNL1        0.0535
     34 C         -64.9133  -52.5387  -24.2974 C.ar    1  UNL1        0.0353
     35 C         -65.6774  -53.5585  -23.7253 C.ar    1  UNL1        0.1002
     36 N         -65.1331  -54.3701  -22.7806 N.ar    1  UNL1       -0.2422
     37 C         -63.8478  -54.2172  -22.3654 C.ar    1  UNL1        0.1002
     38 C         -63.0483  -53.2112  -22.9137 C.ar    1  UNL1        0.0353
     39 C         -61.2950  -49.4114  -25.9442 C.3     1  UNL1        0.0592
     40 C         -62.0757  -48.2271  -26.4420 C.ar    1  UNL1        0.0254
     41 C         -63.4166  -47.9536  -26.1949 C.ar    1  UNL1        0.1966
     42 F         -64.2668  -48.7598  -25.5127 F       1  UNL1       -0.1855
     43 N         -63.7689  -46.7486  -26.6949 N.ar    1  UNL1       -0.3307
     44 C         -62.6519  -46.2473  -27.2512 C.ar    1  UNL1        0.0580
     45 C         -62.5024  -45.0078  -27.8720 C.ar    1  UNL1        0.0170
     46 C         -61.2292  -44.6672  -28.3638 C.ar    1  UNL1        0.0015
     47 C         -60.1456  -45.5625  -28.2261 C.ar    1  UNL1        0.0001
     48 C         -60.3250  -46.8069  -27.5962 C.ar    1  UNL1        0.0012
     49 C         -61.5979  -47.1179  -27.1159 C.ar    1  UNL1        0.0153
     50 H         -64.7076  -46.2947  -26.6386 H       1  UNL1        0.1680
@<TRIPOS>BOND
     1     1     2    2
     2     2     3   am
     3     3    28    1
     4    28    39    1
     5    39    40    1
     6    40    41   ar
     7    41    42    1
     8    41    43   ar
     9    43    44   ar
    10    44    45   ar
    11    45    46   ar
    12    46    47   ar
    13    47    48   ar
    14    48    49   ar
    15    28    29    1
    16    29    30    2
    17    29    31   am
    18    31    33    1
    19    33    34   ar
    20    34    35   ar
    21    35    36   ar
    22    36    37   ar
    23    37    38   ar
    24     2     5    1
    25     5     6   ar
    26     6     7   ar
    27     7     8   ar
    28     8    12    1
    29    12    13    1
    30    13    14    1
    31    14    15    1
    32    15    18    1
    33    18    19   ar
    34    19    20   ar
    35    20    21   ar
    36    21    24    1
    37    24    25    1
    38    24    26    1
    39    24    27    1
    40    21    22   ar
    41    22    23   ar
    42    15    16    1
    43    16    17    1
    44     8     9   ar
    45     9    10   ar
    46    10    11    1
    47    49    40   ar
    48    38    33   ar
    49    10     5   ar
    50    49    44   ar
    51    17    12    1
    52    23    18   ar
    53     3     4    1
    54    43    50    1
    55    31    32    1
