@<TRIPOS>MOLECULE
*****
 34 38 0 0 0
SMALL
GASTEIGER

@<TRIPOS>ATOM
      1 C         -30.5264   50.3202   -7.5905 C.ar    1  UNL1        0.0673
      2 C         -31.3754   50.4279   -6.4705 C.ar    1  UNL1        0.0161
      3 C         -30.9237   51.0672   -5.2925 C.ar    1  UNL1        0.0028
      4 C         -29.6181   51.5900   -5.2197 C.ar    1  UNL1        0.0186
      5 C         -28.8062   51.4550   -6.3440 C.ar    1  UNL1        0.0768
      6 N         -27.5340   51.8399   -6.5038 N.ar    1  UNL1       -0.3373
      7 C         -27.2301   51.4484   -7.7697 C.ar    1  UNL1        0.1406
      8 N         -28.2635   50.8340   -8.4061 N.ar    1  UNL1       -0.2258
      9 C         -29.2414   50.8523   -7.4843 C.ar    1  UNL1        0.1116
     10 H         -26.9329   52.3369   -5.8100 H       1  UNL1        0.1674
     11 N         -30.5983   48.0719  -11.1618 N.3     1  UNL1       -0.2646
     12 C         -30.0743   49.4539  -11.0355 C.3     1  UNL1        0.0941
     13 C         -30.9023   50.3016  -10.0709 C.3     1  UNL1        0.1082
     14 N         -30.9436   49.6304   -8.7731 N.pl3   1  UNL1       -0.3034
     15 C         -31.1615   48.1850   -8.7010 C.3     1  UNL1        0.1082
     16 C         -31.4978   47.5955  -10.0808 C.3     1  UNL1        0.0941
     17 C         -29.5786   47.0902  -11.5892 C.3     1  UNL1        0.1203
     18 C         -26.2616   47.7673   -7.9506 C.3     1  UNL1        0.0716
     19 C         -27.0930   47.1186   -9.0059 C.ar    1  UNL1        0.1172
     20 N         -27.9871   47.7911   -9.7619 N.ar    1  UNL1       -0.2340
     21 C         -28.5299   46.8335  -10.5407 C.ar    1  UNL1        0.0934
     22 C         -27.9795   45.6087  -10.2292 C.ar    1  UNL1        0.0896
     23 N         -27.0742   45.7954   -9.2578 N.ar    1  UNL1       -0.3398
     24 H         -26.4870   45.0667   -8.7944 H       1  UNL1        0.1671
     25 C         -25.9107   51.6512   -8.4083 C.ar    1  UNL1        0.0339
     26 C         -24.7883   50.9646   -7.9262 C.ar    1  UNL1        0.0027
     27 C         -23.5282   51.1670   -8.4938 C.ar    1  UNL1       -0.0042
     28 C         -23.3513   52.0667   -9.5703 C.ar    1  UNL1       -0.0228
     29 C         -24.4927   52.7465  -10.0496 C.ar    1  UNL1       -0.0042
     30 C         -25.7511   52.5423   -9.4784 C.ar    1  UNL1        0.0027
     31 C         -21.9778   52.3294  -10.2216 C.3     1  UNL1        0.0189
     32 C         -21.4467   51.1194  -11.0276 C.3     1  UNL1        0.0044
     33 C         -20.9415   52.6521   -9.1233 C.3     1  UNL1        0.0044
     34 C         -22.0875   53.5264  -11.1912 C.3     1  UNL1        0.0044
@<TRIPOS>BOND
     1    18    19    1
     2    19    20   ar
     3    20    21   ar
     4    21    17    1
     5    17    11    1
     6    11    12    1
     7    12    13    1
     8    13    14    1
     9    14     1    1
    10     1     2   ar
    11     2     3   ar
    12     3     4   ar
    13     4     5   ar
    14     5     6   ar
    15     6     7   ar
    16     7    25    1
    17    25    26   ar
    18    26    27   ar
    19    27    28   ar
    20    28    31    1
    21    31    32    1
    22    31    33    1
    23    31    34    1
    24    28    29   ar
    25    29    30   ar
    26     7     8   ar
    27     8     9   ar
    28    14    15    1
    29    15    16    1
    30    21    22   ar
    31    22    23   ar
    32    23    19   ar
    33    16    11    1
    34     9     1   ar
    35     9     5   ar
    36    30    25   ar
    37     6    10    1
    38    23    24    1
@<TRIPOS>MOLECULE
*****
 34 38 0 0 0
SMALL
GASTEIGER

@<TRIPOS>ATOM
      1 C         -19.9015   53.5127   -9.7990 C.ar    1  UNL1        0.0673
      2 C         -18.6467   53.2766  -10.3961 C.ar    1  UNL1        0.0161
      3 C         -18.4972   52.2523  -11.3598 C.ar    1  UNL1        0.0028
      4 C         -19.5949   51.4481  -11.7230 C.ar    1  UNL1        0.0186
      5 C         -20.8158   51.7061  -11.1033 C.ar    1  UNL1        0.0768
      6 N         -21.9809   51.0653  -11.2591 N.ar    1  UNL1       -0.3373
      7 C         -22.8243   51.7079  -10.4082 C.ar    1  UNL1        0.1406
      8 N         -22.2305   52.7249   -9.7274 N.ar    1  UNL1       -0.2258
      9 C         -20.9671   52.6996  -10.1851 C.ar    1  UNL1        0.1116
     10 H         -22.1811   50.2664  -11.9004 H       1  UNL1        0.1674
     11 N         -19.2282   56.6112   -7.0133 N.3     1  UNL1       -0.2646
     12 C         -18.7417   55.2172   -6.8710 C.3     1  UNL1        0.0941
     13 C         -19.7523   54.1951   -7.3894 C.3     1  UNL1        0.1082
     14 N         -20.0633   54.5076   -8.7830 N.pl3   1  UNL1       -0.3034
     15 C         -20.2917   55.8945   -9.1906 C.3     1  UNL1        0.1082
     16 C         -20.3334   56.8395   -7.9783 C.3     1  UNL1        0.0941
     17 C         -18.1421   57.6126   -7.0756 C.3     1  UNL1        0.1203
     18 C         -20.1597   61.5642   -4.8361 C.3     1  UNL1        0.0716
     19 C         -19.4969   60.6993   -5.8552 C.ar    1  UNL1        0.1172
     20 N         -19.2429   59.3875   -5.6609 N.ar    1  UNL1       -0.2340
     21 C         -18.6138   59.0136   -6.7934 C.ar    1  UNL1        0.0934
     22 C         -18.4774   60.0982   -7.6332 C.ar    1  UNL1        0.0896
     23 N         -19.0354   61.1600   -7.0339 N.ar    1  UNL1       -0.3398
     24 H         -19.0923   62.1351   -7.4033 H       1  UNL1        0.1671
     25 C         -24.2469   51.3478  -10.2183 C.ar    1  UNL1        0.0339
     26 C         -25.0795   51.1790  -11.3327 C.ar    1  UNL1        0.0027
     27 C         -26.4327   50.8713  -11.1740 C.ar    1  UNL1       -0.0042
     28 C         -26.9980   50.7193   -9.8868 C.ar    1  UNL1       -0.0228
     29 C         -26.1452   50.8861   -8.7734 C.ar    1  UNL1       -0.0042
     30 C         -24.7925   51.1949   -8.9363 C.ar    1  UNL1        0.0027
     31 C         -28.4883   50.3899   -9.6631 C.3     1  UNL1        0.0189
     32 C         -29.0033   50.8238   -8.2694 C.3     1  UNL1        0.0044
     33 C         -28.7021   48.8658   -9.7879 C.3     1  UNL1        0.0044
     34 C         -29.3420   51.1166  -10.7251 C.3     1  UNL1        0.0044
@<TRIPOS>BOND
     1    18    19    1
     2    19    20   ar
     3    20    21   ar
     4    21    17    1
     5    17    11    1
     6    11    12    1
     7    12    13    1
     8    13    14    1
     9    14     1    1
    10     1     2   ar
    11     2     3   ar
    12     3     4   ar
    13     4     5   ar
    14     5     6   ar
    15     6     7   ar
    16     7    25    1
    17    25    26   ar
    18    26    27   ar
    19    27    28   ar
    20    28    31    1
    21    31    32    1
    22    31    33    1
    23    31    34    1
    24    28    29   ar
    25    29    30   ar
    26     7     8   ar
    27     8     9   ar
    28    14    15    1
    29    15    16    1
    30    21    22   ar
    31    22    23   ar
    32    23    19   ar
    33    16    11    1
    34     9     1   ar
    35     9     5   ar
    36    30    25   ar
    37     6    10    1
    38    23    24    1
@<TRIPOS>MOLECULE
*****
 34 38 0 0 0
SMALL
GASTEIGER

@<TRIPOS>ATOM
      1 C         -29.3234   49.1243   -9.6533 C.ar    1  UNL1        0.0673
      2 C         -30.6357   49.4344  -10.0633 C.ar    1  UNL1        0.0161
      3 C         -30.8869   50.5937  -10.8336 C.ar    1  UNL1        0.0028
      4 C         -29.8327   51.4580  -11.1872 C.ar    1  UNL1        0.0186
      5 C         -28.5515   51.1224  -10.7546 C.ar    1  UNL1        0.0768
      6 N         -27.4079   51.7941  -10.9374 N.ar    1  UNL1       -0.3373
      7 C         -26.4780   51.0381  -10.2957 C.ar    1  UNL1        0.1406
      8 N         -26.9970   49.9205   -9.7194 N.ar    1  UNL1       -0.2258
      9 C         -28.3035   50.0007  -10.0244 C.ar    1  UNL1        0.1116
     10 H         -27.2767   52.6852  -11.4651 H       1  UNL1        0.1674
     11 N         -27.6709   46.4716   -6.8166 N.3     1  UNL1       -0.2646
     12 C         -27.0308   46.8548   -8.0987 C.3     1  UNL1        0.0941
     13 C         -28.0460   47.0069   -9.2305 C.3     1  UNL1        0.1082
     14 N         -29.0540   47.9862   -8.8285 N.pl3   1  UNL1       -0.3034
     15 C         -29.6077   47.9556   -7.4742 C.3     1  UNL1        0.1082
     16 C         -29.1304   46.7174   -6.6971 C.3     1  UNL1        0.0941
     17 C         -26.8841   46.8559   -5.6253 C.3     1  UNL1        0.1203
     18 C         -27.0192   51.7883   -6.2197 C.3     1  UNL1        0.0716
     19 C         -26.9603   50.4399   -5.5841 C.ar    1  UNL1        0.1172
     20 N         -26.9468   49.2886   -6.2895 N.ar    1  UNL1       -0.2340
     21 C         -26.9294   48.3327   -5.3387 C.ar    1  UNL1        0.0934
     22 C         -26.9574   48.9143   -4.0893 C.ar    1  UNL1        0.0896
     23 N         -26.9789   50.2452   -4.2513 N.ar    1  UNL1       -0.3398
     24 H         -27.0095   50.9714   -3.5016 H       1  UNL1        0.1671
     25 C         -25.0413   51.3823  -10.2114 C.ar    1  UNL1        0.0339
     26 C         -24.3875   51.3535   -8.9723 C.ar    1  UNL1        0.0027
     27 C         -23.0402   51.7067   -8.8665 C.ar    1  UNL1       -0.0042
     28 C         -22.2997   52.0996  -10.0052 C.ar    1  UNL1       -0.0228
     29 C         -22.9703   52.1175  -11.2481 C.ar    1  UNL1       -0.0042
     30 C         -24.3182   51.7648  -11.3496 C.ar    1  UNL1        0.0027
     31 C         -20.8137   52.5074   -9.9347 C.3     1  UNL1        0.0189
     32 C         -20.2286   52.4245   -8.5041 C.3     1  UNL1        0.0044
     33 C         -20.6570   53.9645  -10.4212 C.3     1  UNL1        0.0044
     34 C         -19.9791   51.5726  -10.8371 C.3     1  UNL1        0.0044
@<TRIPOS>BOND
     1    18    19    1
     2    19    20   ar
     3    20    21   ar
     4    21    17    1
     5    17    11    1
     6    11    12    1
     7    12    13    1
     8    13    14    1
     9    14     1    1
    10     1     2   ar
    11     2     3   ar
    12     3     4   ar
    13     4     5   ar
    14     5     6   ar
    15     6     7   ar
    16     7    25    1
    17    25    26   ar
    18    26    27   ar
    19    27    28   ar
    20    28    31    1
    21    31    32    1
    22    31    33    1
    23    31    34    1
    24    28    29   ar
    25    29    30   ar
    26     7     8   ar
    27     8     9   ar
    28    14    15    1
    29    15    16    1
    30    21    22   ar
    31    22    23   ar
    32    23    19   ar
    33    16    11    1
    34     9     1   ar
    35     9     5   ar
    36    30    25   ar
    37     6    10    1
    38    23    24    1
@<TRIPOS>MOLECULE
*****
 34 38 0 0 0
SMALL
GASTEIGER

@<TRIPOS>ATOM
      1 C         -29.5075   49.6157   -9.3523 C.ar    1  UNL1        0.0673
      2 C         -30.7689   49.8098   -9.9502 C.ar    1  UNL1        0.0161
      3 C         -30.8994   50.6442  -11.0847 C.ar    1  UNL1        0.0028
      4 C         -29.7748   51.3012  -11.6208 C.ar    1  UNL1        0.0186
      5 C         -28.5474   51.0917  -10.9956 C.ar    1  UNL1        0.0768
      6 N         -27.3566   51.6230  -11.2991 N.ar    1  UNL1       -0.3373
      7 C         -26.5178   51.1014  -10.3650 C.ar    1  UNL1        0.1406
      8 N         -27.1390   50.2652   -9.4903 N.ar    1  UNL1       -0.2258
      9 C         -28.4152   50.2790   -9.9116 C.ar    1  UNL1        0.1116
     10 H         -27.1381   52.2757  -12.0839 H       1  UNL1        0.1674
     11 N         -27.9362   47.5259   -6.0390 N.3     1  UNL1       -0.2646
     12 C         -27.7858   47.1132   -7.4557 C.3     1  UNL1        0.0941
     13 C         -29.0419   47.3967   -8.2783 C.3     1  UNL1        0.1082
     14 N         -29.3613   48.8191   -8.1723 N.pl3   1  UNL1       -0.3034
     15 C         -29.2808   49.4946   -6.8765 C.3     1  UNL1        0.1082
     16 C         -29.0170   48.4978   -5.7358 C.3     1  UNL1        0.0941
     17 C         -26.6503   47.8081   -5.3660 C.3     1  UNL1        0.1203
     18 C         -25.4052   44.1184   -2.2778 C.3     1  UNL1        0.0716
     19 C         -25.9409   45.4105   -2.7968 C.ar    1  UNL1        0.1172
     20 N         -25.9022   45.7578   -4.1010 N.ar    1  UNL1       -0.2340
     21 C         -26.4452   46.9920   -4.1182 C.ar    1  UNL1        0.0934
     22 C         -26.7765   47.3758   -2.8364 C.ar    1  UNL1        0.0896
     23 N         -26.4536   46.3734   -2.0064 N.ar    1  UNL1       -0.3398
     24 H         -26.5709   46.3509   -0.9690 H       1  UNL1        0.1671
     25 C         -25.0722   51.4066  -10.2831 C.ar    1  UNL1        0.0339
     26 C         -24.4411   51.4696   -9.0335 C.ar    1  UNL1        0.0027
     27 C         -23.0849   51.7885   -8.9328 C.ar    1  UNL1       -0.0042
     28 C         -22.3123   52.0534  -10.0871 C.ar    1  UNL1       -0.0228
     29 C         -22.9605   51.9798  -11.3398 C.ar    1  UNL1       -0.0042
     30 C         -24.3173   51.6617  -11.4363 C.ar    1  UNL1        0.0027
     31 C         -20.8151   52.4192  -10.0237 C.3     1  UNL1        0.0189
     32 C         -19.9233   51.4748  -10.8657 C.3     1  UNL1        0.0044
     33 C         -20.3286   52.3416   -8.5603 C.3     1  UNL1        0.0044
     34 C         -20.6119   53.8542  -10.5567 C.3     1  UNL1        0.0044
@<TRIPOS>BOND
     1    18    19    1
     2    19    20   ar
     3    20    21   ar
     4    21    17    1
     5    17    11    1
     6    11    12    1
     7    12    13    1
     8    13    14    1
     9    14     1    1
    10     1     2   ar
    11     2     3   ar
    12     3     4   ar
    13     4     5   ar
    14     5     6   ar
    15     6     7   ar
    16     7    25    1
    17    25    26   ar
    18    26    27   ar
    19    27    28   ar
    20    28    31    1
    21    31    32    1
    22    31    33    1
    23    31    34    1
    24    28    29   ar
    25    29    30   ar
    26     7     8   ar
    27     8     9   ar
    28    14    15    1
    29    15    16    1
    30    21    22   ar
    31    22    23   ar
    32    23    19   ar
    33    16    11    1
    34     9     1   ar
    35     9     5   ar
    36    30    25   ar
    37     6    10    1
    38    23    24    1
@<TRIPOS>MOLECULE
*****
 34 38 0 0 0
SMALL
GASTEIGER

@<TRIPOS>ATOM
      1 C         -28.8271   50.7406   -8.2447 C.ar    1  UNL1        0.0673
      2 C         -30.0997   50.6643   -8.8456 C.ar    1  UNL1        0.0161
      3 C         -30.2427   50.8570  -10.2395 C.ar    1  UNL1        0.0028
      4 C         -29.1192   51.1410  -11.0398 C.ar    1  UNL1        0.0186
      5 C         -27.8801   51.2179  -10.4072 C.ar    1  UNL1        0.0768
      6 N         -26.6869   51.5010  -10.9441 N.ar    1  UNL1       -0.3373
      7 C         -25.8346   51.4643   -9.8855 C.ar    1  UNL1        0.1406
      8 N         -26.4499   51.1694   -8.7088 N.ar    1  UNL1       -0.2258
      9 C         -27.7363   51.0201   -9.0681 C.ar    1  UNL1        0.1116
     10 H         -26.4756   51.6907  -11.9486 H       1  UNL1        0.1674
     11 N         -29.4439   49.8887   -4.1572 N.3     1  UNL1       -0.2646
     12 C         -30.1058   50.9830   -4.9086 C.3     1  UNL1        0.0941
     13 C         -29.1710   51.6351   -5.9261 C.3     1  UNL1        0.1082
     14 N         -28.6664   50.6025   -6.8293 N.pl3   1  UNL1       -0.3034
     15 C         -28.2292   49.3115   -6.2965 C.3     1  UNL1        0.1082
     16 C         -28.2156   49.3109   -4.7588 C.3     1  UNL1        0.0941
     17 C         -30.3888   48.8904   -3.6123 C.3     1  UNL1        0.1203
     18 C         -30.6531   48.8254    1.3503 C.3     1  UNL1        0.0716
     19 C         -30.2164   48.5436   -0.0482 C.ar    1  UNL1        0.1172
     20 N         -30.7908   49.1089   -1.1315 N.ar    1  UNL1       -0.2340
     21 C         -30.1278   48.5572   -2.1680 C.ar    1  UNL1        0.0934
     22 C         -29.1917   47.6597   -1.7007 C.ar    1  UNL1        0.0896
     23 N         -29.2542   47.6544   -0.3613 N.ar    1  UNL1       -0.3398
     24 H         -28.6814   47.0779    0.2945 H       1  UNL1        0.1671
     25 C         -24.3811   51.7256   -9.9793 C.ar    1  UNL1        0.0339
     26 C         -23.5756   51.6109   -8.8384 C.ar    1  UNL1        0.0027
     27 C         -22.2074   51.8851   -8.8988 C.ar    1  UNL1       -0.0042
     28 C         -21.5980   52.2827  -10.1112 C.ar    1  UNL1       -0.0228
     29 C         -22.4213   52.3877  -11.2540 C.ar    1  UNL1       -0.0042
     30 C         -23.7896   52.1137  -11.1893 C.ar    1  UNL1        0.0027
     31 C         -20.0937   52.6053  -10.2230 C.3     1  UNL1        0.0189
     32 C         -19.2947   52.2217   -8.9541 C.3     1  UNL1        0.0044
     33 C         -19.9088   54.1210  -10.4528 C.3     1  UNL1        0.0044
     34 C         -19.4867   51.8283  -11.4116 C.3     1  UNL1        0.0044
@<TRIPOS>BOND
     1    18    19    1
     2    19    20   ar
     3    20    21   ar
     4    21    17    1
     5    17    11    1
     6    11    12    1
     7    12    13    1
     8    13    14    1
     9    14     1    1
    10     1     2   ar
    11     2     3   ar
    12     3     4   ar
    13     4     5   ar
    14     5     6   ar
    15     6     7   ar
    16     7    25    1
    17    25    26   ar
    18    26    27   ar
    19    27    28   ar
    20    28    31    1
    21    31    32    1
    22    31    33    1
    23    31    34    1
    24    28    29   ar
    25    29    30   ar
    26     7     8   ar
    27     8     9   ar
    28    14    15    1
    29    15    16    1
    30    21    22   ar
    31    22    23   ar
    32    23    19   ar
    33    16    11    1
    34     9     1   ar
    35     9     5   ar
    36    30    25   ar
    37     6    10    1
    38    23    24    1
@<TRIPOS>MOLECULE
*****
 34 38 0 0 0
SMALL
GASTEIGER

@<TRIPOS>ATOM
      1 C         -29.5344   50.1002   -7.7419 C.ar    1  UNL1        0.0673
      2 C         -30.3293   50.1028   -6.5779 C.ar    1  UNL1        0.0161
      3 C         -29.8447   50.6881   -5.3850 C.ar    1  UNL1        0.0028
      4 C         -28.5590   51.2614   -5.3422 C.ar    1  UNL1        0.0186
      5 C         -27.8002   51.2302   -6.5104 C.ar    1  UNL1        0.0768
      6 N         -26.5542   51.6786   -6.7065 N.ar    1  UNL1       -0.3373
      7 C         -26.2992   51.3783   -8.0076 C.ar    1  UNL1        0.1406
      8 N         -27.3379   50.7598   -8.6311 N.ar    1  UNL1       -0.2258
      9 C         -28.2679   50.6797   -7.6641 C.ar    1  UNL1        0.1116
     10 H         -25.9392   52.1579   -6.0124 H       1  UNL1        0.1674
     11 N         -30.7791   49.3342  -11.7014 N.3     1  UNL1       -0.2646
     12 C         -31.5828   50.0470  -10.6786 C.3     1  UNL1        0.0941
     13 C         -31.4047   49.4511   -9.2830 C.3     1  UNL1        0.1082
     14 N         -29.9828   49.4663   -8.9441 N.pl3   1  UNL1       -0.3034
     15 C         -28.9869   49.0686   -9.9399 C.3     1  UNL1        0.1082
     16 C         -29.6501   48.5056  -11.2079 C.3     1  UNL1        0.0941
     17 C         -30.4621   50.1610  -12.8855 C.3     1  UNL1        0.1203
     18 C         -31.4923   55.0216  -12.7656 C.3     1  UNL1        0.0716
     19 C         -30.8124   53.7124  -12.5429 C.ar    1  UNL1        0.1172
     20 N         -31.2706   52.5453  -13.0439 N.ar    1  UNL1       -0.2340
     21 C         -30.3946   51.6326  -12.5772 C.ar    1  UNL1        0.0934
     22 C         -29.4470   52.2522  -11.7909 C.ar    1  UNL1        0.0896
     23 N         -29.7177   53.5654  -11.7717 N.ar    1  UNL1       -0.3398
     24 H         -29.1929   54.3101  -11.2616 H       1  UNL1        0.1671
     25 C         -25.0229   51.6764   -8.6947 C.ar    1  UNL1        0.0339
     26 C         -23.8222   51.1544   -8.1953 C.ar    1  UNL1        0.0027
     27 C         -22.6034   51.4507   -8.8100 C.ar    1  UNL1       -0.0042
     28 C         -22.5482   52.2820   -9.9526 C.ar    1  UNL1       -0.0228
     29 C         -23.7670   52.7955  -10.4481 C.ar    1  UNL1       -0.0042
     30 C         -24.9838   52.4977   -9.8298 C.ar    1  UNL1        0.0027
     31 C         -21.2251   52.6444  -10.6581 C.3     1  UNL1        0.0189
     32 C         -20.4606   51.4069  -11.1872 C.3     1  UNL1        0.0044
     33 C         -20.2979   53.3790   -9.6657 C.3     1  UNL1        0.0044
     34 C         -21.5186   53.5644  -11.8632 C.3     1  UNL1        0.0044
@<TRIPOS>BOND
     1    18    19    1
     2    19    20   ar
     3    20    21   ar
     4    21    17    1
     5    17    11    1
     6    11    12    1
     7    12    13    1
     8    13    14    1
     9    14     1    1
    10     1     2   ar
    11     2     3   ar
    12     3     4   ar
    13     4     5   ar
    14     5     6   ar
    15     6     7   ar
    16     7    25    1
    17    25    26   ar
    18    26    27   ar
    19    27    28   ar
    20    28    31    1
    21    31    32    1
    22    31    33    1
    23    31    34    1
    24    28    29   ar
    25    29    30   ar
    26     7     8   ar
    27     8     9   ar
    28    14    15    1
    29    15    16    1
    30    21    22   ar
    31    22    23   ar
    32    23    19   ar
    33    16    11    1
    34     9     1   ar
    35     9     5   ar
    36    30    25   ar
    37     6    10    1
    38    23    24    1
@<TRIPOS>MOLECULE
*****
 34 38 0 0 0
SMALL
GASTEIGER

@<TRIPOS>ATOM
      1 C         -29.5060   50.9595   -9.5191 C.ar    1  UNL1        0.0673
      2 C         -30.4371   50.4832   -8.5742 C.ar    1  UNL1        0.0161
      3 C         -30.0095   50.1038   -7.2806 C.ar    1  UNL1        0.0028
      4 C         -28.6488   50.1837   -6.9264 C.ar    1  UNL1        0.0186
      5 C         -27.7581   50.6500   -7.8912 C.ar    1  UNL1        0.0768
      6 N         -26.4292   50.7851   -7.8020 N.ar    1  UNL1       -0.3373
      7 C         -26.0650   51.2544   -9.0249 C.ar    1  UNL1        0.1406
      8 N         -27.1154   51.4173   -9.8738 N.ar    1  UNL1       -0.2258
      9 C         -28.1673   51.0286   -9.1330 C.ar    1  UNL1        0.1116
     10 H         -25.8285   50.5841   -6.9723 H       1  UNL1        0.1674
     11 N         -30.5657   50.7932  -13.6011 N.3     1  UNL1       -0.2646
     12 C         -29.1929   50.6120  -13.0694 C.3     1  UNL1        0.0941
     13 C         -28.9037   51.5340  -11.8858 C.3     1  UNL1        0.1082
     14 N         -29.9080   51.2978  -10.8503 N.pl3   1  UNL1       -0.3034
     15 C         -31.3176   51.1505  -11.2152 C.3     1  UNL1        0.1082
     16 C         -31.5494   51.4523  -12.7052 C.3     1  UNL1        0.0941
     17 C         -31.0843   49.6066  -14.3149 C.3     1  UNL1        0.1203
     18 C         -28.0596   49.6263  -18.2585 C.3     1  UNL1        0.0716
     19 C         -28.9167   49.1506  -17.1338 C.ar    1  UNL1        0.1172
     20 N         -29.5858   49.9841  -16.3088 N.ar    1  UNL1       -0.2340
     21 C         -30.1869   49.1521  -15.4344 C.ar    1  UNL1        0.0934
     22 C         -29.8552   47.8464  -15.7266 C.ar    1  UNL1        0.0896
     23 N         -29.0512   47.8525  -16.7997 N.ar    1  UNL1       -0.3398
     24 H         -28.6192   47.0257  -17.2688 H       1  UNL1        0.1671
     25 C         -24.6706   51.5553   -9.4181 C.ar    1  UNL1        0.0339
     26 C         -23.6314   51.3824   -8.4942 C.ar    1  UNL1        0.0027
     27 C         -22.3127   51.6921   -8.8352 C.ar    1  UNL1       -0.0042
     28 C         -21.9905   52.1851  -10.1208 C.ar    1  UNL1       -0.0228
     29 C         -23.0474   52.3481  -11.0433 C.ar    1  UNL1       -0.0042
     30 C         -24.3652   52.0384  -10.6980 C.ar    1  UNL1        0.0027
     31 C         -20.5510   52.5497  -10.5384 C.3     1  UNL1        0.0189
     32 C         -20.4959   53.6062  -11.6683 C.3     1  UNL1        0.0044
     33 C         -19.8266   51.2836  -11.0450 C.3     1  UNL1        0.0044
     34 C         -19.7912   53.1238   -9.3227 C.3     1  UNL1        0.0044
@<TRIPOS>BOND
     1    18    19    1
     2    19    20   ar
     3    20    21   ar
     4    21    17    1
     5    17    11    1
     6    11    12    1
     7    12    13    1
     8    13    14    1
     9    14     1    1
    10     1     2   ar
    11     2     3   ar
    12     3     4   ar
    13     4     5   ar
    14     5     6   ar
    15     6     7   ar
    16     7    25    1
    17    25    26   ar
    18    26    27   ar
    19    27    28   ar
    20    28    31    1
    21    31    32    1
    22    31    33    1
    23    31    34    1
    24    28    29   ar
    25    29    30   ar
    26     7     8   ar
    27     8     9   ar
    28    14    15    1
    29    15    16    1
    30    21    22   ar
    31    22    23   ar
    32    23    19   ar
    33    16    11    1
    34     9     1   ar
    35     9     5   ar
    36    30    25   ar
    37     6    10    1
    38    23    24    1
@<TRIPOS>MOLECULE
*****
 34 38 0 0 0
SMALL
GASTEIGER

@<TRIPOS>ATOM
      1 C         -29.2498   49.2613   -9.3787 C.ar    1  UNL1        0.0673
      2 C         -30.5348   49.4420   -9.9289 C.ar    1  UNL1        0.0161
      3 C         -30.7450   50.3970  -10.9508 C.ar    1  UNL1        0.0028
      4 C         -29.6777   51.1873  -11.4197 C.ar    1  UNL1        0.0186
      5 C         -28.4251   50.9858  -10.8438 C.ar    1  UNL1        0.0768
      6 N         -27.2783   51.6280  -11.0983 N.ar    1  UNL1       -0.3373
      7 C         -26.3861   51.0542  -10.2480 C.ar    1  UNL1        0.1406
      8 N         -26.9318   50.0788   -9.4727 N.ar    1  UNL1       -0.2258
      9 C         -28.2158   50.0586   -9.8695 C.ar    1  UNL1        0.1116
     10 H         -27.1205   52.3839  -11.8007 H       1  UNL1        0.1674
     11 N         -27.7639   47.3372   -5.9285 N.3     1  UNL1       -0.2646
     12 C         -27.0447   47.4427   -7.2215 C.3     1  UNL1        0.0941
     13 C         -27.9851   47.3185   -8.4193 C.3     1  UNL1        0.1082
     14 N         -29.0253   48.3393   -8.3073 N.pl3   1  UNL1       -0.3034
     15 C         -29.6660   48.5956   -7.0167 C.3     1  UNL1        0.1082
     16 C         -29.2300   47.5703   -5.9567 C.3     1  UNL1        0.0941
     17 C         -27.0597   47.9923   -4.8055 C.3     1  UNL1        0.1203
     18 C         -29.7950   48.2912   -0.6667 C.3     1  UNL1        0.0716
     19 C         -28.8125   47.8146   -1.6831 C.ar    1  UNL1        0.1172
     20 N         -28.5771   48.4603   -2.8454 N.ar    1  UNL1       -0.2340
     21 C         -27.6679   47.6805   -3.4646 C.ar    1  UNL1        0.0934
     22 C         -27.3905   46.5767   -2.6869 C.ar    1  UNL1        0.0896
     23 N         -28.1180   46.6664   -1.5642 N.ar    1  UNL1       -0.3398
     24 H         -28.1423   45.9861   -0.7723 H       1  UNL1        0.1671
     25 C         -24.9615   51.4427  -10.1517 C.ar    1  UNL1        0.0339
     26 C         -24.2691   51.8492  -11.3002 C.ar    1  UNL1        0.0027
     27 C         -22.9156   52.1884  -11.2364 C.ar    1  UNL1       -0.0042
     28 C         -22.2089   52.1335  -10.0129 C.ar    1  UNL1       -0.0228
     29 C         -22.9216   51.7282   -8.8628 C.ar    1  UNL1       -0.0042
     30 C         -24.2749   51.3886   -8.9310 C.ar    1  UNL1        0.0027
     31 C         -20.7123   52.4890   -9.8965 C.3     1  UNL1        0.0189
     32 C         -19.7951   51.5169  -10.6772 C.3     1  UNL1        0.0044
     33 C         -20.2874   52.4444   -8.4127 C.3     1  UNL1        0.0044
     34 C         -20.4746   53.9086  -10.4559 C.3     1  UNL1        0.0044
@<TRIPOS>BOND
     1    18    19    1
     2    19    20   ar
     3    20    21   ar
     4    21    17    1
     5    17    11    1
     6    11    12    1
     7    12    13    1
     8    13    14    1
     9    14     1    1
    10     1     2   ar
    11     2     3   ar
    12     3     4   ar
    13     4     5   ar
    14     5     6   ar
    15     6     7   ar
    16     7    25    1
    17    25    26   ar
    18    26    27   ar
    19    27    28   ar
    20    28    31    1
    21    31    32    1
    22    31    33    1
    23    31    34    1
    24    28    29   ar
    25    29    30   ar
    26     7     8   ar
    27     8     9   ar
    28    14    15    1
    29    15    16    1
    30    21    22   ar
    31    22    23   ar
    32    23    19   ar
    33    16    11    1
    34     9     1   ar
    35     9     5   ar
    36    30    25   ar
    37     6    10    1
    38    23    24    1
@<TRIPOS>MOLECULE
*****
 34 38 0 0 0
SMALL
GASTEIGER

@<TRIPOS>ATOM
      1 C         -27.8570   49.3880   -6.9778 C.ar    1  UNL1        0.0673
      2 C         -29.2503   49.4639   -7.1761 C.ar    1  UNL1        0.0161
      3 C         -29.7776   50.2190   -8.2496 C.ar    1  UNL1        0.0028
      4 C         -28.9189   50.9143   -9.1229 C.ar    1  UNL1        0.0186
      5 C         -27.5486   50.8225   -8.8878 C.ar    1  UNL1        0.0768
      6 N         -26.5478   51.4108   -9.5546 N.ar    1  UNL1       -0.3373
      7 C         -25.4308   51.0013   -8.8967 C.ar    1  UNL1        0.1406
      8 N         -25.6958   50.1802   -7.8450 N.ar    1  UNL1       -0.2258
      9 C         -27.0364   50.0862   -7.8639 C.ar    1  UNL1        0.1116
     10 H         -26.6247   52.0282  -10.3928 H       1  UNL1        0.1674
     11 N         -27.2860   46.7610   -3.7240 N.3     1  UNL1       -0.2646
     12 C         -28.1611   47.9587   -3.7086 C.3     1  UNL1        0.0941
     13 C         -27.5653   49.1218   -4.5003 C.3     1  UNL1        0.1082
     14 N         -27.3043   48.6744   -5.8672 N.pl3   1  UNL1       -0.3034
     15 C         -26.7005   47.3631   -6.1073 C.3     1  UNL1        0.1082
     16 C         -26.2587   46.6961   -4.7941 C.3     1  UNL1        0.0941
     17 C         -28.0136   45.4946   -3.4938 C.3     1  UNL1        0.1203
     18 C         -30.2281   46.5537    0.8277 C.3     1  UNL1        0.0716
     19 C         -29.9806   46.0181   -0.5426 C.ar    1  UNL1        0.1172
     20 N         -28.8178   46.1917   -1.2067 N.ar    1  UNL1       -0.2340
     21 C         -29.0372   45.5931   -2.3949 C.ar    1  UNL1        0.0934
     22 C         -30.3219   45.0952   -2.4383 C.ar    1  UNL1        0.0896
     23 N         -30.9130   45.3687   -1.2662 N.ar    1  UNL1       -0.3398
     24 H         -31.8895   45.1322   -0.9820 H       1  UNL1        0.1671
     25 C         -24.0551   51.4038   -9.2643 C.ar    1  UNL1        0.0339
     26 C         -23.0570   51.4578   -8.2822 C.ar    1  UNL1        0.0027
     27 C         -21.7604   51.8668   -8.6024 C.ar    1  UNL1       -0.0042
     28 C         -21.4193   52.2346   -9.9245 C.ar    1  UNL1       -0.0228
     29 C         -22.4341   52.1691  -10.9047 C.ar    1  UNL1       -0.0042
     30 C         -23.7300   51.7606  -10.5802 C.ar    1  UNL1        0.0027
     31 C         -20.0041   52.7020  -10.3223 C.3     1  UNL1        0.0189
     32 C         -19.4794   52.0212  -11.6096 C.3     1  UNL1        0.0044
     33 C         -19.0152   52.3740   -9.1825 C.3     1  UNL1        0.0044
     34 C         -20.0149   54.2262  -10.5695 C.3     1  UNL1        0.0044
@<TRIPOS>BOND
     1    18    19    1
     2    19    20   ar
     3    20    21   ar
     4    21    17    1
     5    17    11    1
     6    11    12    1
     7    12    13    1
     8    13    14    1
     9    14     1    1
    10     1     2   ar
    11     2     3   ar
    12     3     4   ar
    13     4     5   ar
    14     5     6   ar
    15     6     7   ar
    16     7    25    1
    17    25    26   ar
    18    26    27   ar
    19    27    28   ar
    20    28    31    1
    21    31    32    1
    22    31    33    1
    23    31    34    1
    24    28    29   ar
    25    29    30   ar
    26     7     8   ar
    27     8     9   ar
    28    14    15    1
    29    15    16    1
    30    21    22   ar
    31    22    23   ar
    32    23    19   ar
    33    16    11    1
    34     9     1   ar
    35     9     5   ar
    36    30    25   ar
    37     6    10    1
    38    23    24    1
