@<TRIPOS>MOLECULE
*****
 45 50 0 0 0
SMALL
GASTEIGER

@<TRIPOS>ATOM
      1 C         -64.0297  -52.0317  -24.1566 C.ar    1  UNL1        0.0702
      2 C         -62.9248  -52.3653  -23.3580 C.ar    1  UNL1        0.0191
      3 C         -61.9766  -51.3945  -23.0314 C.ar    1  UNL1        0.0356
      4 C         -62.1450  -50.0763  -23.4894 C.ar    1  UNL1        0.1318
      5 N         -63.2302  -49.7774  -24.2570 N.ar    1  UNL1       -0.2279
      6 C         -64.1652  -50.7064  -24.5880 C.ar    1  UNL1        0.1149
      7 N         -61.1836  -49.0438  -23.1854 N.pl3   1  UNL1       -0.2932
      8 C         -60.5703  -48.9520  -21.8490 C.3     1  UNL1        0.0923
      9 C         -60.3346  -47.4941  -21.3976 C.3     1  UNL1        0.0252
     10 C         -60.2359  -46.4742  -22.5556 C.3     1  UNL1        0.0472
     11 C         -59.6921  -47.1519  -23.8201 C.3     1  UNL1        0.0252
     12 C         -60.6881  -48.2136  -24.2953 C.3     1  UNL1        0.0923
     13 C         -59.3842  -45.2454  -22.1800 C.3     1  UNL1        0.2054
     14 O         -59.6075  -44.1718  -23.0982 O.3     1  UNL1       -0.4755
     15 C         -60.6542  -43.2360  -23.0524 C.ar    1  UNL1        0.1388
     16 C         -61.7077  -43.2161  -23.9861 C.ar    1  UNL1        0.0369
     17 C         -62.7174  -42.2569  -23.8853 C.ar    1  UNL1        0.0033
     18 C         -62.6959  -41.3166  -22.8536 C.ar    1  UNL1        0.0066
     19 C         -61.6613  -41.3299  -21.9028 C.ar    1  UNL1        0.0785
     20 C         -60.6482  -42.2989  -22.0110 C.ar    1  UNL1        0.0433
     21 C         -61.6346  -40.3404  -20.8029 C.2     1  UNL1        0.3381
     22 O         -61.4628  -40.7146  -19.6111 O.2     1  UNL1       -0.2451
     23 O         -61.7996  -38.9844  -21.0741 O.3     1  UNL1       -0.4771
     24 H         -61.7831  -38.2989  -20.3284 H       1  UNL1        0.2954
     25 C         -65.6772  -53.8546  -23.5343 C.2     1  UNL1        0.2839
     26 O         -65.0803  -54.1585  -22.4666 O.2     1  UNL1       -0.2665
     27 N         -65.0398  -52.9981  -24.4938 N.am    1  UNL1       -0.2766
     28 H         -65.2445  -53.1627  -25.5046 H       1  UNL1        0.1553
     29 C         -71.1697  -56.1351  -24.4045 C.ar    1  UNL1        0.0002
     30 C         -70.4759  -56.7336  -25.4911 C.ar    1  UNL1        0.0031
     31 C         -69.1078  -56.4843  -25.6976 C.ar    1  UNL1        0.0375
     32 C         -68.4571  -55.6370  -24.8075 C.ar    1  UNL1        0.1452
     33 O         -67.1967  -55.2783  -24.8256 O.2     1  UNL1       -0.4492
     34 C         -66.9923  -54.4602  -23.8080 C.ar    1  UNL1        0.1946
     35 C         -68.1772  -54.2982  -23.0788 C.ar    1  UNL1        0.0202
     36 C         -68.4058  -53.4911  -21.8366 C.3     1  UNL1        0.0345
     37 C         -69.1121  -55.0555  -23.7562 C.ar    1  UNL1        0.0337
     38 C         -70.4688  -55.2795  -23.5209 C.ar    1  UNL1        0.0028
     39 C         -75.2017  -56.2018  -21.3996 C.3     1  UNL1        0.0310
     40 C         -74.5817  -56.4191  -22.7483 C.ar    1  UNL1       -0.0218
     41 C         -75.3494  -56.9311  -23.8039 C.ar    1  UNL1       -0.0043
     42 C         -74.7639  -57.1636  -25.0499 C.ar    1  UNL1       -0.0003
     43 C         -73.4067  -56.8999  -25.2490 C.ar    1  UNL1       -0.0000
     44 C         -72.6152  -56.4044  -24.1972 C.ar    1  UNL1       -0.0003
     45 C         -73.2136  -56.1726  -22.9444 C.ar    1  UNL1       -0.0043
@<TRIPOS>BOND
     1    39    40    1
     2    40    41   ar
     3    41    42   ar
     4    42    43   ar
     5    43    44   ar
     6    44    29    1
     7    29    30   ar
     8    30    31   ar
     9    31    32   ar
    10    32    33   ar
    11    33    34   ar
    12    34    25    1
    13    25    26    2
    14    25    27   am
    15    27     1    1
    16     1     2   ar
    17     2     3   ar
    18     3     4   ar
    19     4     7    1
    20     7     8    1
    21     8     9    1
    22     9    10    1
    23    10    13    1
    24    13    14    1
    25    14    15    1
    26    15    16   ar
    27    16    17   ar
    28    17    18   ar
    29    18    19   ar
    30    19    21    1
    31    21    22    2
    32    21    23    1
    33    19    20   ar
    34    10    11    1
    35    11    12    1
    36     4     5   ar
    37     5     6   ar
    38    34    35   ar
    39    35    36    1
    40    35    37   ar
    41    37    38   ar
    42    44    45   ar
    43    45    40   ar
    44    38    29   ar
    45    37    32   ar
    46     6     1   ar
    47    12     7    1
    48    20    15   ar
    49    27    28    1
    50    23    24    1
@<TRIPOS>MOLECULE
*****
 45 50 0 0 0
SMALL
GASTEIGER

@<TRIPOS>ATOM
      1 C         -66.5595  -54.1531  -23.2970 C.ar    1  UNL1        0.0702
      2 C         -67.7259  -53.5421  -22.8111 C.ar    1  UNL1        0.0191
      3 C         -68.9607  -54.1779  -22.9493 C.ar    1  UNL1        0.0356
      4 C         -69.0273  -55.4425  -23.5593 C.ar    1  UNL1        0.1318
      5 N         -67.8792  -56.0167  -24.0160 N.ar    1  UNL1       -0.2279
      6 C         -66.6665  -55.4158  -23.8929 C.ar    1  UNL1        0.1149
      7 N         -70.2839  -56.1305  -23.7334 N.pl3   1  UNL1       -0.2932
      8 C         -70.4201  -57.2177  -24.7184 C.3     1  UNL1        0.0923
      9 C         -71.8037  -57.2338  -25.4041 C.3     1  UNL1        0.0252
     10 C         -72.9265  -56.5445  -24.5949 C.3     1  UNL1        0.0472
     11 C         -72.6368  -56.6384  -23.0912 C.3     1  UNL1        0.0252
     12 C         -71.3618  -55.8535  -22.7700 C.3     1  UNL1        0.0923
     13 C         -74.3192  -57.1178  -24.9241 C.3     1  UNL1        0.2054
     14 O         -75.1843  -56.0956  -25.4263 O.3     1  UNL1       -0.4755
     15 C         -74.8697  -55.1414  -26.4082 C.ar    1  UNL1        0.1388
     16 C         -74.4043  -55.4850  -27.6916 C.ar    1  UNL1        0.0369
     17 C         -74.1074  -54.4867  -28.6216 C.ar    1  UNL1        0.0033
     18 C         -74.2783  -53.1413  -28.2902 C.ar    1  UNL1        0.0066
     19 C         -74.7565  -52.7786  -27.0196 C.ar    1  UNL1        0.0785
     20 C         -75.0533  -53.7897  -26.0886 C.ar    1  UNL1        0.0433
     21 C         -74.9459  -51.3552  -26.6628 C.2     1  UNL1        0.3381
     22 O         -75.0175  -50.4751  -27.5629 O.2     1  UNL1       -0.2451
     23 O         -75.0468  -50.9734  -25.3273 O.3     1  UNL1       -0.4771
     24 H         -75.1764  -50.0016  -25.0723 H       1  UNL1        0.2954
     25 C         -64.5568  -52.9090  -24.2273 C.2     1  UNL1        0.2839
     26 O         -64.7733  -53.2618  -25.4178 O.2     1  UNL1       -0.2665
     27 N         -65.2666  -53.5407  -23.1515 N.am    1  UNL1       -0.2766
     28 H         -64.7681  -53.6556  -22.2409 H       1  UNL1        0.1553
     29 C         -60.5045  -48.5781  -23.2532 C.ar    1  UNL1        0.0002
     30 C         -59.7960  -49.7014  -22.7468 C.ar    1  UNL1        0.0031
     31 C         -60.3691  -50.9850  -22.7691 C.ar    1  UNL1        0.0375
     32 C         -61.6467  -51.1202  -23.3012 C.ar    1  UNL1        0.1452
     33 O         -62.3517  -52.2195  -23.4117 O.2     1  UNL1       -0.4492
     34 C         -63.5102  -51.9055  -23.9648 C.ar    1  UNL1        0.1946
     35 C         -63.5490  -50.5344  -24.2485 C.ar    1  UNL1        0.0202
     36 C         -64.6449  -49.7469  -24.9009 C.3     1  UNL1        0.0345
     37 C         -62.3395  -50.0479  -23.7939 C.ar    1  UNL1        0.0337
     38 C         -61.8028  -48.7602  -23.7874 C.ar    1  UNL1        0.0028
     39 C         -56.5981  -45.5921  -22.1977 C.3     1  UNL1        0.0310
     40 C         -57.9882  -45.7744  -22.7319 C.ar    1  UNL1       -0.0218
     41 C         -58.7343  -44.6640  -23.1516 C.ar    1  UNL1       -0.0043
     42 C         -60.0396  -44.8307  -23.6183 C.ar    1  UNL1       -0.0003
     43 C         -60.6149  -46.1030  -23.6578 C.ar    1  UNL1       -0.0000
     44 C         -59.8897  -47.2269  -23.2229 C.ar    1  UNL1       -0.0003
     45 C         -58.5742  -47.0499  -22.7542 C.ar    1  UNL1       -0.0043
@<TRIPOS>BOND
     1    39    40    1
     2    40    41   ar
     3    41    42   ar
     4    42    43   ar
     5    43    44   ar
     6    44    29    1
     7    29    30   ar
     8    30    31   ar
     9    31    32   ar
    10    32    33   ar
    11    33    34   ar
    12    34    25    1
    13    25    26    2
    14    25    27   am
    15    27     1    1
    16     1     2   ar
    17     2     3   ar
    18     3     4   ar
    19     4     7    1
    20     7     8    1
    21     8     9    1
    22     9    10    1
    23    10    13    1
    24    13    14    1
    25    14    15    1
    26    15    16   ar
    27    16    17   ar
    28    17    18   ar
    29    18    19   ar
    30    19    21    1
    31    21    22    2
    32    21    23    1
    33    19    20   ar
    34    10    11    1
    35    11    12    1
    36     4     5   ar
    37     5     6   ar
    38    34    35   ar
    39    35    36    1
    40    35    37   ar
    41    37    38   ar
    42    44    45   ar
    43    45    40   ar
    44    38    29   ar
    45    37    32   ar
    46     6     1   ar
    47    12     7    1
    48    20    15   ar
    49    27    28    1
    50    23    24    1
@<TRIPOS>MOLECULE
*****
 45 50 0 0 0
SMALL
GASTEIGER

@<TRIPOS>ATOM
      1 C         -66.3704  -54.2915  -23.1643 C.ar    1  UNL1        0.0702
      2 C         -66.4759  -55.6668  -23.4236 C.ar    1  UNL1        0.0191
      3 C         -67.7318  -56.2626  -23.5502 C.ar    1  UNL1        0.0356
      4 C         -68.8900  -55.4742  -23.4369 C.ar    1  UNL1        0.1318
      5 N         -68.7595  -54.1403  -23.1921 N.ar    1  UNL1       -0.2279
      6 C         -67.5473  -53.5393  -23.0644 C.ar    1  UNL1        0.1149
      7 N         -70.2084  -56.0504  -23.5492 N.pl3   1  UNL1       -0.2932
      8 C         -70.4627  -57.1849  -24.4541 C.3     1  UNL1        0.0923
      9 C         -71.8531  -57.1170  -25.1226 C.3     1  UNL1        0.0252
     10 C         -72.8925  -56.2703  -24.3521 C.3     1  UNL1        0.0472
     11 C         -72.5874  -56.2875  -22.8486 C.3     1  UNL1        0.0252
     12 C         -71.2390  -55.6068  -22.5965 C.3     1  UNL1        0.0923
     13 C         -74.3382  -56.7303  -24.6258 C.3     1  UNL1        0.2054
     14 O         -75.0421  -55.7591  -25.4048 O.3     1  UNL1       -0.4755
     15 C         -74.5188  -54.9954  -26.4613 C.ar    1  UNL1        0.1388
     16 C         -74.2562  -53.6164  -26.3555 C.ar    1  UNL1        0.0369
     17 C         -73.7371  -52.9146  -27.4453 C.ar    1  UNL1        0.0033
     18 C         -73.4656  -53.5755  -28.6447 C.ar    1  UNL1        0.0066
     19 C         -73.7063  -54.9548  -28.7652 C.ar    1  UNL1        0.0785
     20 C         -74.2290  -55.6545  -27.6632 C.ar    1  UNL1        0.0433
     21 C         -73.4156  -55.6636  -30.0310 C.2     1  UNL1        0.3381
     22 O         -73.0928  -56.8825  -30.0210 O.2     1  UNL1       -0.2451
     23 O         -73.4957  -54.9902  -31.2474 O.3     1  UNL1       -0.4771
     24 H         -73.2985  -55.4661  -32.1197 H       1  UNL1        0.2954
     25 C         -64.4502  -52.9528  -24.1362 C.2     1  UNL1        0.2839
     26 O         -64.7014  -53.2814  -25.3268 O.2     1  UNL1       -0.2665
     27 N         -65.0947  -53.6377  -23.0518 N.am    1  UNL1       -0.2766
     28 H         -64.5568  -53.7589  -22.1647 H       1  UNL1        0.1553
     29 C         -60.5081  -48.5096  -23.2175 C.ar    1  UNL1        0.0002
     30 C         -59.7722  -49.6081  -22.6959 C.ar    1  UNL1        0.0031
     31 C         -60.3130  -50.9057  -22.7016 C.ar    1  UNL1        0.0375
     32 C         -61.5865  -51.0798  -23.2325 C.ar    1  UNL1        0.1452
     33 O         -62.2637  -52.1978  -23.3287 O.2     1  UNL1       -0.4492
     34 C         -63.4291  -51.9201  -23.8865 C.ar    1  UNL1        0.1946
     35 C         -63.5020  -50.5544  -24.1883 C.ar    1  UNL1        0.0202
     36 C         -64.6167  -49.8031  -24.8516 C.3     1  UNL1        0.0345
     37 C         -62.3054  -50.0318  -23.7396 C.ar    1  UNL1        0.0337
     38 C         -61.8010  -48.7311  -23.7499 C.ar    1  UNL1        0.0028
     39 C         -56.6275  -45.4336  -22.3405 C.3     1  UNL1        0.0310
     40 C         -58.0395  -45.6466  -22.8006 C.ar    1  UNL1       -0.0218
     41 C         -58.8355  -44.5518  -23.1662 C.ar    1  UNL1       -0.0043
     42 C         -60.1596  -44.7478  -23.5634 C.ar    1  UNL1       -0.0003
     43 C         -60.7035  -46.0342  -23.5865 C.ar    1  UNL1       -0.0000
     44 C         -59.9272  -47.1431  -23.2048 C.ar    1  UNL1       -0.0003
     45 C         -58.5931  -46.9367  -22.8060 C.ar    1  UNL1       -0.0043
@<TRIPOS>BOND
     1    39    40    1
     2    40    41   ar
     3    41    42   ar
     4    42    43   ar
     5    43    44   ar
     6    44    29    1
     7    29    30   ar
     8    30    31   ar
     9    31    32   ar
    10    32    33   ar
    11    33    34   ar
    12    34    25    1
    13    25    26    2
    14    25    27   am
    15    27     1    1
    16     1     2   ar
    17     2     3   ar
    18     3     4   ar
    19     4     7    1
    20     7     8    1
    21     8     9    1
    22     9    10    1
    23    10    13    1
    24    13    14    1
    25    14    15    1
    26    15    16   ar
    27    16    17   ar
    28    17    18   ar
    29    18    19   ar
    30    19    21    1
    31    21    22    2
    32    21    23    1
    33    19    20   ar
    34    10    11    1
    35    11    12    1
    36     4     5   ar
    37     5     6   ar
    38    34    35   ar
    39    35    36    1
    40    35    37   ar
    41    37    38   ar
    42    44    45   ar
    43    45    40   ar
    44    38    29   ar
    45    37    32   ar
    46     6     1   ar
    47    12     7    1
    48    20    15   ar
    49    27    28    1
    50    23    24    1
@<TRIPOS>MOLECULE
*****
 45 50 0 0 0
SMALL
GASTEIGER

@<TRIPOS>ATOM
      1 C         -63.9162  -51.8561  -24.1800 C.ar    1  UNL1        0.0702
      2 C         -62.7894  -52.1727  -23.4054 C.ar    1  UNL1        0.0191
      3 C         -61.8612  -51.1824  -23.0798 C.ar    1  UNL1        0.0356
      4 C         -62.0716  -49.8623  -23.5144 C.ar    1  UNL1        0.1318
      5 N         -63.1772  -49.5804  -24.2590 N.ar    1  UNL1       -0.2279
      6 C         -64.0934  -50.5285  -24.5885 C.ar    1  UNL1        0.1149
      7 N         -61.1321  -48.8097  -23.2107 N.pl3   1  UNL1       -0.2932
      8 C         -60.5769  -48.6604  -21.8542 C.3     1  UNL1        0.0923
      9 C         -60.3721  -47.1839  -21.4506 C.3     1  UNL1        0.0252
     10 C         -60.2324  -46.2087  -22.6424 C.3     1  UNL1        0.0472
     11 C         -59.6301  -46.9296  -23.8554 C.3     1  UNL1        0.0252
     12 C         -60.5965  -48.0183  -24.3303 C.3     1  UNL1        0.0923
     13 C         -59.4072  -44.9582  -22.2794 C.3     1  UNL1        0.2054
     14 O         -60.2631  -43.8740  -21.9087 O.3     1  UNL1       -0.4755
     15 C         -61.1985  -43.2271  -22.7333 C.ar    1  UNL1        0.1388
     16 C         -62.3258  -42.5496  -22.2312 C.ar    1  UNL1        0.0369
     17 C         -63.2192  -41.9282  -23.1061 C.ar    1  UNL1        0.0033
     18 C         -62.9974  -41.9654  -24.4839 C.ar    1  UNL1        0.0066
     19 C         -61.8697  -42.6234  -25.0036 C.ar    1  UNL1        0.0785
     20 C         -60.9747  -43.2466  -24.1162 C.ar    1  UNL1        0.0433
     21 C         -61.6244  -42.6622  -26.4623 C.2     1  UNL1        0.3381
     22 O         -62.5797  -42.5288  -27.2744 O.2     1  UNL1       -0.2451
     23 O         -60.3342  -42.8470  -26.9528 O.3     1  UNL1       -0.4771
     24 H         -60.1555  -42.8753  -27.9495 H       1  UNL1        0.2954
     25 C         -65.5559  -53.6829  -23.5485 C.2     1  UNL1        0.2839
     26 O         -64.9804  -53.9517  -22.4599 O.2     1  UNL1       -0.2665
     27 N         -64.9066  -52.8434  -24.5150 N.am    1  UNL1       -0.2766
     28 H         -65.0857  -53.0365  -25.5257 H       1  UNL1        0.1553
     29 C         -70.9944  -56.0703  -24.4698 C.ar    1  UNL1        0.0002
     30 C         -70.2923  -56.6126  -25.5803 C.ar    1  UNL1        0.0031
     31 C         -68.9322  -56.3216  -25.7850 C.ar    1  UNL1        0.0375
     32 C         -68.2976  -55.4897  -24.8691 C.ar    1  UNL1        0.1452
     33 O         -67.0468  -55.0986  -24.8811 O.2     1  UNL1       -0.4492
     34 C         -66.8570  -54.3118  -23.8365 C.ar    1  UNL1        0.1946
     35 C         -68.0411  -54.2055  -23.0959 C.ar    1  UNL1        0.0202
     36 C         -68.2825  -53.4484  -21.8250 C.3     1  UNL1        0.0345
     37 C         -68.9607  -54.9622  -23.7946 C.ar    1  UNL1        0.0337
     38 C         -70.3099  -55.2286  -23.5604 C.ar    1  UNL1        0.0028
     39 C         -75.0412  -56.2042  -21.4872 C.3     1  UNL1        0.0310
     40 C         -74.4055  -56.4312  -22.8270 C.ar    1  UNL1       -0.0218
     41 C         -75.1489  -56.9927  -23.8749 C.ar    1  UNL1       -0.0043
     42 C         -74.5478  -57.2336  -25.1119 C.ar    1  UNL1       -0.0003
     43 C         -73.1990  -56.9290  -25.3093 C.ar    1  UNL1       -0.0000
     44 C         -72.4313  -56.3833  -24.2646 C.ar    1  UNL1       -0.0003
     45 C         -73.0452  -56.1433  -23.0208 C.ar    1  UNL1       -0.0043
@<TRIPOS>BOND
     1    39    40    1
     2    40    41   ar
     3    41    42   ar
     4    42    43   ar
     5    43    44   ar
     6    44    29    1
     7    29    30   ar
     8    30    31   ar
     9    31    32   ar
    10    32    33   ar
    11    33    34   ar
    12    34    25    1
    13    25    26    2
    14    25    27   am
    15    27     1    1
    16     1     2   ar
    17     2     3   ar
    18     3     4   ar
    19     4     7    1
    20     7     8    1
    21     8     9    1
    22     9    10    1
    23    10    13    1
    24    13    14    1
    25    14    15    1
    26    15    16   ar
    27    16    17   ar
    28    17    18   ar
    29    18    19   ar
    30    19    21    1
    31    21    22    2
    32    21    23    1
    33    19    20   ar
    34    10    11    1
    35    11    12    1
    36     4     5   ar
    37     5     6   ar
    38    34    35   ar
    39    35    36    1
    40    35    37   ar
    41    37    38   ar
    42    44    45   ar
    43    45    40   ar
    44    38    29   ar
    45    37    32   ar
    46     6     1   ar
    47    12     7    1
    48    20    15   ar
    49    27    28    1
    50    23    24    1
@<TRIPOS>MOLECULE
*****
 45 50 0 0 0
SMALL
GASTEIGER

@<TRIPOS>ATOM
      1 C         -66.2325  -54.3405  -22.8232 C.ar    1  UNL1        0.0702
      2 C         -66.3737  -55.6872  -22.4541 C.ar    1  UNL1        0.0191
      3 C         -67.6364  -56.2820  -22.4394 C.ar    1  UNL1        0.0356
      4 C         -68.7632  -55.5307  -22.8159 C.ar    1  UNL1        0.1318
      5 N         -68.5976  -54.2274  -23.1768 N.ar    1  UNL1       -0.2279
      6 C         -67.3782  -53.6277  -23.1976 C.ar    1  UNL1        0.1149
      7 N         -70.0885  -56.1018  -22.8041 N.pl3   1  UNL1       -0.2932
      8 C         -70.8463  -56.2788  -24.0551 C.3     1  UNL1        0.0923
      9 C         -72.3606  -56.0338  -23.8771 C.3     1  UNL1        0.0252
     10 C         -72.8713  -56.2122  -22.4287 C.3     1  UNL1        0.0472
     11 C         -72.0028  -57.2293  -21.6769 C.3     1  UNL1        0.0252
     12 C         -70.5795  -56.6806  -21.5430 C.3     1  UNL1        0.0923
     13 C         -74.3585  -56.6154  -22.3797 C.3     1  UNL1        0.2054
     14 O         -75.0194  -55.9886  -21.2771 O.3     1  UNL1       -0.4755
     15 C         -74.5233  -55.8572  -19.9694 C.ar    1  UNL1        0.1388
     16 C         -74.5534  -56.9035  -19.0280 C.ar    1  UNL1        0.0369
     17 C         -74.0449  -56.7065  -17.7426 C.ar    1  UNL1        0.0033
     18 C         -73.4945  -55.4748  -17.3834 C.ar    1  UNL1        0.0066
     19 C         -73.4412  -54.4229  -18.3138 C.ar    1  UNL1        0.0785
     20 C         -73.9552  -54.6291  -19.6062 C.ar    1  UNL1        0.0433
     21 C         -72.8541  -53.1164  -17.9427 C.2     1  UNL1        0.3381
     22 O         -72.8294  -52.7464  -16.7375 O.2     1  UNL1       -0.2451
     23 O         -72.3227  -52.2816  -18.9225 O.3     1  UNL1       -0.4771
     24 H         -71.9186  -51.3851  -18.6791 H       1  UNL1        0.2954
     25 C         -64.4640  -52.9659  -24.0094 C.2     1  UNL1        0.2839
     26 O         -64.8965  -53.2337  -25.1626 O.2     1  UNL1       -0.2665
     27 N         -64.9460  -53.7000  -22.8740 N.am    1  UNL1       -0.2766
     28 H         -64.2820  -53.8680  -22.0855 H       1  UNL1        0.1553
     29 C         -60.3724  -48.5949  -23.4802 C.ar    1  UNL1        0.0002
     30 C         -59.5744  -49.7248  -23.1535 C.ar    1  UNL1        0.0031
     31 C         -60.1243  -51.0187  -23.1492 C.ar    1  UNL1        0.0375
     32 C         -61.4692  -51.1574  -23.4743 C.ar    1  UNL1        0.1452
     33 O         -62.1663  -52.2660  -23.5260 O.2     1  UNL1       -0.4492
     34 C         -63.4037  -51.9524  -23.8679 C.ar    1  UNL1        0.1946
     35 C         -63.5086  -50.5705  -24.0704 C.ar    1  UNL1        0.0202
     36 C         -64.7076  -49.7777  -24.4958 C.3     1  UNL1        0.0345
     37 C         -62.2487  -50.0787  -23.7926 C.ar    1  UNL1        0.0337
     38 C         -61.7374  -48.7809  -23.8064 C.ar    1  UNL1        0.0028
     39 C         -56.6211  -45.4747  -22.2627 C.3     1  UNL1        0.0310
     40 C         -57.9529  -45.7165  -22.9098 C.ar    1  UNL1       -0.0218
     41 C         -58.6714  -44.6490  -23.4665 C.ar    1  UNL1       -0.0043
     42 C         -59.9253  -44.8695  -24.0397 C.ar    1  UNL1       -0.0003
     43 C         -60.4775  -46.1524  -24.0506 C.ar    1  UNL1       -0.0000
     44 C         -59.7810  -47.2329  -23.4799 C.ar    1  UNL1       -0.0003
     45 C         -58.5173  -47.0019  -22.9043 C.ar    1  UNL1       -0.0043
@<TRIPOS>BOND
     1    39    40    1
     2    40    41   ar
     3    41    42   ar
     4    42    43   ar
     5    43    44   ar
     6    44    29    1
     7    29    30   ar
     8    30    31   ar
     9    31    32   ar
    10    32    33   ar
    11    33    34   ar
    12    34    25    1
    13    25    26    2
    14    25    27   am
    15    27     1    1
    16     1     2   ar
    17     2     3   ar
    18     3     4   ar
    19     4     7    1
    20     7     8    1
    21     8     9    1
    22     9    10    1
    23    10    13    1
    24    13    14    1
    25    14    15    1
    26    15    16   ar
    27    16    17   ar
    28    17    18   ar
    29    18    19   ar
    30    19    21    1
    31    21    22    2
    32    21    23    1
    33    19    20   ar
    34    10    11    1
    35    11    12    1
    36     4     5   ar
    37     5     6   ar
    38    34    35   ar
    39    35    36    1
    40    35    37   ar
    41    37    38   ar
    42    44    45   ar
    43    45    40   ar
    44    38    29   ar
    45    37    32   ar
    46     6     1   ar
    47    12     7    1
    48    20    15   ar
    49    27    28    1
    50    23    24    1
@<TRIPOS>MOLECULE
*****
 45 50 0 0 0
SMALL
GASTEIGER

@<TRIPOS>ATOM
      1 C         -63.8383  -51.9167  -24.2003 C.ar    1  UNL1        0.0702
      2 C         -62.6601  -52.1879  -23.4875 C.ar    1  UNL1        0.0191
      3 C         -61.7719  -51.1556  -23.1814 C.ar    1  UNL1        0.0356
      4 C         -62.0738  -49.8397  -23.5729 C.ar    1  UNL1        0.1318
      5 N         -63.2276  -49.6026  -24.2576 N.ar    1  UNL1       -0.2279
      6 C         -64.1062  -50.5922  -24.5671 C.ar    1  UNL1        0.1149
      7 N         -61.1788  -48.7441  -23.2877 N.pl3   1  UNL1       -0.2932
      8 C         -60.5519  -48.6059  -21.9616 C.3     1  UNL1        0.0923
      9 C         -60.4071  -47.1335  -21.5188 C.3     1  UNL1        0.0252
     10 C         -60.3951  -46.1143  -22.6815 C.3     1  UNL1        0.0472
     11 C         -59.8274  -46.7595  -23.9524 C.3     1  UNL1        0.0252
     12 C         -60.7575  -47.8873  -24.4081 C.3     1  UNL1        0.0923
     13 C         -59.6217  -44.8297  -22.3235 C.3     1  UNL1        0.2054
     14 O         -60.3134  -44.0827  -21.3190 O.3     1  UNL1       -0.4755
     15 C         -61.5102  -43.3661  -21.4852 C.ar    1  UNL1        0.1388
     16 C         -61.6187  -42.2347  -22.3158 C.ar    1  UNL1        0.0369
     17 C         -62.8385  -41.5657  -22.4356 C.ar    1  UNL1        0.0033
     18 C         -63.9617  -42.0181  -21.7409 C.ar    1  UNL1        0.0066
     19 C         -63.8775  -43.1548  -20.9189 C.ar    1  UNL1        0.0785
     20 C         -62.6457  -43.8230  -20.8035 C.ar    1  UNL1        0.0433
     21 C         -65.0649  -43.6441  -20.1840 C.2     1  UNL1        0.3381
     22 O         -65.1205  -44.8382  -19.7829 O.2     1  UNL1       -0.2451
     23 O         -66.1340  -42.7891  -19.9284 O.3     1  UNL1       -0.4771
     24 H         -66.9517  -43.1141  -19.4263 H       1  UNL1        0.2954
     25 C         -65.5068  -53.7001  -23.5220 C.2     1  UNL1        0.2839
     26 O         -65.0191  -53.8498  -22.3695 O.2     1  UNL1       -0.2665
     27 N         -64.7891  -52.9493  -24.5128 N.am    1  UNL1       -0.2766
     28 H         -64.8838  -53.2446  -25.5101 H       1  UNL1        0.1553
     29 C         -70.8278  -56.2705  -24.6203 C.ar    1  UNL1        0.0002
     30 C         -70.0472  -56.8626  -25.6500 C.ar    1  UNL1        0.0031
     31 C         -68.6832  -56.5519  -25.7896 C.ar    1  UNL1        0.0375
     32 C         -68.1238  -55.6503  -24.8908 C.ar    1  UNL1        0.1452
     33 O         -66.8829  -55.2305  -24.8513 O.2     1  UNL1       -0.4492
     34 C         -66.7744  -54.3767  -23.8484 C.ar    1  UNL1        0.1946
     35 C         -68.0042  -54.2540  -23.1893 C.ar    1  UNL1        0.0202
     36 C         -68.3394  -53.4265  -21.9852 C.3     1  UNL1        0.0345
     37 C         -68.8630  -55.0741  -23.8937 C.ar    1  UNL1        0.0337
     38 C         -70.2184  -55.3583  -23.7256 C.ar    1  UNL1        0.0028
     39 C         -75.3457  -57.0078  -26.7025 C.3     1  UNL1        0.0310
     40 C         -74.4603  -56.9850  -25.4916 C.ar    1  UNL1       -0.0218
     41 C         -74.9986  -57.2230  -24.2190 C.ar    1  UNL1       -0.0043
     42 C         -74.1802  -57.1697  -23.0891 C.ar    1  UNL1       -0.0003
     43 C         -72.8229  -56.8661  -23.2178 C.ar    1  UNL1       -0.0000
     44 C         -72.2680  -56.6051  -24.4836 C.ar    1  UNL1       -0.0003
     45 C         -73.1001  -56.6613  -25.6176 C.ar    1  UNL1       -0.0043
@<TRIPOS>BOND
     1    39    40    1
     2    40    41   ar
     3    41    42   ar
     4    42    43   ar
     5    43    44   ar
     6    44    29    1
     7    29    30   ar
     8    30    31   ar
     9    31    32   ar
    10    32    33   ar
    11    33    34   ar
    12    34    25    1
    13    25    26    2
    14    25    27   am
    15    27     1    1
    16     1     2   ar
    17     2     3   ar
    18     3     4   ar
    19     4     7    1
    20     7     8    1
    21     8     9    1
    22     9    10    1
    23    10    13    1
    24    13    14    1
    25    14    15    1
    26    15    16   ar
    27    16    17   ar
    28    17    18   ar
    29    18    19   ar
    30    19    21    1
    31    21    22    2
    32    21    23    1
    33    19    20   ar
    34    10    11    1
    35    11    12    1
    36     4     5   ar
    37     5     6   ar
    38    34    35   ar
    39    35    36    1
    40    35    37   ar
    41    37    38   ar
    42    44    45   ar
    43    45    40   ar
    44    38    29   ar
    45    37    32   ar
    46     6     1   ar
    47    12     7    1
    48    20    15   ar
    49    27    28    1
    50    23    24    1
