@<TRIPOS>MOLECULE
*****
 36 38 0 0 0
SMALL
GASTEIGER

@<TRIPOS>ATOM
      1 C          50.0990   10.2005  -24.5713 C.ar    1  UNL1        0.0209
      2 C          49.4872    9.6992  -23.4121 C.ar    1  UNL1       -0.0007
      3 C          48.3942   10.3620  -22.8492 C.ar    1  UNL1       -0.0005
      4 C          47.9115   11.5366  -23.4304 C.ar    1  UNL1       -0.0029
      5 C          48.5152   12.0527  -24.5875 C.ar    1  UNL1       -0.0063
      6 C          49.6026   11.3745  -25.1607 C.ar    1  UNL1       -0.0036
      7 C          51.3160    9.5135  -25.1294 C.3     1  UNL1        0.2320
      8 O          51.6516   10.0678  -26.4019 O.3     1  UNL1       -0.4706
      9 C          50.8004    8.1749  -30.0823 C.ar    1  UNL1       -0.0097
     10 C          49.8009    8.3704  -29.1117 C.ar    1  UNL1       -0.0002
     11 C          50.0998    9.0116  -27.9069 C.ar    1  UNL1        0.0366
     12 C          51.3986    9.4569  -27.6407 C.ar    1  UNL1        0.1390
     13 C          52.3964    9.2807  -28.6169 C.ar    1  UNL1        0.0366
     14 C          52.0979    8.6471  -29.8256 C.ar    1  UNL1       -0.0002
     15 C          50.4922    7.4772  -31.3928 C.3     1  UNL1        0.0973
     16 C          54.0025    6.0282  -33.0391 C.3     1  UNL1        0.0900
     17 C          52.7583    6.5370  -32.4630 C.1     1  UNL1       -0.0897
     18 C          51.7351    6.9582  -31.9846 C.1     1  UNL1       -0.0870
     19 C          49.4712    6.3388  -31.2164 C.3     1  UNL1        0.1267
     20 C          48.6374    6.1562  -32.4513 C.2     1  UNL1        0.3152
     21 O          47.4374    6.5371  -32.4617 O.2     1  UNL1       -0.2502
     22 O          49.1900    5.6028  -33.6025 O.3     1  UNL1       -0.4801
     23 H          50.1575    5.3034  -33.6267 H       1  UNL1        0.2951
     24 C          48.0229   13.3481  -25.1755 C.3     1  UNL1        0.0996
     25 N          46.7363   13.1463  -25.8804 N.3     1  UNL1       -0.2579
     26 C          46.8398   13.6403  -27.2724 C.3     1  UNL1        0.1001
     27 C          46.6699   12.5138  -28.2508 C.ar    1  UNL1        0.0009
     28 C          46.9049   11.1672  -27.9309 C.ar    1  UNL1        0.0046
     29 C          46.7137   10.3029  -28.9993 C.ar    1  UNL1        0.0352
     30 S          46.2575   11.2161  -30.3344 S.2     1  UNL1       -0.0862
     31 C          46.2952   12.7144  -29.5752 C.ar    1  UNL1        0.0325
     32 C          45.6025   13.7841  -25.1548 C.3     1  UNL1        0.1772
     33 C          44.5869   12.7295  -24.7087 C.3     1  UNL1        0.4121
     34 F          43.3125   13.2642  -24.6964 F       1  UNL1       -0.1685
     35 F          44.6144   11.6654  -25.5901 F       1  UNL1       -0.1685
     36 F          44.8945   12.2639  -23.4443 F       1  UNL1       -0.1685
@<TRIPOS>BOND
     1    16    17    1
     2    17    18    3
     3    18    15    1
     4    15    19    1
     5    19    20    1
     6    20    21    2
     7    20    22    1
     8    15     9    1
     9     9    10   ar
    10    10    11   ar
    11    11    12   ar
    12    12     8    1
    13     8     7    1
    14     7     1    1
    15     1     2   ar
    16     2     3   ar
    17     3     4   ar
    18     4     5   ar
    19     5    24    1
    20    24    25    1
    21    25    26    1
    22    26    27    1
    23    27    28   ar
    24    28    29   ar
    25    29    30   ar
    26    30    31   ar
    27    25    32    1
    28    32    33    1
    29    33    34    1
    30    33    35    1
    31    33    36    1
    32     5     6   ar
    33    12    13   ar
    34    13    14   ar
    35    14     9   ar
    36     6     1   ar
    37    31    27   ar
    38    22    23    1
@<TRIPOS>MOLECULE
*****
 36 38 0 0 0
SMALL
GASTEIGER

@<TRIPOS>ATOM
      1 C          50.3666   12.2654  -25.2599 C.ar    1  UNL1        0.0209
      2 C          51.1336   13.0188  -24.3580 C.ar    1  UNL1       -0.0007
      3 C          50.7658   14.3289  -24.0432 C.ar    1  UNL1       -0.0005
      4 C          49.6382   14.9019  -24.6353 C.ar    1  UNL1       -0.0029
      5 C          48.8633   14.1627  -25.5423 C.ar    1  UNL1       -0.0063
      6 C          49.2258   12.8401  -25.8432 C.ar    1  UNL1       -0.0036
      7 C          50.8108   10.8788  -25.6403 C.3     1  UNL1        0.2320
      8 O          49.8940   10.3097  -26.5756 O.3     1  UNL1       -0.4706
      9 C          51.0263    7.7858  -29.7695 C.ar    1  UNL1       -0.0097
     10 C          51.9136    8.7421  -29.2426 C.ar    1  UNL1       -0.0002
     11 C          51.5247    9.5573  -28.1767 C.ar    1  UNL1        0.0366
     12 C          50.2441    9.4454  -27.6255 C.ar    1  UNL1        0.1390
     13 C          49.3608    8.4770  -28.1368 C.ar    1  UNL1        0.0366
     14 C          49.7504    7.6553  -29.1973 C.ar    1  UNL1       -0.0002
     15 C          51.4326    6.8969  -30.9288 C.3     1  UNL1        0.0973
     16 C          48.0987    5.9960  -33.2104 C.3     1  UNL1        0.0900
     17 C          49.2797    6.3076  -32.4060 C.1     1  UNL1       -0.0897
     18 C          50.2514    6.5687  -31.7421 C.1     1  UNL1       -0.0870
     19 C          52.5174    7.5483  -31.8052 C.3     1  UNL1        0.1267
     20 C          53.5743    6.5558  -32.1948 C.2     1  UNL1        0.3152
     21 O          54.7058    6.5934  -31.6439 O.2     1  UNL1       -0.2502
     22 O          53.3031    5.5660  -33.1348 O.3     1  UNL1       -0.4801
     23 H          52.3958    5.5027  -33.5809 H       1  UNL1        0.2951
     24 C          47.6814   14.8063  -26.2168 C.3     1  UNL1        0.0996
     25 N          46.6165   13.8087  -26.4690 N.3     1  UNL1       -0.2579
     26 C          46.0474   14.0079  -27.8213 C.3     1  UNL1        0.1001
     27 C          46.2473   12.7840  -28.6683 C.ar    1  UNL1        0.0009
     28 C          46.6794   11.5500  -28.1574 C.ar    1  UNL1        0.0046
     29 C          46.8232   10.5688  -29.1278 C.ar    1  UNL1        0.0352
     30 S          46.4162   11.2405  -30.6137 S.2     1  UNL1       -0.0862
     31 C          46.0521   12.7791  -30.0455 C.ar    1  UNL1        0.0325
     32 C          45.5614   13.8488  -25.4183 C.3     1  UNL1        0.1772
     33 C          45.2471   12.4375  -24.9163 C.3     1  UNL1        0.4121
     34 F          46.4157   11.7597  -24.6244 F       1  UNL1       -0.1685
     35 F          44.4818   12.5195  -23.7685 F       1  UNL1       -0.1685
     36 F          44.5395   11.7299  -25.8695 F       1  UNL1       -0.1685
@<TRIPOS>BOND
     1    16    17    1
     2    17    18    3
     3    18    15    1
     4    15    19    1
     5    19    20    1
     6    20    21    2
     7    20    22    1
     8    15     9    1
     9     9    10   ar
    10    10    11   ar
    11    11    12   ar
    12    12     8    1
    13     8     7    1
    14     7     1    1
    15     1     2   ar
    16     2     3   ar
    17     3     4   ar
    18     4     5   ar
    19     5    24    1
    20    24    25    1
    21    25    26    1
    22    26    27    1
    23    27    28   ar
    24    28    29   ar
    25    29    30   ar
    26    30    31   ar
    27    25    32    1
    28    32    33    1
    29    33    34    1
    30    33    35    1
    31    33    36    1
    32     5     6   ar
    33    12    13   ar
    34    13    14   ar
    35    14     9   ar
    36     6     1   ar
    37    31    27   ar
    38    22    23    1
@<TRIPOS>MOLECULE
*****
 36 38 0 0 0
SMALL
GASTEIGER

@<TRIPOS>ATOM
      1 C          46.5643   14.4876  -27.2605 C.ar    1  UNL1        0.0209
      2 C          45.6155   15.3772  -27.7874 C.ar    1  UNL1       -0.0007
      3 C          45.5153   16.6777  -27.2880 C.ar    1  UNL1       -0.0005
      4 C          46.3514   17.0966  -26.2508 C.ar    1  UNL1       -0.0029
      5 C          47.3026   16.2173  -25.7106 C.ar    1  UNL1       -0.0063
      6 C          47.4125   14.9163  -26.2268 C.ar    1  UNL1       -0.0036
      7 C          46.6172   13.0698  -27.7622 C.3     1  UNL1        0.2320
      8 O          46.0041   12.1921  -26.8172 O.3     1  UNL1       -0.4706
      9 C          47.2124   11.7307  -22.7948 C.ar    1  UNL1       -0.0097
     10 C          48.0668   11.3894  -23.8593 C.ar    1  UNL1       -0.0002
     11 C          47.6535   11.5632  -25.1825 C.ar    1  UNL1        0.0366
     12 C          46.3804   12.0658  -25.4703 C.ar    1  UNL1        0.1390
     13 C          45.5306   12.4267  -24.4087 C.ar    1  UNL1        0.0366
     14 C          45.9449   12.2614  -23.0848 C.ar    1  UNL1       -0.0002
     15 C          47.6453   11.5440  -21.3537 C.3     1  UNL1        0.0973
     16 C          44.4218   12.1176  -18.8216 C.3     1  UNL1        0.0900
     17 C          45.5567   11.9100  -19.7202 C.1     1  UNL1       -0.0897
     18 C          46.4946   11.7421  -20.4587 C.1     1  UNL1       -0.0870
     19 C          48.2744   10.1599  -21.1129 C.3     1  UNL1        0.1267
     20 C          49.5610   10.2700  -20.3473 C.2     1  UNL1        0.3152
     21 O          50.4503   11.0773  -20.7250 O.2     1  UNL1       -0.2502
     22 O          49.7668    9.5136  -19.1973 O.3     1  UNL1       -0.4801
     23 H          49.0610    8.8689  -18.8619 H       1  UNL1        0.2951
     24 C          48.1621   16.6598  -24.5567 C.3     1  UNL1        0.0996
     25 N          49.5808   16.3107  -24.7979 N.3     1  UNL1       -0.2579
     26 C          50.1001   15.5000  -23.6730 C.3     1  UNL1        0.1001
     27 C          50.6966   14.2158  -24.1735 C.ar    1  UNL1        0.0009
     28 C          50.7224   13.8494  -25.5284 C.ar    1  UNL1        0.0046
     29 C          51.2955   12.6063  -25.7548 C.ar    1  UNL1        0.0352
     30 S          51.7633   11.9691  -24.2717 S.2     1  UNL1       -0.0862
     31 C          51.2476   13.2593  -23.3272 C.ar    1  UNL1        0.0325
     32 C          50.4158   17.5216  -25.0328 C.3     1  UNL1        0.1772
     33 C          50.7159   17.6881  -26.5244 C.3     1  UNL1        0.4121
     34 F          52.0588   17.9514  -26.7182 F       1  UNL1       -0.1685
     35 F          50.3906   16.5216  -27.1901 F       1  UNL1       -0.1685
     36 F          49.9704   18.7230  -27.0567 F       1  UNL1       -0.1685
@<TRIPOS>BOND
     1    16    17    1
     2    17    18    3
     3    18    15    1
     4    15    19    1
     5    19    20    1
     6    20    21    2
     7    20    22    1
     8    15     9    1
     9     9    10   ar
    10    10    11   ar
    11    11    12   ar
    12    12     8    1
    13     8     7    1
    14     7     1    1
    15     1     2   ar
    16     2     3   ar
    17     3     4   ar
    18     4     5   ar
    19     5    24    1
    20    24    25    1
    21    25    26    1
    22    26    27    1
    23    27    28   ar
    24    28    29   ar
    25    29    30   ar
    26    30    31   ar
    27    25    32    1
    28    32    33    1
    29    33    34    1
    30    33    35    1
    31    33    36    1
    32     5     6   ar
    33    12    13   ar
    34    13    14   ar
    35    14     9   ar
    36     6     1   ar
    37    31    27   ar
    38    22    23    1
@<TRIPOS>MOLECULE
*****
 36 38 0 0 0
SMALL
GASTEIGER

@<TRIPOS>ATOM
      1 C          46.2375   13.4147  -27.1361 C.ar    1  UNL1        0.0209
      2 C          46.0004   13.5615  -28.5114 C.ar    1  UNL1       -0.0007
      3 C          45.8738   14.8341  -29.0728 C.ar    1  UNL1       -0.0005
      4 C          45.9694   15.9693  -28.2649 C.ar    1  UNL1       -0.0029
      5 C          46.2021   15.8388  -26.8870 C.ar    1  UNL1       -0.0063
      6 C          46.3464   14.5586  -26.3288 C.ar    1  UNL1       -0.0036
      7 C          46.3062   12.0374  -26.5336 C.3     1  UNL1        0.2320
      8 O          47.4266   11.9427  -25.6533 O.3     1  UNL1       -0.4706
      9 C          47.1610   12.0377  -21.4375 C.ar    1  UNL1       -0.0097
     10 C          46.3202   12.8288  -22.2416 C.ar    1  UNL1       -0.0002
     11 C          46.4141   12.7719  -23.6344 C.ar    1  UNL1        0.0366
     12 C          47.3534   11.9391  -24.2510 C.ar    1  UNL1        0.1390
     13 C          48.1826   11.1320  -23.4507 C.ar    1  UNL1        0.0366
     14 C          48.0849   11.1811  -22.0580 C.ar    1  UNL1       -0.0002
     15 C          47.0736   12.0916  -19.9246 C.3     1  UNL1        0.0973
     16 C          43.1124   11.8914  -18.7409 C.3     1  UNL1        0.0900
     17 C          44.5113   11.9695  -19.1603 C.1     1  UNL1       -0.0897
     18 C          45.6649   12.0294  -19.5051 C.1     1  UNL1       -0.0870
     19 C          47.8776   10.9611  -19.2576 C.3     1  UNL1        0.1267
     20 C          49.0271   11.5052  -18.4598 C.2     1  UNL1        0.3152
     21 O          49.3102   12.7305  -18.5203 O.2     1  UNL1       -0.2502
     22 O          49.7624   10.6732  -17.6208 O.3     1  UNL1       -0.4801
     23 H          49.5452    9.6870  -17.5405 H       1  UNL1        0.2951
     24 C          46.2495   17.0652  -26.0155 C.3     1  UNL1        0.0996
     25 N          47.6163   17.2781  -25.4868 N.3     1  UNL1       -0.2579
     26 C          47.6404   17.0186  -24.0292 C.3     1  UNL1        0.1001
     27 C          48.6252   15.9342  -23.6981 C.ar    1  UNL1        0.0009
     28 C          48.8527   15.4653  -22.3946 C.ar    1  UNL1        0.0046
     29 C          49.8285   14.4816  -22.3225 C.ar    1  UNL1        0.0352
     30 S          50.4046   14.2030  -23.8766 S.2     1  UNL1       -0.0862
     31 C          49.4249   15.3222  -24.6576 C.ar    1  UNL1        0.0325
     32 C          48.1284   18.6389  -25.8104 C.3     1  UNL1        0.1772
     33 C          49.3884   18.5490  -26.6745 C.3     1  UNL1        0.4121
     34 F          49.3929   19.5533  -27.6240 F       1  UNL1       -0.1685
     35 F          50.5050   18.6900  -25.8724 F       1  UNL1       -0.1685
     36 F          49.4537   17.3240  -27.3111 F       1  UNL1       -0.1685
@<TRIPOS>BOND
     1    16    17    1
     2    17    18    3
     3    18    15    1
     4    15    19    1
     5    19    20    1
     6    20    21    2
     7    20    22    1
     8    15     9    1
     9     9    10   ar
    10    10    11   ar
    11    11    12   ar
    12    12     8    1
    13     8     7    1
    14     7     1    1
    15     1     2   ar
    16     2     3   ar
    17     3     4   ar
    18     4     5   ar
    19     5    24    1
    20    24    25    1
    21    25    26    1
    22    26    27    1
    23    27    28   ar
    24    28    29   ar
    25    29    30   ar
    26    30    31   ar
    27    25    32    1
    28    32    33    1
    29    33    34    1
    30    33    35    1
    31    33    36    1
    32     5     6   ar
    33    12    13   ar
    34    13    14   ar
    35    14     9   ar
    36     6     1   ar
    37    31    27   ar
    38    22    23    1
@<TRIPOS>MOLECULE
*****
 36 38 0 0 0
SMALL
GASTEIGER

@<TRIPOS>ATOM
      1 C          50.0697   13.3086  -24.1645 C.ar    1  UNL1        0.0209
      2 C          50.1123   14.2933  -23.1656 C.ar    1  UNL1       -0.0007
      3 C          49.2991   15.4252  -23.2567 C.ar    1  UNL1       -0.0005
      4 C          48.4471   15.5899  -24.3510 C.ar    1  UNL1       -0.0029
      5 C          48.3962   14.6159  -25.3602 C.ar    1  UNL1       -0.0063
      6 C          49.2022   13.4709  -25.2567 C.ar    1  UNL1       -0.0036
      7 C          50.9984   12.1270  -24.0874 C.3     1  UNL1        0.2320
      8 O          51.8877   12.1286  -25.2047 O.3     1  UNL1       -0.4706
      9 C          51.7435    9.5381  -28.5396 C.ar    1  UNL1       -0.0097
     10 C          52.7643   10.4964  -28.4010 C.ar    1  UNL1       -0.0002
     11 C          52.8021   11.3339  -27.2833 C.ar    1  UNL1        0.0366
     12 C          51.8197   11.2427  -26.2920 C.ar    1  UNL1        0.1390
     13 C          50.8085   10.2725  -26.4173 C.ar    1  UNL1        0.0366
     14 C          50.7733    9.4286  -27.5301 C.ar    1  UNL1       -0.0002
     15 C          51.6868    8.6250  -29.7488 C.3     1  UNL1        0.0973
     16 C          55.3469    6.7571  -30.2457 C.3     1  UNL1        0.0900
     17 C          54.0502    7.4105  -30.0709 C.1     1  UNL1       -0.0897
     18 C          52.9835    7.9531  -29.9261 C.1     1  UNL1       -0.0870
     19 C          50.5591    7.5836  -29.6355 C.3     1  UNL1        0.1267
     20 C          49.9014    7.3435  -30.9634 C.2     1  UNL1        0.3152
     21 O          50.5544    6.8171  -31.9025 O.2     1  UNL1       -0.2502
     22 O          48.5606    7.6627  -31.1568 O.3     1  UNL1       -0.4801
     23 H          48.0076    8.0716  -30.4130 H       1  UNL1        0.2951
     24 C          47.5156   14.8278  -26.5625 C.3     1  UNL1        0.0996
     25 N          46.5425   13.7199  -26.6992 N.3     1  UNL1       -0.2579
     26 C          46.0122   13.6806  -28.0811 C.3     1  UNL1        0.1001
     27 C          46.3592   12.3802  -28.7474 C.ar    1  UNL1        0.0009
     28 C          46.9545   11.3002  -28.0765 C.ar    1  UNL1        0.0046
     29 C          47.2126   10.2125  -28.8983 C.ar    1  UNL1        0.0352
     30 S          46.7033   10.5999  -30.4524 S.2     1  UNL1       -0.0862
     31 C          46.1493   12.1468  -30.1024 C.ar    1  UNL1        0.0325
     32 C          45.4477   13.8186  -25.6940 C.3     1  UNL1        0.1772
     33 C          45.1962   12.4599  -25.0360 C.3     1  UNL1        0.4121
     34 F          44.5420   11.6149  -25.9126 F       1  UNL1       -0.1685
     35 F          46.4054   11.8892  -24.6869 F       1  UNL1       -0.1685
     36 F          44.4315   12.6078  -23.8944 F       1  UNL1       -0.1685
@<TRIPOS>BOND
     1    16    17    1
     2    17    18    3
     3    18    15    1
     4    15    19    1
     5    19    20    1
     6    20    21    2
     7    20    22    1
     8    15     9    1
     9     9    10   ar
    10    10    11   ar
    11    11    12   ar
    12    12     8    1
    13     8     7    1
    14     7     1    1
    15     1     2   ar
    16     2     3   ar
    17     3     4   ar
    18     4     5   ar
    19     5    24    1
    20    24    25    1
    21    25    26    1
    22    26    27    1
    23    27    28   ar
    24    28    29   ar
    25    29    30   ar
    26    30    31   ar
    27    25    32    1
    28    32    33    1
    29    33    34    1
    30    33    35    1
    31    33    36    1
    32     5     6   ar
    33    12    13   ar
    34    13    14   ar
    35    14     9   ar
    36     6     1   ar
    37    31    27   ar
    38    22    23    1
@<TRIPOS>MOLECULE
*****
 36 38 0 0 0
SMALL
GASTEIGER

@<TRIPOS>ATOM
      1 C          50.8459    9.5158  -24.5207 C.ar    1  UNL1        0.0209
      2 C          50.9094    9.1852  -25.8830 C.ar    1  UNL1       -0.0007
      3 C          51.1142   10.1808  -26.8409 C.ar    1  UNL1       -0.0005
      4 C          51.2439   11.5149  -26.4487 C.ar    1  UNL1       -0.0029
      5 C          51.1785   11.8619  -25.0904 C.ar    1  UNL1       -0.0063
      6 C          50.9901   10.8565  -24.1286 C.ar    1  UNL1       -0.0036
      7 C          50.5593    8.4429  -23.5051 C.3     1  UNL1        0.2320
      8 O          49.1880    8.4955  -23.1100 O.3     1  UNL1       -0.4706
      9 C          47.5916   11.1638  -20.2491 C.ar    1  UNL1       -0.0097
     10 C          48.5880   10.2320  -19.9048 C.ar    1  UNL1       -0.0002
     11 C          49.1131    9.3682  -20.8692 C.ar    1  UNL1        0.0366
     12 C          48.6480    9.4062  -22.1876 C.ar    1  UNL1        0.1390
     13 C          47.6657   10.3498  -22.5402 C.ar    1  UNL1        0.0366
     14 C          47.1450   11.2200  -21.5794 C.ar    1  UNL1       -0.0002
     15 C          47.0091   12.1050  -19.2127 C.3     1  UNL1        0.0973
     16 C          42.8786   11.8394  -19.2097 C.3     1  UNL1        0.0900
     17 C          44.3384   11.9271  -19.2150 C.1     1  UNL1       -0.0897
     18 C          45.5415   12.0033  -19.2170 C.1     1  UNL1       -0.0870
     19 C          47.5576   11.8238  -17.8022 C.3     1  UNL1        0.1267
     20 C          48.4550   12.9323  -17.3337 C.2     1  UNL1        0.3152
     21 O          49.6298   13.0205  -17.7780 O.2     1  UNL1       -0.2502
     22 O          47.9879   13.8902  -16.4387 O.3     1  UNL1       -0.4801
     23 H          47.0418   13.8525  -16.0786 H       1  UNL1        0.2951
     24 C          51.2648   13.3080  -24.6813 C.3     1  UNL1        0.0996
     25 N          50.0519   13.7132  -23.9347 N.3     1  UNL1       -0.2579
     26 C          49.0838   14.3547  -24.8532 C.3     1  UNL1        0.1001
     27 C          47.7890   13.5944  -24.8773 C.ar    1  UNL1        0.0009
     28 C          47.5661   12.4688  -25.6860 C.ar    1  UNL1        0.0046
     29 C          46.2862   11.9464  -25.5670 C.ar    1  UNL1        0.0352
     30 S          45.4391   12.8870  -24.4614 S.2     1  UNL1       -0.0862
     31 C          46.6824   13.9641  -24.1200 C.ar    1  UNL1        0.0325
     32 C          50.3819   14.5961  -22.7812 C.3     1  UNL1        0.1772
     33 C          49.8839   13.9803  -21.4716 C.3     1  UNL1        0.4121
     34 F          48.5147   14.1319  -21.3590 F       1  UNL1       -0.1685
     35 F          50.1849   12.6316  -21.4559 F       1  UNL1       -0.1685
     36 F          50.4964   14.5822  -20.3887 F       1  UNL1       -0.1685
@<TRIPOS>BOND
     1    16    17    1
     2    17    18    3
     3    18    15    1
     4    15    19    1
     5    19    20    1
     6    20    21    2
     7    20    22    1
     8    15     9    1
     9     9    10   ar
    10    10    11   ar
    11    11    12   ar
    12    12     8    1
    13     8     7    1
    14     7     1    1
    15     1     2   ar
    16     2     3   ar
    17     3     4   ar
    18     4     5   ar
    19     5    24    1
    20    24    25    1
    21    25    26    1
    22    26    27    1
    23    27    28   ar
    24    28    29   ar
    25    29    30   ar
    26    30    31   ar
    27    25    32    1
    28    32    33    1
    29    33    34    1
    30    33    35    1
    31    33    36    1
    32     5     6   ar
    33    12    13   ar
    34    13    14   ar
    35    14     9   ar
    36     6     1   ar
    37    31    27   ar
    38    22    23    1
@<TRIPOS>MOLECULE
*****
 36 38 0 0 0
SMALL
GASTEIGER

@<TRIPOS>ATOM
      1 C          45.2676   13.7007  -25.8502 C.ar    1  UNL1        0.0209
      2 C          45.7647   13.1580  -27.0450 C.ar    1  UNL1       -0.0007
      3 C          46.5868   13.9211  -27.8772 C.ar    1  UNL1       -0.0005
      4 C          46.9086   15.2352  -27.5307 C.ar    1  UNL1       -0.0029
      5 C          46.4158   15.7935  -26.3411 C.ar    1  UNL1       -0.0063
      6 C          45.6040   15.0178  -25.4982 C.ar    1  UNL1       -0.0036
      7 C          44.3300   12.8907  -24.9960 C.3     1  UNL1        0.2320
      8 O          44.7636   12.9125  -23.6356 O.3     1  UNL1       -0.4706
      9 C          48.0966   10.7404  -22.2122 C.ar    1  UNL1       -0.0097
     10 C          47.9172   10.9886  -23.5854 C.ar    1  UNL1       -0.0002
     11 C          46.8157   11.7215  -24.0344 C.ar    1  UNL1        0.0366
     12 C          45.8675   12.2081  -23.1287 C.ar    1  UNL1        0.1390
     13 C          46.0538   11.9787  -21.7531 C.ar    1  UNL1        0.0366
     14 C          47.1587   11.2531  -21.3013 C.ar    1  UNL1       -0.0002
     15 C          49.2847    9.9432  -21.7102 C.3     1  UNL1        0.0973
     16 C          51.8694    9.1759  -24.8507 C.3     1  UNL1        0.0900
     17 C          50.9548    9.4396  -23.7404 C.1     1  UNL1       -0.0897
     18 C          50.2020    9.6615  -22.8254 C.1     1  UNL1       -0.0870
     19 C          50.0320   10.6693  -20.5773 C.3     1  UNL1        0.1267
     20 C          49.8124    9.9919  -19.2557 C.2     1  UNL1        0.3152
     21 O          50.3635    8.8852  -19.0172 O.2     1  UNL1       -0.2502
     22 O          49.0337   10.5949  -18.2724 O.3     1  UNL1       -0.4801
     23 H          48.5926   11.4929  -18.4319 H       1  UNL1        0.2951
     24 C          46.7231   17.2278  -26.0028 C.3     1  UNL1        0.0996
     25 N          48.1135   17.3624  -25.5114 N.3     1  UNL1       -0.2579
     26 C          48.1538   17.1553  -24.0458 C.3     1  UNL1        0.1001
     27 C          48.8479   15.8667  -23.7095 C.ar    1  UNL1        0.0009
     28 C          48.7247   15.2207  -22.4692 C.ar    1  UNL1        0.0046
     29 C          49.4796   14.0606  -22.3719 C.ar    1  UNL1        0.0352
     30 S          50.2973   13.8464  -23.8245 S.2     1  UNL1       -0.0862
     31 C          49.7041   15.2177  -24.5929 C.ar    1  UNL1        0.0325
     32 C          48.7120   18.6707  -25.8973 C.3     1  UNL1        0.1772
     33 C          50.0216   18.4600  -26.6607 C.3     1  UNL1        0.4121
     34 F          51.1023   18.6112  -25.8124 F       1  UNL1       -0.1685
     35 F          50.0445   17.1824  -27.1870 F       1  UNL1       -0.1685
     36 F          50.1301   19.3670  -27.6978 F       1  UNL1       -0.1685
@<TRIPOS>BOND
     1    16    17    1
     2    17    18    3
     3    18    15    1
     4    15    19    1
     5    19    20    1
     6    20    21    2
     7    20    22    1
     8    15     9    1
     9     9    10   ar
    10    10    11   ar
    11    11    12   ar
    12    12     8    1
    13     8     7    1
    14     7     1    1
    15     1     2   ar
    16     2     3   ar
    17     3     4   ar
    18     4     5   ar
    19     5    24    1
    20    24    25    1
    21    25    26    1
    22    26    27    1
    23    27    28   ar
    24    28    29   ar
    25    29    30   ar
    26    30    31   ar
    27    25    32    1
    28    32    33    1
    29    33    34    1
    30    33    35    1
    31    33    36    1
    32     5     6   ar
    33    12    13   ar
    34    13    14   ar
    35    14     9   ar
    36     6     1   ar
    37    31    27   ar
    38    22    23    1
@<TRIPOS>MOLECULE
*****
 36 38 0 0 0
SMALL
GASTEIGER

@<TRIPOS>ATOM
      1 C          49.2759   10.2856  -22.3797 C.ar    1  UNL1        0.0209
      2 C          49.1288    8.9013  -22.5567 C.ar    1  UNL1       -0.0007
      3 C          50.0017    8.2011  -23.3924 C.ar    1  UNL1       -0.0005
      4 C          51.0194    8.8779  -24.0681 C.ar    1  UNL1       -0.0029
      5 C          51.1768   10.2629  -23.9047 C.ar    1  UNL1       -0.0063
      6 C          50.3086   10.9610  -23.0502 C.ar    1  UNL1       -0.0036
      7 C          48.2889   11.0382  -21.5288 C.3     1  UNL1        0.2320
      8 O          47.0845   11.2670  -22.2612 O.3     1  UNL1       -0.4706
      9 C          46.4068   14.4583  -24.9462 C.ar    1  UNL1       -0.0097
     10 C          46.0778   13.1333  -25.2865 C.ar    1  UNL1       -0.0002
     11 C          46.2966   12.0941  -24.3786 C.ar    1  UNL1        0.0366
     12 C          46.8578   12.3517  -23.1237 C.ar    1  UNL1        0.1390
     13 C          47.1699   13.6778  -22.7723 C.ar    1  UNL1        0.0366
     14 C          46.9446   14.7195  -23.6754 C.ar    1  UNL1       -0.0002
     15 C          46.1790   15.5960  -25.9223 C.3     1  UNL1        0.0973
     16 C          49.2875   18.3188  -25.6853 C.3     1  UNL1        0.0900
     17 C          48.1915   17.3535  -25.7627 C.1     1  UNL1       -0.0897
     18 C          47.2865   16.5600  -25.8302 C.1     1  UNL1       -0.0870
     19 C          46.0287   15.0953  -27.3701 C.3     1  UNL1        0.1267
     20 C          45.4044   16.1408  -28.2480 C.2     1  UNL1        0.3152
     21 O          44.3067   16.6633  -27.9203 O.2     1  UNL1       -0.2502
     22 O          46.0475   16.5684  -29.4058 O.3     1  UNL1       -0.4801
     23 H          46.9395   16.1768  -29.6839 H       1  UNL1        0.2951
     24 C          52.2419   10.9927  -24.6788 C.3     1  UNL1        0.0996
     25 N          51.6772   11.5859  -25.9125 N.3     1  UNL1       -0.2579
     26 C          52.4334   11.1110  -27.0936 C.3     1  UNL1        0.1001
     27 C          51.6656   10.0470  -27.8243 C.ar    1  UNL1        0.0009
     28 C          50.3364    9.7076  -27.5265 C.ar    1  UNL1        0.0046
     29 C          49.8399    8.6754  -28.3095 C.ar    1  UNL1        0.0352
     30 S          51.0551    8.1888  -29.3636 S.2     1  UNL1       -0.0862
     31 C          52.2217    9.2795  -28.8423 C.ar    1  UNL1        0.0325
     32 C          51.6428   13.0736  -25.8449 C.3     1  UNL1        0.1772
     33 C          50.2251   13.5667  -25.5459 C.3     1  UNL1        0.4121
     34 F          49.3136   12.5418  -25.7162 F       1  UNL1       -0.1685
     35 F          50.1598   14.0074  -24.2377 F       1  UNL1       -0.1685
     36 F          49.8894   14.6145  -26.3823 F       1  UNL1       -0.1685
@<TRIPOS>BOND
     1    16    17    1
     2    17    18    3
     3    18    15    1
     4    15    19    1
     5    19    20    1
     6    20    21    2
     7    20    22    1
     8    15     9    1
     9     9    10   ar
    10    10    11   ar
    11    11    12   ar
    12    12     8    1
    13     8     7    1
    14     7     1    1
    15     1     2   ar
    16     2     3   ar
    17     3     4   ar
    18     4     5   ar
    19     5    24    1
    20    24    25    1
    21    25    26    1
    22    26    27    1
    23    27    28   ar
    24    28    29   ar
    25    29    30   ar
    26    30    31   ar
    27    25    32    1
    28    32    33    1
    29    33    34    1
    30    33    35    1
    31    33    36    1
    32     5     6   ar
    33    12    13   ar
    34    13    14   ar
    35    14     9   ar
    36     6     1   ar
    37    31    27   ar
    38    22    23    1
@<TRIPOS>MOLECULE
*****
 36 38 0 0 0
SMALL
GASTEIGER

@<TRIPOS>ATOM
      1 C          51.5474   10.0602  -24.7517 C.ar    1  UNL1        0.0209
      2 C          51.8229    9.9646  -26.1244 C.ar    1  UNL1       -0.0007
      3 C          52.0015   11.1195  -26.8893 C.ar    1  UNL1       -0.0005
      4 C          51.8937   12.3782  -26.2940 C.ar    1  UNL1       -0.0029
      5 C          51.6145   12.4903  -24.9232 C.ar    1  UNL1       -0.0063
      6 C          51.4529   11.3272  -24.1536 C.ar    1  UNL1       -0.0036
      7 C          51.2922    8.8105  -23.9531 C.3     1  UNL1        0.2320
      8 O          49.8910    8.6485  -23.7305 O.3     1  UNL1       -0.4706
      9 C          47.7144   10.4332  -20.5794 C.ar    1  UNL1       -0.0097
     10 C          48.7597    9.5265  -20.3250 C.ar    1  UNL1       -0.0002
     11 C          49.4767    8.9583  -21.3809 C.ar    1  UNL1        0.0366
     12 C          49.1589    9.2707  -22.7066 C.ar    1  UNL1        0.1390
     13 C          48.1273   10.1920  -22.9645 C.ar    1  UNL1        0.0366
     14 C          47.4143   10.7676  -21.9100 C.ar    1  UNL1       -0.0002
     15 C          46.9246   11.0548  -19.4440 C.3     1  UNL1        0.0973
     16 C          49.5200   12.5877  -16.6075 C.3     1  UNL1        0.0900
     17 C          48.6031   12.0394  -17.6063 C.1     1  UNL1       -0.0897
     18 C          47.8471   11.5916  -18.4315 C.1     1  UNL1       -0.0870
     19 C          45.9744   12.1607  -19.9375 C.3     1  UNL1        0.1267
     20 C          44.6431   12.0853  -19.2477 C.2     1  UNL1        0.3152
     21 O          44.4639   12.6916  -18.1588 O.2     1  UNL1       -0.2502
     22 O          43.5884   11.3808  -19.8206 O.3     1  UNL1       -0.4801
     23 H          43.7004   10.8980  -20.7041 H       1  UNL1        0.2951
     24 C          51.4463   13.8509  -24.3014 C.3     1  UNL1        0.0996
     25 N          50.1540   13.9413  -23.5839 N.3     1  UNL1       -0.2579
     26 C          49.1567   14.6412  -24.4252 C.3     1  UNL1        0.1001
     27 C          47.9595   13.7678  -24.6688 C.ar    1  UNL1        0.0009
     28 C          46.8025   13.7995  -23.8745 C.ar    1  UNL1        0.0046
     29 C          45.8365   12.8841  -24.2667 C.ar    1  UNL1        0.0352
     30 S          46.4263   12.0394  -25.5946 S.2     1  UNL1       -0.0862
     31 C          47.9091   12.8236  -25.6888 C.ar    1  UNL1        0.0325
     32 C          50.3049   14.5945  -22.2537 C.3     1  UNL1        0.1772
     33 C          49.8810   13.6411  -21.1340 C.3     1  UNL1        0.4121
     34 F          50.5014   13.9861  -19.9481 F       1  UNL1       -0.1685
     35 F          48.5124   13.7194  -20.9593 F       1  UNL1       -0.1685
     36 F          50.2115   12.3381  -21.4552 F       1  UNL1       -0.1685
@<TRIPOS>BOND
     1    16    17    1
     2    17    18    3
     3    18    15    1
     4    15    19    1
     5    19    20    1
     6    20    21    2
     7    20    22    1
     8    15     9    1
     9     9    10   ar
    10    10    11   ar
    11    11    12   ar
    12    12     8    1
    13     8     7    1
    14     7     1    1
    15     1     2   ar
    16     2     3   ar
    17     3     4   ar
    18     4     5   ar
    19     5    24    1
    20    24    25    1
    21    25    26    1
    22    26    27    1
    23    27    28   ar
    24    28    29   ar
    25    29    30   ar
    26    30    31   ar
    27    25    32    1
    28    32    33    1
    29    33    34    1
    30    33    35    1
    31    33    36    1
    32     5     6   ar
    33    12    13   ar
    34    13    14   ar
    35    14     9   ar
    36     6     1   ar
    37    31    27   ar
    38    22    23    1
