@<TRIPOS>MOLECULE
*****
 45 49 0 0 0
SMALL
GASTEIGER

@<TRIPOS>ATOM
      1 C         -30.2697   47.6862   -6.4562 C.3     1  UNL1        0.1562
      2 C         -29.6100   46.4140   -5.9172 C.3     1  UNL1        0.0622
      3 C         -28.1089   46.7301   -5.7372 C.3     1  UNL1        0.1294
      4 O         -27.4359   46.3530   -6.9149 O.3     1  UNL1       -0.3808
      5 C         -28.0921   48.2718   -5.5919 C.3     1  UNL1        0.1264
      6 N         -29.3218   48.7588   -6.1989 N.am    1  UNL1       -0.2544
      7 C         -29.7078   50.1471   -6.1774 C.2     1  UNL1        0.3081
      8 O         -30.9270   50.4605   -6.2361 O.2     1  UNL1       -0.2522
      9 N         -28.7305   51.1861   -6.0363 N.am    1  UNL1       -0.2680
     10 H         -26.4783   46.5953   -6.8088 H       1  UNL1        0.2107
     11 H         -28.9406   51.9688   -5.3765 H       1  UNL1        0.1564
     12 C         -27.5358   51.2593   -6.8292 C.ar    1  UNL1        0.0546
     13 C         -26.4043   50.5296   -6.4433 C.ar    1  UNL1        0.0158
     14 C         -25.2343   50.5866   -7.2045 C.ar    1  UNL1        0.0157
     15 C         -25.1756   51.3848   -8.3524 C.ar    1  UNL1        0.0913
     16 CL        -23.6814   51.4215   -9.2784 Cl      1  UNL1       -0.0791
     17 C         -26.2997   52.1421   -8.7350 C.ar    1  UNL1        0.1453
     18 O         -26.2818   52.9653   -9.8614 O.3     1  UNL1       -0.5046
     19 C         -27.4693   52.0783   -7.9693 C.ar    1  UNL1        0.0522
     20 H         -25.4704   53.0582  -10.4588 H       1  UNL1        0.2922
     21 C         -27.4756   45.9874   -4.5463 C.ar    1  UNL1        0.0310
     22 C         -28.2573   45.6364   -3.4215 C.ar    1  UNL1        0.0026
     23 C         -27.6817   45.0112   -2.3126 C.ar    1  UNL1        0.0295
     24 C         -26.3111   44.7608   -2.2826 C.ar    1  UNL1        0.1424
     25 F         -25.7542   44.1595   -1.2025 F       1  UNL1       -0.2041
     26 C         -25.5089   45.1593   -3.3510 C.ar    1  UNL1        0.0590
     27 C         -26.0750   45.7869   -4.4656 C.ar    1  UNL1        0.1406
     28 F         -25.2411   46.2232   -5.4421 F       1  UNL1       -0.2044
     29 O         -31.5840   48.2209   -8.3737 O.2     1  UNL1       -0.2730
     30 C         -30.5889   47.5886   -7.9275 C.2     1  UNL1        0.2454
     31 N         -29.8051   46.7540   -8.7983 N.am    1  UNL1       -0.2680
     32 H         -29.0747   46.1450   -8.3695 H       1  UNL1        0.1563
     33 C         -29.9334   46.7312  -10.2298 C.ar    1  UNL1        0.1346
     34 C         -29.1067   45.8925  -10.9891 C.ar    1  UNL1        0.0406
     35 C         -29.2205   45.8874  -12.3798 C.ar    1  UNL1        0.0736
     36 C         -30.1599   46.7144  -13.0118 C.ar    1  UNL1        0.2466
     37 C         -30.9645   47.5447  -12.2170 C.ar    1  UNL1        0.1691
     38 N         -30.8327   47.5341  -10.8640 N.ar    1  UNL1       -0.2228
     39 N         -30.2798   46.7258  -14.4489 N.am    1  UNL1       -0.0841
     40 C         -30.6023   45.5619  -15.0938 C.2     1  UNL1        0.2905
     41 C         -30.7192   45.5263  -16.4846 C.2     1  UNL1        0.0758
     42 C         -30.5068   46.6899  -17.2193 C.2     1  UNL1        0.0161
     43 C         -30.1849   47.8742  -16.5600 C.2     1  UNL1        0.1156
     44 C         -30.0776   47.8812  -15.1648 C.2     1  UNL1        0.4230
     45 O         -29.8086   48.9653  -14.5779 O.2     1  UNL1       -0.2135
@<TRIPOS>BOND
     1    29    30    2
     2    30    31   am
     3    31    33    1
     4    33    34   ar
     5    34    35   ar
     6    35    36   ar
     7    36    39    1
     8    39    40    1
     9    40    41    2
    10    41    42    1
    11    42    43    2
    12    43    44    1
    13    44    45    2
    14    36    37   ar
    15    37    38   ar
    16    30     1    1
    17     1     2    1
    18     2     3    1
    19     3     4    1
    20     3    21    1
    21    21    22   ar
    22    22    23   ar
    23    23    24   ar
    24    24    25    1
    25    24    26   ar
    26    26    27   ar
    27    27    28    1
    28     3     5    1
    29     5     6    1
    30     6     7   am
    31     7     8    2
    32     7     9   am
    33     9    12    1
    34    12    13   ar
    35    13    14   ar
    36    14    15   ar
    37    15    16    1
    38    15    17   ar
    39    17    18    1
    40    17    19   ar
    41    38    33   ar
    42     6     1    1
    43    19    12   ar
    44    44    39    1
    45    27    21   ar
    46    31    32    1
    47     4    10    1
    48     9    11    1
    49    18    20    1
@<TRIPOS>MOLECULE
*****
 45 49 0 0 0
SMALL
GASTEIGER

@<TRIPOS>ATOM
      1 C         -26.6121   50.9894   -8.9295 C.3     1  UNL1        0.1562
      2 C         -27.0152   49.9452   -9.9742 C.3     1  UNL1        0.0622
      3 C         -27.5070   48.7033   -9.1989 C.3     1  UNL1        0.1294
      4 O         -26.4149   47.8319   -9.0259 O.3     1  UNL1       -0.3808
      5 C         -27.9326   49.2919   -7.8312 C.3     1  UNL1        0.1264
      6 N         -27.2213   50.5528   -7.6832 N.am    1  UNL1       -0.2544
      7 C         -27.4293   51.4416   -6.5680 C.2     1  UNL1        0.3081
      8 O         -27.2187   52.6768   -6.7020 O.2     1  UNL1       -0.2522
      9 N         -27.9251   50.9545   -5.3144 N.am    1  UNL1       -0.2680
     10 H         -26.7276   47.0544   -8.4924 H       1  UNL1        0.2107
     11 H         -28.6704   51.5082   -4.8349 H       1  UNL1        0.1564
     12 C         -27.3779   49.8116   -4.6393 C.ar    1  UNL1        0.0546
     13 C         -27.7540   48.5244   -5.0436 C.ar    1  UNL1        0.0158
     14 C         -27.2292   47.4010   -4.4001 C.ar    1  UNL1        0.0157
     15 C         -26.3338   47.5499   -3.3351 C.ar    1  UNL1        0.0913
     16 CL        -25.6991   46.1055   -2.5589 Cl      1  UNL1       -0.0791
     17 C         -25.9688   48.8402   -2.9044 C.ar    1  UNL1        0.1453
     18 O         -25.0933   49.0374   -1.8361 O.3     1  UNL1       -0.5046
     19 C         -26.4962   49.9611   -3.5552 C.ar    1  UNL1        0.0522
     20 H         -24.6758   48.2724   -1.3219 H       1  UNL1        0.2922
     21 C         -28.6333   47.9462   -9.9262 C.ar    1  UNL1        0.0310
     22 C         -28.4513   46.6030  -10.3293 C.ar    1  UNL1        0.0026
     23 C         -29.4457   45.9238  -11.0378 C.ar    1  UNL1        0.0295
     24 C         -30.6224   46.5790  -11.3959 C.ar    1  UNL1        0.1424
     25 F         -31.5831   45.9192  -12.0888 F       1  UNL1       -0.2041
     26 C         -30.7959   47.9232  -11.0688 C.ar    1  UNL1        0.0590
     27 C         -29.8061   48.6128  -10.3606 C.ar    1  UNL1        0.1406
     28 F         -29.9907   49.9373  -10.1354 F       1  UNL1       -0.2044
     29 O         -24.5626   50.6082   -7.7700 O.2     1  UNL1       -0.2730
     30 C         -25.1151   51.1100   -8.7860 C.2     1  UNL1        0.2454
     31 N         -24.3358   51.8240   -9.7618 N.am    1  UNL1       -0.2680
     32 H         -24.8423   52.3373  -10.5156 H       1  UNL1        0.1563
     33 C         -22.8989   51.8459   -9.7922 C.ar    1  UNL1        0.1346
     34 C         -22.2227   51.5025  -10.9704 C.ar    1  UNL1        0.0406
     35 C         -20.8275   51.5059  -10.9907 C.ar    1  UNL1        0.0736
     36 C         -20.1081   51.8551   -9.8390 C.ar    1  UNL1        0.2466
     37 C         -20.8216   52.1862   -8.6772 C.ar    1  UNL1        0.1691
     38 N         -22.1810   52.1726   -8.6816 N.ar    1  UNL1       -0.2228
     39 N         -18.6659   51.8522   -9.8444 N.am    1  UNL1       -0.0841
     40 C         -18.0016   51.7113   -8.6556 C.2     1  UNL1        0.2905
     41 C         -16.6060   51.7127   -8.6143 C.2     1  UNL1        0.0758
     42 C         -15.8864   51.8570   -9.7976 C.2     1  UNL1        0.0161
     43 C         -16.5651   51.9939  -11.0066 C.2     1  UNL1        0.1156
     44 C         -17.9643   51.9857  -11.0183 C.2     1  UNL1        0.4230
     45 O         -18.5669   52.0869  -12.1223 O.2     1  UNL1       -0.2135
@<TRIPOS>BOND
     1    29    30    2
     2    30    31   am
     3    31    33    1
     4    33    34   ar
     5    34    35   ar
     6    35    36   ar
     7    36    39    1
     8    39    40    1
     9    40    41    2
    10    41    42    1
    11    42    43    2
    12    43    44    1
    13    44    45    2
    14    36    37   ar
    15    37    38   ar
    16    30     1    1
    17     1     2    1
    18     2     3    1
    19     3     4    1
    20     3    21    1
    21    21    22   ar
    22    22    23   ar
    23    23    24   ar
    24    24    25    1
    25    24    26   ar
    26    26    27   ar
    27    27    28    1
    28     3     5    1
    29     5     6    1
    30     6     7   am
    31     7     8    2
    32     7     9   am
    33     9    12    1
    34    12    13   ar
    35    13    14   ar
    36    14    15   ar
    37    15    16    1
    38    15    17   ar
    39    17    18    1
    40    17    19   ar
    41    38    33   ar
    42     6     1    1
    43    19    12   ar
    44    44    39    1
    45    27    21   ar
    46    31    32    1
    47     4    10    1
    48     9    11    1
    49    18    20    1
@<TRIPOS>MOLECULE
*****
 45 49 0 0 0
SMALL
GASTEIGER

@<TRIPOS>ATOM
      1 C         -26.4298   50.7902   -9.6160 C.3     1  UNL1        0.1562
      2 C         -26.8025   49.4730  -10.3018 C.3     1  UNL1        0.0622
      3 C         -27.4137   48.5604   -9.2160 C.3     1  UNL1        0.1294
      4 O         -26.3827   47.7682   -8.6760 O.3     1  UNL1       -0.3808
      5 C         -27.9137   49.5696   -8.1531 C.3     1  UNL1        0.1264
      6 N         -27.1543   50.7944   -8.3550 N.am    1  UNL1       -0.2544
      7 C         -27.4033   52.0009   -7.6071 C.2     1  UNL1        0.3081
      8 O         -27.1220   53.1212   -8.1112 O.2     1  UNL1       -0.2522
      9 N         -28.0179   51.9573   -6.3130 N.am    1  UNL1       -0.2680
     10 H         -26.7738   47.2125   -7.9513 H       1  UNL1        0.2107
     11 H         -28.7695   52.6528   -6.1048 H       1  UNL1        0.1564
     12 C         -27.5818   51.0830   -5.2609 C.ar    1  UNL1        0.0546
     13 C         -28.2853   49.8980   -5.0108 C.ar    1  UNL1        0.0158
     14 C         -27.8734   49.0341   -3.9932 C.ar    1  UNL1        0.0157
     15 C         -26.7625   49.3505   -3.2032 C.ar    1  UNL1        0.0913
     16 CL        -26.2818   48.2300   -1.9364 Cl      1  UNL1       -0.0791
     17 C         -26.0633   50.5519   -3.4302 C.ar    1  UNL1        0.1453
     18 O         -24.9611   50.9174   -2.6567 O.3     1  UNL1       -0.5046
     19 C         -26.4799   51.4114   -4.4529 C.ar    1  UNL1        0.0522
     20 H         -24.6070   50.3434   -1.9023 H       1  UNL1        0.2922
     21 C         -28.5167   47.6334   -9.7591 C.ar    1  UNL1        0.0310
     22 C         -29.8452   48.0995   -9.8913 C.ar    1  UNL1        0.0026
     23 C         -30.8644   47.2512  -10.3314 C.ar    1  UNL1        0.0295
     24 C         -30.5914   45.9130  -10.6083 C.ar    1  UNL1        0.1424
     25 F         -31.5837   45.0905  -11.0293 F       1  UNL1       -0.2041
     26 C         -29.3032   45.4137  -10.4202 C.ar    1  UNL1        0.0590
     27 C         -28.2758   46.2543   -9.9790 C.ar    1  UNL1        0.1406
     28 F         -27.0607   45.7019   -9.7387 F       1  UNL1       -0.2044
     29 O         -24.4495   50.4206   -8.3386 O.2     1  UNL1       -0.2730
     30 C         -24.9442   50.9178   -9.3861 C.2     1  UNL1        0.2454
     31 N         -24.1127   51.6331  -10.3167 N.am    1  UNL1       -0.2680
     32 H         -24.5769   52.1425  -11.0999 H       1  UNL1        0.1563
     33 C         -22.6766   51.6614  -10.2638 C.ar    1  UNL1        0.1346
     34 C         -22.0315   52.4191   -9.2773 C.ar    1  UNL1        0.0406
     35 C         -20.6373   52.4600   -9.2409 C.ar    1  UNL1        0.0736
     36 C         -19.8877   51.7430  -10.1843 C.ar    1  UNL1        0.2466
     37 C         -20.5706   51.0015  -11.1602 C.ar    1  UNL1        0.1691
     38 N         -21.9298   50.9800  -11.1768 N.ar    1  UNL1       -0.2228
     39 N         -18.4463   51.7856  -10.1636 N.am    1  UNL1       -0.0841
     40 C         -17.7982   51.6253   -8.9682 C.2     1  UNL1        0.2905
     41 C         -16.4044   51.6692   -8.9016 C.2     1  UNL1        0.0758
     42 C         -15.6696   51.8762  -10.0661 C.2     1  UNL1        0.0161
     43 C         -16.3315   52.0326  -11.2820 C.2     1  UNL1        0.1156
     44 C         -17.7294   51.9809  -11.3194 C.2     1  UNL1        0.4230
     45 O         -18.3159   52.1006  -12.4302 O.2     1  UNL1       -0.2135
@<TRIPOS>BOND
     1    29    30    2
     2    30    31   am
     3    31    33    1
     4    33    34   ar
     5    34    35   ar
     6    35    36   ar
     7    36    39    1
     8    39    40    1
     9    40    41    2
    10    41    42    1
    11    42    43    2
    12    43    44    1
    13    44    45    2
    14    36    37   ar
    15    37    38   ar
    16    30     1    1
    17     1     2    1
    18     2     3    1
    19     3     4    1
    20     3    21    1
    21    21    22   ar
    22    22    23   ar
    23    23    24   ar
    24    24    25    1
    25    24    26   ar
    26    26    27   ar
    27    27    28    1
    28     3     5    1
    29     5     6    1
    30     6     7   am
    31     7     8    2
    32     7     9   am
    33     9    12    1
    34    12    13   ar
    35    13    14   ar
    36    14    15   ar
    37    15    16    1
    38    15    17   ar
    39    17    18    1
    40    17    19   ar
    41    38    33   ar
    42     6     1    1
    43    19    12   ar
    44    44    39    1
    45    27    21   ar
    46    31    32    1
    47     4    10    1
    48     9    11    1
    49    18    20    1
@<TRIPOS>MOLECULE
*****
 45 49 0 0 0
SMALL
GASTEIGER

@<TRIPOS>ATOM
      1 C         -26.6356   51.0805   -9.3748 C.3     1  UNL1        0.1562
      2 C         -26.9335   49.9314  -10.3418 C.3     1  UNL1        0.0622
      3 C         -27.5599   48.7939   -9.5056 C.3     1  UNL1        0.1294
      4 O         -26.5270   47.9295   -9.0956 O.3     1  UNL1       -0.3808
      5 C         -28.1392   49.5409   -8.2790 C.3     1  UNL1        0.1264
      6 N         -27.4136   50.7984   -8.1789 N.am    1  UNL1       -0.2544
      7 C         -27.7353   51.8112   -7.2055 C.2     1  UNL1        0.3081
      8 O         -27.4705   53.0196   -7.4461 O.2     1  UNL1       -0.2522
      9 N         -28.4034   51.4779   -5.9820 N.am    1  UNL1       -0.2680
     10 H         -26.9301   47.2229   -8.5253 H       1  UNL1        0.2107
     11 H         -29.1865   52.0949   -5.6686 H       1  UNL1        0.1564
     12 C         -27.9839   50.4099   -5.1190 C.ar    1  UNL1        0.0546
     13 C         -26.6186   50.2134   -4.8759 C.ar    1  UNL1        0.0158
     14 C         -26.1927   49.1812   -4.0365 C.ar    1  UNL1        0.0157
     15 C         -27.1245   48.3233   -3.4414 C.ar    1  UNL1        0.0913
     16 CL        -26.5392   47.0406   -2.3909 Cl      1  UNL1       -0.0791
     17 C         -28.4981   48.4968   -3.6995 C.ar    1  UNL1        0.1453
     18 O         -29.4619   47.6555   -3.1426 O.3     1  UNL1       -0.5046
     19 C         -28.9180   49.5345   -4.5393 C.ar    1  UNL1        0.0522
     20 H         -29.2281   46.8868   -2.5276 H       1  UNL1        0.2922
     21 C         -28.6064   47.9781  -10.2868 C.ar    1  UNL1        0.0310
     22 C         -29.7460   48.6107  -10.8353 C.ar    1  UNL1        0.0026
     23 C         -30.7289   47.8720  -11.4988 C.ar    1  UNL1        0.0295
     24 C         -30.6193   46.4859  -11.5932 C.ar    1  UNL1        0.1424
     25 F         -31.5778   45.7709  -12.2322 F       1  UNL1       -0.2041
     26 C         -29.5392   45.8328  -11.0009 C.ar    1  UNL1        0.0590
     27 C         -28.5501   46.5628  -10.3335 C.ar    1  UNL1        0.1406
     28 F         -27.5626   45.8737   -9.7096 F       1  UNL1       -0.2044
     29 O         -24.7612   50.7736   -7.9316 O.2     1  UNL1       -0.2730
     30 C         -25.1664   51.1914   -9.0499 C.2     1  UNL1        0.2454
     31 N         -24.2509   51.8046   -9.9746 N.am    1  UNL1       -0.2680
     32 H         -24.6438   52.2563  -10.8289 H       1  UNL1        0.1563
     33 C         -22.8218   51.8027   -9.8208 C.ar    1  UNL1        0.1346
     34 C         -22.2514   52.2252   -8.6127 C.ar    1  UNL1        0.0406
     35 C         -20.8632   52.2406   -8.4738 C.ar    1  UNL1        0.0736
     36 C         -20.0452   51.8315   -9.5366 C.ar    1  UNL1        0.2466
     37 C         -20.6542   51.4217  -10.7323 C.ar    1  UNL1        0.1691
     38 N         -22.0091   51.4185  -10.8443 N.ar    1  UNL1       -0.2228
     39 N         -18.6088   51.8529   -9.4089 N.am    1  UNL1       -0.0841
     40 C         -17.8443   51.8003  -10.5434 C.2     1  UNL1        0.2905
     41 C         -16.4504   51.8091  -10.4648 C.2     1  UNL1        0.0758
     42 C         -15.8357   51.8742   -9.2171 C.2     1  UNL1        0.0161
     43 C         -16.6162   51.9340   -8.0647 C.2     1  UNL1        0.1156
     44 C         -18.0112   51.9269   -8.1737 C.2     1  UNL1        0.4230
     45 O         -18.7068   52.0051   -7.1239 O.2     1  UNL1       -0.2135
@<TRIPOS>BOND
     1    29    30    2
     2    30    31   am
     3    31    33    1
     4    33    34   ar
     5    34    35   ar
     6    35    36   ar
     7    36    39    1
     8    39    40    1
     9    40    41    2
    10    41    42    1
    11    42    43    2
    12    43    44    1
    13    44    45    2
    14    36    37   ar
    15    37    38   ar
    16    30     1    1
    17     1     2    1
    18     2     3    1
    19     3     4    1
    20     3    21    1
    21    21    22   ar
    22    22    23   ar
    23    23    24   ar
    24    24    25    1
    25    24    26   ar
    26    26    27   ar
    27    27    28    1
    28     3     5    1
    29     5     6    1
    30     6     7   am
    31     7     8    2
    32     7     9   am
    33     9    12    1
    34    12    13   ar
    35    13    14   ar
    36    14    15   ar
    37    15    16    1
    38    15    17   ar
    39    17    18    1
    40    17    19   ar
    41    38    33   ar
    42     6     1    1
    43    19    12   ar
    44    44    39    1
    45    27    21   ar
    46    31    32    1
    47     4    10    1
    48     9    11    1
    49    18    20    1
@<TRIPOS>MOLECULE
*****
 45 49 0 0 0
SMALL
GASTEIGER

@<TRIPOS>ATOM
      1 C         -28.0115   51.9089   -7.8650 C.3     1  UNL1        0.1562
      2 C         -26.4915   52.0928   -7.8779 C.3     1  UNL1        0.0622
      3 C         -25.9095   50.9477   -8.7356 C.3     1  UNL1        0.1294
      4 O         -25.5829   49.8791   -7.8792 O.3     1  UNL1       -0.3808
      5 C         -27.1008   50.5507   -9.6420 C.3     1  UNL1        0.1264
      6 N         -28.3063   51.0030   -8.9639 N.am    1  UNL1       -0.2544
      7 C         -29.6197   50.8914   -9.5465 C.2     1  UNL1        0.3081
      8 O         -30.5268   51.6985   -9.2089 O.2     1  UNL1       -0.2522
      9 N         -29.9046   49.9074  -10.5491 N.am    1  UNL1       -0.2680
     10 H         -25.2468   49.1313   -8.4403 H       1  UNL1        0.2107
     11 H         -30.4600   50.2052  -11.3827 H       1  UNL1        0.1564
     12 C         -29.5596   48.5202  -10.4145 C.ar    1  UNL1        0.0546
     13 C         -29.3872   47.9716   -9.1374 C.ar    1  UNL1        0.0158
     14 C         -29.0544   46.6231   -8.9877 C.ar    1  UNL1        0.0157
     15 C         -28.8752   45.8098  -10.1121 C.ar    1  UNL1        0.0913
     16 CL        -28.4592   44.1184   -9.8718 Cl      1  UNL1       -0.0791
     17 C         -29.0214   46.3578  -11.4013 C.ar    1  UNL1        0.1453
     18 O         -28.8353   45.5898  -12.5511 O.3     1  UNL1       -0.5046
     19 C         -29.3574   47.7087  -11.5439 C.ar    1  UNL1        0.0522
     20 H         -28.5916   44.6082  -12.5204 H       1  UNL1        0.2922
     21 C         -24.6473   51.3605   -9.5148 C.ar    1  UNL1        0.0310
     22 C         -24.6828   51.4890  -10.9226 C.ar    1  UNL1        0.0026
     23 C         -23.5306   51.8098  -11.6447 C.ar    1  UNL1        0.0295
     24 C         -22.3125   51.9675  -10.9864 C.ar    1  UNL1        0.1424
     25 F         -21.1946   52.2727  -11.6904 F       1  UNL1       -0.2041
     26 C         -22.2391   51.7788   -9.6069 C.ar    1  UNL1        0.0590
     27 C         -23.3866   51.4565   -8.8746 C.ar    1  UNL1        0.1406
     28 F         -23.2464   51.2081   -7.5488 F       1  UNL1       -0.2044
     29 O         -29.5138   51.8884   -6.0122 O.2     1  UNL1       -0.2730
     30 C         -28.5114   51.3506   -6.5556 C.2     1  UNL1        0.2454
     31 N         -27.8322   50.2578   -5.9126 N.am    1  UNL1       -0.2680
     32 H         -26.9324   49.9276   -6.3243 H       1  UNL1        0.1563
     33 C         -28.3312   49.5604   -4.7590 C.ar    1  UNL1        0.1346
     34 C         -29.7132   49.4231   -4.5728 C.ar    1  UNL1        0.0406
     35 C         -30.1944   48.7626   -3.4419 C.ar    1  UNL1        0.0736
     36 C         -29.2987   48.2363   -2.5003 C.ar    1  UNL1        0.2466
     37 C         -27.9225   48.4001   -2.7191 C.ar    1  UNL1        0.1691
     38 N         -27.4783   49.0504   -3.8273 N.ar    1  UNL1       -0.2228
     39 N         -29.7839   47.5607   -1.3221 N.am    1  UNL1       -0.0841
     40 C         -30.0241   48.2950   -0.1918 C.2     1  UNL1        0.2905
     41 C         -30.4852   47.6796    0.9735 C.2     1  UNL1        0.0758
     42 C         -30.7037   46.3045    0.9809 C.2     1  UNL1        0.0161
     43 C         -30.4644   45.5608   -0.1726 C.2     1  UNL1        0.1156
     44 C         -30.0056   46.2046   -1.3272 C.2     1  UNL1        0.4230
     45 O         -29.8151   45.5235   -2.3721 O.2     1  UNL1       -0.2135
@<TRIPOS>BOND
     1    29    30    2
     2    30    31   am
     3    31    33    1
     4    33    34   ar
     5    34    35   ar
     6    35    36   ar
     7    36    39    1
     8    39    40    1
     9    40    41    2
    10    41    42    1
    11    42    43    2
    12    43    44    1
    13    44    45    2
    14    36    37   ar
    15    37    38   ar
    16    30     1    1
    17     1     2    1
    18     2     3    1
    19     3     4    1
    20     3    21    1
    21    21    22   ar
    22    22    23   ar
    23    23    24   ar
    24    24    25    1
    25    24    26   ar
    26    26    27   ar
    27    27    28    1
    28     3     5    1
    29     5     6    1
    30     6     7   am
    31     7     8    2
    32     7     9   am
    33     9    12    1
    34    12    13   ar
    35    13    14   ar
    36    14    15   ar
    37    15    16    1
    38    15    17   ar
    39    17    18    1
    40    17    19   ar
    41    38    33   ar
    42     6     1    1
    43    19    12   ar
    44    44    39    1
    45    27    21   ar
    46    31    32    1
    47     4    10    1
    48     9    11    1
    49    18    20    1
