@<TRIPOS>MOLECULE
*****
 33 34 0 0 0
SMALL
GASTEIGER

@<TRIPOS>ATOM
      1 C         -23.9453  -11.9867  -15.8429 C.3     1  UNL1        0.0197
      2 C         -22.7355  -11.2267  -16.4490 C.3     1  UNL1        0.0187
      3 C         -23.0769   -9.9121  -17.1780 C.3     1  UNL1        0.0722
      4 N         -22.1791   -8.8000  -16.7926 N.3     1  UNL1       -0.2712
      5 C         -22.8915   -7.5169  -16.9287 C.3     1  UNL1        0.0896
      6 C         -21.6443   -8.9521  -15.4146 C.3     1  UNL1        0.0768
      7 C         -22.2416   -7.8868  -14.4868 C.3     1  UNL1        0.0438
      8 C         -21.2984   -8.6490  -10.3342 C.ar    1  UNL1        0.1724
      9 C         -20.9409   -9.5752  -11.3320 C.ar    1  UNL1        0.0397
     10 C         -21.2310   -9.3168  -12.6724 C.ar    1  UNL1       -0.0009
     11 C         -21.8904   -8.1366  -13.0408 C.ar    1  UNL1       -0.0176
     12 C         -22.2427   -7.2080  -12.0490 C.ar    1  UNL1        0.0358
     13 C         -21.9450   -7.4569  -10.6950 C.ar    1  UNL1        0.1721
     14 C         -19.7969   -8.5585   -8.3344 C.3     1  UNL1        0.2526
     15 O         -21.0279   -8.8761   -8.9756 O.3     1  UNL1       -0.4684
     16 O         -22.2768   -6.5462   -9.6792 O.3     1  UNL1       -0.4684
     17 C         -21.6819   -5.2625   -9.5194 C.3     1  UNL1        0.2526
     18 C         -23.8530  -12.3346  -14.3208 C.3     1  UNL1        0.0981
     19 C         -24.4270  -11.1651  -13.4912 C.ar    1  UNL1       -0.0065
     20 C         -25.1966  -10.1298  -14.0664 C.ar    1  UNL1        0.0000
     21 C         -25.6815   -9.0789  -13.2871 C.ar    1  UNL1        0.0398
     22 C         -25.4095   -9.0240  -11.9104 C.ar    1  UNL1        0.1724
     23 C         -24.6467  -10.0370  -11.3171 C.ar    1  UNL1        0.1721
     24 C         -24.1665  -11.1002  -12.1046 C.ar    1  UNL1        0.0367
     25 O         -25.8807   -7.9805  -11.0980 O.3     1  UNL1       -0.4684
     26 C         -27.2463   -7.7874  -10.7439 C.3     1  UNL1        0.2526
     27 O         -24.3935   -9.9574   -9.9377 O.3     1  UNL1       -0.4684
     28 C         -25.1911  -10.5728   -8.9309 C.3     1  UNL1        0.2526
     29 C         -24.6722  -13.6484  -13.9991 C.3     1  UNL1        0.0169
     30 C         -24.2082  -14.8532  -14.8453 C.3     1  UNL1        0.0014
     31 C         -26.2017  -13.4921  -14.1428 C.3     1  UNL1        0.0014
     32 C         -22.4240  -12.5921  -14.0032 C.1     1  UNL1        0.0752
     33 N         -21.3102  -12.7888  -13.7564 N.1     1  UNL1       -0.1956
@<TRIPOS>BOND
     1    14    15    1
     2    15     8    1
     3     8     9   ar
     4     9    10   ar
     5    10    11   ar
     6    11     7    1
     7     7     6    1
     8     6     4    1
     9     4     5    1
    10     4     3    1
    11     3     2    1
    12     2     1    1
    13     1    18    1
    14    18    32    1
    15    32    33    3
    16    18    19    1
    17    19    20   ar
    18    20    21   ar
    19    21    22   ar
    20    22    25    1
    21    25    26    1
    22    22    23   ar
    23    23    27    1
    24    27    28    1
    25    23    24   ar
    26    18    29    1
    27    29    30    1
    28    29    31    1
    29    11    12   ar
    30    12    13   ar
    31    13    16    1
    32    16    17    1
    33    13     8   ar
    34    24    19   ar
@<TRIPOS>MOLECULE
*****
 33 34 0 0 0
SMALL
GASTEIGER

@<TRIPOS>ATOM
      1 C         -23.9927  -11.9550  -15.9218 C.3     1  UNL1        0.0197
      2 C         -22.8010  -11.2072  -16.5769 C.3     1  UNL1        0.0187
      3 C         -23.1526   -9.8709  -17.2602 C.3     1  UNL1        0.0722
      4 N         -22.2695   -8.7637  -16.8290 N.3     1  UNL1       -0.2712
      5 C         -22.9726   -7.4780  -16.9865 C.3     1  UNL1        0.0896
      6 C         -21.7946   -8.9266  -15.4304 C.3     1  UNL1        0.0768
      7 C         -22.3283   -7.7921  -14.5471 C.3     1  UNL1        0.0438
      8 C         -21.3666   -8.3792  -10.3704 C.ar    1  UNL1        0.1724
      9 C         -22.1949   -7.3144  -10.7723 C.ar    1  UNL1        0.0397
     10 C         -22.5173   -7.1395  -12.1187 C.ar    1  UNL1       -0.0009
     11 C         -22.0126   -8.0159  -13.0887 C.ar    1  UNL1       -0.0176
     12 C         -21.1915   -9.0823  -12.6906 C.ar    1  UNL1        0.0358
     13 C         -20.8691   -9.2713  -11.3326 C.ar    1  UNL1        0.1721
     14 C         -19.9587   -7.9065   -8.3563 C.3     1  UNL1        0.2526
     15 O         -21.0164   -8.5843   -9.0265 O.3     1  UNL1       -0.4684
     16 O         -20.0567  -10.3316  -10.8999 O.3     1  UNL1       -0.4684
     17 C         -20.4409  -11.7025  -10.9168 C.3     1  UNL1        0.2526
     18 C         -23.8206  -12.3502  -14.4183 C.3     1  UNL1        0.0981
     19 C         -24.3820  -11.2231  -13.5238 C.ar    1  UNL1       -0.0065
     20 C         -25.1889  -10.1803  -14.0301 C.ar    1  UNL1        0.0000
     21 C         -25.6613   -9.1684  -13.1937 C.ar    1  UNL1        0.0398
     22 C         -25.3392   -9.1611  -11.8267 C.ar    1  UNL1        0.1724
     23 C         -24.5388  -10.1825  -11.3011 C.ar    1  UNL1        0.1721
     24 C         -24.0712  -11.2064  -12.1462 C.ar    1  UNL1        0.0367
     25 O         -25.7966   -8.1575  -10.9580 O.3     1  UNL1       -0.4684
     26 C         -27.1528   -7.7364  -10.8547 C.3     1  UNL1        0.2526
     27 O         -24.2358  -10.1509   -9.9299 O.3     1  UNL1       -0.4684
     28 C         -25.1305  -10.5433   -8.8935 C.3     1  UNL1        0.2526
     29 C         -24.5927  -13.6938  -14.1036 C.3     1  UNL1        0.0169
     30 C         -24.1632  -14.8504  -15.0316 C.3     1  UNL1        0.0014
     31 C         -26.1309  -13.5639  -14.1408 C.3     1  UNL1        0.0014
     32 C         -22.3725  -12.5821  -14.1762 C.1     1  UNL1        0.0752
     33 N         -21.2450  -12.7664  -13.9894 N.1     1  UNL1       -0.1956
@<TRIPOS>BOND
     1    14    15    1
     2    15     8    1
     3     8     9   ar
     4     9    10   ar
     5    10    11   ar
     6    11     7    1
     7     7     6    1
     8     6     4    1
     9     4     5    1
    10     4     3    1
    11     3     2    1
    12     2     1    1
    13     1    18    1
    14    18    32    1
    15    32    33    3
    16    18    19    1
    17    19    20   ar
    18    20    21   ar
    19    21    22   ar
    20    22    25    1
    21    25    26    1
    22    22    23   ar
    23    23    27    1
    24    27    28    1
    25    23    24   ar
    26    18    29    1
    27    29    30    1
    28    29    31    1
    29    11    12   ar
    30    12    13   ar
    31    13    16    1
    32    16    17    1
    33    13     8   ar
    34    24    19   ar
@<TRIPOS>MOLECULE
*****
 33 34 0 0 0
SMALL
GASTEIGER

@<TRIPOS>ATOM
      1 C         -24.1702  -11.8805  -15.9115 C.3     1  UNL1        0.0197
      2 C         -22.9782  -11.2310  -16.6637 C.3     1  UNL1        0.0187
      3 C         -23.2469   -9.8290  -17.2454 C.3     1  UNL1        0.0722
      4 N         -22.2561   -8.8271  -16.7915 N.3     1  UNL1       -0.2712
      5 C         -22.8221   -7.4729  -16.9263 C.3     1  UNL1        0.0896
      6 C         -21.8062   -9.0640  -15.3952 C.3     1  UNL1        0.0768
      7 C         -22.1714   -7.8703  -14.5041 C.3     1  UNL1        0.0438
      8 C         -21.2384   -8.5827  -10.3404 C.ar    1  UNL1        0.1724
      9 C         -22.0137   -7.4712  -10.7212 C.ar    1  UNL1        0.0397
     10 C         -22.3275   -7.2553  -12.0637 C.ar    1  UNL1       -0.0009
     11 C         -21.8666   -8.1369  -13.0506 C.ar    1  UNL1       -0.0176
     12 C         -21.0986   -9.2495  -12.6737 C.ar    1  UNL1        0.0358
     13 C         -20.7855   -9.4798  -11.3198 C.ar    1  UNL1        0.1721
     14 C         -19.8643   -8.1537   -8.2935 C.3     1  UNL1        0.2526
     15 O         -20.8983   -8.8301   -9.0011 O.3     1  UNL1       -0.4684
     16 O         -20.0260  -10.5866  -10.9082 O.3     1  UNL1       -0.4684
     17 C         -20.3954  -11.9447  -11.1230 C.3     1  UNL1        0.2526
     18 C         -23.8747  -12.4077  -14.4689 C.3     1  UNL1        0.0981
     19 C         -24.2871  -11.3359  -13.4361 C.ar    1  UNL1       -0.0065
     20 C         -23.9393  -11.4220  -12.0699 C.ar    1  UNL1        0.0000
     21 C         -24.3474  -10.4433  -11.1629 C.ar    1  UNL1        0.0398
     22 C         -25.1203   -9.3507  -11.5886 C.ar    1  UNL1        0.1724
     23 C         -25.4801   -9.2441  -12.9374 C.ar    1  UNL1        0.1721
     24 C         -25.0593  -10.2286  -13.8511 C.ar    1  UNL1        0.0367
     25 O         -25.5486   -8.3497  -10.7024 O.3     1  UNL1       -0.4684
     26 C         -26.7834   -8.3737   -9.9939 C.3     1  UNL1        0.2526
     27 O         -26.2507   -8.1389  -13.3347 O.3     1  UNL1       -0.4684
     28 C         -25.7163   -6.8814  -13.7366 C.3     1  UNL1        0.2526
     29 C         -24.6823  -13.7373  -14.1855 C.3     1  UNL1        0.0169
     30 C         -24.3060  -14.8735  -15.1604 C.3     1  UNL1        0.0014
     31 C         -26.2162  -13.5594  -14.1886 C.3     1  UNL1        0.0014
     32 C         -22.4242  -12.7234  -14.3928 C.1     1  UNL1        0.0752
     33 N         -21.2951  -12.9710  -14.3299 N.1     1  UNL1       -0.1956
@<TRIPOS>BOND
     1    14    15    1
     2    15     8    1
     3     8     9   ar
     4     9    10   ar
     5    10    11   ar
     6    11     7    1
     7     7     6    1
     8     6     4    1
     9     4     5    1
    10     4     3    1
    11     3     2    1
    12     2     1    1
    13     1    18    1
    14    18    32    1
    15    32    33    3
    16    18    19    1
    17    19    20   ar
    18    20    21   ar
    19    21    22   ar
    20    22    25    1
    21    25    26    1
    22    22    23   ar
    23    23    27    1
    24    27    28    1
    25    23    24   ar
    26    18    29    1
    27    29    30    1
    28    29    31    1
    29    11    12   ar
    30    12    13   ar
    31    13    16    1
    32    16    17    1
    33    13     8   ar
    34    24    19   ar
@<TRIPOS>MOLECULE
*****
 33 34 0 0 0
SMALL
GASTEIGER

@<TRIPOS>ATOM
      1 C         -24.1327  -11.9010  -15.8549 C.3     1  UNL1        0.0197
      2 C         -22.9201  -11.2894  -16.6059 C.3     1  UNL1        0.0187
      3 C         -23.1934   -9.9567  -17.3307 C.3     1  UNL1        0.0722
      4 N         -22.2653   -8.8822  -16.9115 N.3     1  UNL1       -0.2712
      5 C         -22.9452   -7.5774  -16.9979 C.3     1  UNL1        0.0896
      6 C         -21.7278   -9.0967  -15.5428 C.3     1  UNL1        0.0768
      7 C         -21.8276   -7.8069  -14.7191 C.3     1  UNL1        0.0438
      8 C         -21.6166   -8.6108  -10.4736 C.ar    1  UNL1        0.1724
      9 C         -21.2459   -9.5954  -11.4088 C.ar    1  UNL1        0.0397
     10 C         -21.2982   -9.3256  -12.7770 C.ar    1  UNL1       -0.0009
     11 C         -21.7297   -8.0744  -13.2373 C.ar    1  UNL1       -0.0176
     12 C         -22.0942   -7.0884  -12.3073 C.ar    1  UNL1        0.0358
     13 C         -22.0351   -7.3496  -10.9245 C.ar    1  UNL1        0.1721
     14 C         -22.7336   -9.0433   -8.2765 C.3     1  UNL1        0.2526
     15 O         -21.5818   -8.8467   -9.0902 O.3     1  UNL1       -0.4684
     16 O         -22.3853   -6.3835   -9.9678 O.3     1  UNL1       -0.4684
     17 C         -21.6320   -5.2064   -9.6952 C.3     1  UNL1        0.2526
     18 C         -23.8594  -12.4213  -14.4055 C.3     1  UNL1        0.0981
     19 C         -24.3017  -11.3508  -13.3837 C.ar    1  UNL1       -0.0065
     20 C         -24.1712  -11.5302  -11.9888 C.ar    1  UNL1        0.0000
     21 C         -24.6008  -10.5477  -11.0961 C.ar    1  UNL1        0.0398
     22 C         -25.1795   -9.3574  -11.5660 C.ar    1  UNL1        0.1724
     23 C         -25.3223   -9.1569  -12.9442 C.ar    1  UNL1        0.1721
     24 C         -24.8799  -10.1465  -13.8421 C.ar    1  UNL1        0.0367
     25 O         -25.6235   -8.3495  -10.6953 O.3     1  UNL1       -0.4684
     26 C         -26.5656   -8.5470   -9.6461 C.3     1  UNL1        0.2526
     27 O         -25.9015   -7.9556  -13.3849 O.3     1  UNL1       -0.4684
     28 C         -27.3012   -7.6938  -13.4132 C.3     1  UNL1        0.2526
     29 C         -24.6593  -13.7580  -14.1334 C.3     1  UNL1        0.0169
     30 C         -24.2568  -14.8917  -15.1008 C.3     1  UNL1        0.0014
     31 C         -26.1944  -13.5943  -14.1615 C.3     1  UNL1        0.0014
     32 C         -22.4077  -12.7225  -14.3010 C.1     1  UNL1        0.0752
     33 N         -21.2778  -12.9603  -14.2175 N.1     1  UNL1       -0.1956
@<TRIPOS>BOND
     1    14    15    1
     2    15     8    1
     3     8     9   ar
     4     9    10   ar
     5    10    11   ar
     6    11     7    1
     7     7     6    1
     8     6     4    1
     9     4     5    1
    10     4     3    1
    11     3     2    1
    12     2     1    1
    13     1    18    1
    14    18    32    1
    15    32    33    3
    16    18    19    1
    17    19    20   ar
    18    20    21   ar
    19    21    22   ar
    20    22    25    1
    21    25    26    1
    22    22    23   ar
    23    23    27    1
    24    27    28    1
    25    23    24   ar
    26    18    29    1
    27    29    30    1
    28    29    31    1
    29    11    12   ar
    30    12    13   ar
    31    13    16    1
    32    16    17    1
    33    13     8   ar
    34    24    19   ar
@<TRIPOS>MOLECULE
*****
 33 34 0 0 0
SMALL
GASTEIGER

@<TRIPOS>ATOM
      1 C         -24.3612  -11.9640  -16.1371 C.3     1  UNL1        0.0197
      2 C         -23.4165  -10.9451  -16.8284 C.3     1  UNL1        0.0187
      3 C         -23.4336   -9.5207  -16.2395 C.3     1  UNL1        0.0722
      4 N         -22.5190   -8.6008  -16.9528 N.3     1  UNL1       -0.2712
      5 C         -23.2626   -7.4095  -17.4001 C.3     1  UNL1        0.0896
      6 C         -21.3523   -8.2021  -16.1234 C.3     1  UNL1        0.0768
      7 C         -21.3497   -8.9711  -14.7964 C.3     1  UNL1        0.0438
      8 C         -22.2130   -6.4539  -11.3856 C.ar    1  UNL1        0.1724
      9 C         -20.9621   -7.0871  -11.5107 C.ar    1  UNL1        0.0397
     10 C         -20.6814   -7.8836  -12.6216 C.ar    1  UNL1       -0.0009
     11 C         -21.6448   -8.0709  -13.6218 C.ar    1  UNL1       -0.0176
     12 C         -22.8909   -7.4360  -13.5032 C.ar    1  UNL1        0.0358
     13 C         -23.1786   -6.6228  -12.3897 C.ar    1  UNL1        0.1721
     14 C         -21.5925   -5.1966   -9.3128 C.3     1  UNL1        0.2526
     15 O         -22.5336   -5.6495  -10.2807 O.3     1  UNL1       -0.4684
     16 O         -24.4118   -5.9676  -12.2439 O.3     1  UNL1       -0.4684
     17 C         -25.6650   -6.6277  -12.0990 C.3     1  UNL1        0.2526
     18 C         -23.7337  -12.8237  -14.9912 C.3     1  UNL1        0.0981
     19 C         -23.6022  -11.9622  -13.7160 C.ar    1  UNL1       -0.0065
     20 C         -24.6196  -11.0832  -13.2833 C.ar    1  UNL1        0.0000
     21 C         -24.4559  -10.3060  -12.1362 C.ar    1  UNL1        0.0398
     22 C         -23.2698  -10.3763  -11.3873 C.ar    1  UNL1        0.1724
     23 C         -22.2454  -11.2381  -11.7970 C.ar    1  UNL1        0.1721
     24 C         -22.4176  -12.0271  -12.9499 C.ar    1  UNL1        0.0367
     25 O         -23.0721   -9.6073  -10.2295 O.3     1  UNL1       -0.4684
     26 C         -23.9779   -9.5536   -9.1322 C.3     1  UNL1        0.2526
     27 O         -21.0721  -11.2899  -11.0266 O.3     1  UNL1       -0.4684
     28 C         -20.0529  -12.2746  -11.1682 C.3     1  UNL1        0.2526
     29 C         -24.6415  -14.0795  -14.6760 C.3     1  UNL1        0.0169
     30 C         -24.8821  -14.9591  -15.9215 C.3     1  UNL1        0.0014
     31 C         -26.0027  -13.7320  -14.0351 C.3     1  UNL1        0.0014
     32 C         -22.4144  -13.3156  -15.4676 C.1     1  UNL1        0.0752
     33 N         -21.3853  -13.6953  -15.8374 N.1     1  UNL1       -0.1956
@<TRIPOS>BOND
     1    14    15    1
     2    15     8    1
     3     8     9   ar
     4     9    10   ar
     5    10    11   ar
     6    11     7    1
     7     7     6    1
     8     6     4    1
     9     4     5    1
    10     4     3    1
    11     3     2    1
    12     2     1    1
    13     1    18    1
    14    18    32    1
    15    32    33    3
    16    18    19    1
    17    19    20   ar
    18    20    21   ar
    19    21    22   ar
    20    22    25    1
    21    25    26    1
    22    22    23   ar
    23    23    27    1
    24    27    28    1
    25    23    24   ar
    26    18    29    1
    27    29    30    1
    28    29    31    1
    29    11    12   ar
    30    12    13   ar
    31    13    16    1
    32    16    17    1
    33    13     8   ar
    34    24    19   ar
@<TRIPOS>MOLECULE
*****
 33 34 0 0 0
SMALL
GASTEIGER

@<TRIPOS>ATOM
      1 C         -23.9261  -11.7105  -15.8444 C.3     1  UNL1        0.0197
      2 C         -22.9899  -11.0456  -16.8884 C.3     1  UNL1        0.0187
      3 C         -21.7996  -10.2591  -16.3047 C.3     1  UNL1        0.0722
      4 N         -21.6717   -8.9058  -16.8910 N.3     1  UNL1       -0.2712
      5 C         -22.9755   -8.4697  -17.4222 C.3     1  UNL1        0.0896
      6 C         -21.1499   -7.9113  -15.9179 C.3     1  UNL1        0.0768
      7 C         -21.2722   -8.4467  -14.4859 C.3     1  UNL1        0.0438
      8 C         -24.4016   -6.3862  -12.3236 C.ar    1  UNL1        0.1724
      9 C         -24.7044   -7.1546  -13.4635 C.ar    1  UNL1        0.0397
     10 C         -23.6942   -7.8324  -14.1474 C.ar    1  UNL1       -0.0009
     11 C         -22.3644   -7.7487  -13.7136 C.ar    1  UNL1       -0.0176
     12 C         -22.0600   -6.9884  -12.5738 C.ar    1  UNL1        0.0358
     13 C         -23.0751   -6.3091  -11.8724 C.ar    1  UNL1        0.1721
     14 C         -26.6689   -5.3440  -12.1356 C.3     1  UNL1        0.2526
     15 O         -25.3896   -5.6867  -11.6128 O.3     1  UNL1       -0.4684
     16 O         -22.8060   -5.5462  -10.7248 O.3     1  UNL1       -0.4684
     17 C         -21.5018   -5.1844  -10.2829 C.3     1  UNL1        0.2526
     18 C         -23.3041  -12.8645  -14.9914 C.3     1  UNL1        0.0981
     19 C         -22.6321  -12.2691  -13.7346 C.ar    1  UNL1       -0.0065
     20 C         -21.3681  -12.6976  -13.2722 C.ar    1  UNL1        0.0000
     21 C         -20.8021  -12.1493  -12.1208 C.ar    1  UNL1        0.0398
     22 C         -21.4813  -11.1604  -11.3905 C.ar    1  UNL1        0.1724
     23 C         -22.7367  -10.7206  -11.8270 C.ar    1  UNL1        0.1721
     24 C         -23.3008  -11.2697  -12.9938 C.ar    1  UNL1        0.0367
     25 O         -20.9411  -10.5891  -10.2275 O.3     1  UNL1       -0.4684
     26 C         -20.1521   -9.4041  -10.2021 C.3     1  UNL1        0.2526
     27 O         -23.3908   -9.7282  -11.0785 O.3     1  UNL1       -0.4684
     28 C         -24.7306   -9.8223  -10.6045 C.3     1  UNL1        0.2526
     29 C         -24.4208  -13.8908  -14.5441 C.3     1  UNL1        0.0169
     30 C         -24.8148  -14.8625  -15.6770 C.3     1  UNL1        0.0014
     31 C         -25.6981  -13.2310  -13.9806 C.3     1  UNL1        0.0014
     32 C         -22.3311  -13.5869  -15.8520 C.1     1  UNL1        0.0752
     33 N         -21.5762  -14.1516  -16.5240 N.1     1  UNL1       -0.1956
@<TRIPOS>BOND
     1    14    15    1
     2    15     8    1
     3     8     9   ar
     4     9    10   ar
     5    10    11   ar
     6    11     7    1
     7     7     6    1
     8     6     4    1
     9     4     5    1
    10     4     3    1
    11     3     2    1
    12     2     1    1
    13     1    18    1
    14    18    32    1
    15    32    33    3
    16    18    19    1
    17    19    20   ar
    18    20    21   ar
    19    21    22   ar
    20    22    25    1
    21    25    26    1
    22    22    23   ar
    23    23    27    1
    24    27    28    1
    25    23    24   ar
    26    18    29    1
    27    29    30    1
    28    29    31    1
    29    11    12   ar
    30    12    13   ar
    31    13    16    1
    32    16    17    1
    33    13     8   ar
    34    24    19   ar
@<TRIPOS>MOLECULE
*****
 33 34 0 0 0
SMALL
GASTEIGER

@<TRIPOS>ATOM
      1 C         -23.8759  -11.7512  -15.9969 C.3     1  UNL1        0.0197
      2 C         -22.7490  -11.0848  -16.8304 C.3     1  UNL1        0.0187
      3 C         -22.5863   -9.5653  -16.6289 C.3     1  UNL1        0.0722
      4 N         -21.4694   -9.2305  -15.7167 N.3     1  UNL1       -0.2712
      5 C         -20.3597   -8.6403  -16.4864 C.3     1  UNL1        0.0896
      6 C         -21.8842   -8.3158  -14.6214 C.3     1  UNL1        0.0768
      7 C         -23.2229   -7.6476  -14.9586 C.3     1  UNL1        0.0438
      8 C         -25.8214   -7.5201  -11.5023 C.ar    1  UNL1        0.1724
      9 C         -24.4419   -7.2728  -11.3713 C.ar    1  UNL1        0.0397
     10 C         -23.6103   -7.2970  -12.4917 C.ar    1  UNL1       -0.0009
     11 C         -24.1365   -7.5775  -13.7597 C.ar    1  UNL1       -0.0176
     12 C         -25.5126   -7.8185  -13.8948 C.ar    1  UNL1        0.0358
     13 C         -26.3602   -7.7864  -12.7703 C.ar    1  UNL1        0.1721
     14 C         -26.8692   -8.6025   -9.5041 C.3     1  UNL1        0.2526
     15 O         -26.6884   -7.5092  -10.3982 O.3     1  UNL1       -0.4684
     16 O         -27.7418   -8.0156  -12.8715 O.3     1  UNL1       -0.4684
     17 C         -28.5714   -7.5047  -13.9097 C.3     1  UNL1        0.2526
     18 C         -23.4164  -12.7450  -14.8800 C.3     1  UNL1        0.0981
     19 C         -23.2037  -11.9714  -13.5602 C.ar    1  UNL1       -0.0065
     20 C         -24.2751  -11.4426  -12.8070 C.ar    1  UNL1        0.0000
     21 C         -24.0417  -10.7319  -11.6291 C.ar    1  UNL1        0.0398
     22 C         -22.7320  -10.5210  -11.1681 C.ar    1  UNL1        0.1724
     23 C         -21.6528  -11.0329  -11.8984 C.ar    1  UNL1        0.1721
     24 C         -21.8924  -11.7568  -13.0815 C.ar    1  UNL1        0.0367
     25 O         -22.4621   -9.8094   -9.9884 O.3     1  UNL1       -0.4684
     26 C         -23.3046   -9.8012   -8.8405 C.3     1  UNL1        0.2526
     27 O         -20.3544  -10.8092  -11.4113 O.3     1  UNL1       -0.4684
     28 C         -19.6425  -11.7039  -10.5622 C.3     1  UNL1        0.2526
     29 C         -24.5055  -13.8685  -14.6516 C.3     1  UNL1        0.0169
     30 C         -24.5561  -14.8837  -15.8134 C.3     1  UNL1        0.0014
     31 C         -25.9286  -13.3278  -14.3938 C.3     1  UNL1        0.0014
     32 C         -22.1670  -13.4011  -15.3467 C.1     1  UNL1        0.0752
     33 N         -21.1957  -13.9157  -15.7101 N.1     1  UNL1       -0.1956
@<TRIPOS>BOND
     1    14    15    1
     2    15     8    1
     3     8     9   ar
     4     9    10   ar
     5    10    11   ar
     6    11     7    1
     7     7     6    1
     8     6     4    1
     9     4     5    1
    10     4     3    1
    11     3     2    1
    12     2     1    1
    13     1    18    1
    14    18    32    1
    15    32    33    3
    16    18    19    1
    17    19    20   ar
    18    20    21   ar
    19    21    22   ar
    20    22    25    1
    21    25    26    1
    22    22    23   ar
    23    23    27    1
    24    27    28    1
    25    23    24   ar
    26    18    29    1
    27    29    30    1
    28    29    31    1
    29    11    12   ar
    30    12    13   ar
    31    13    16    1
    32    16    17    1
    33    13     8   ar
    34    24    19   ar
@<TRIPOS>MOLECULE
*****
 33 34 0 0 0
SMALL
GASTEIGER

@<TRIPOS>ATOM
      1 C         -23.9243   -8.1492  -14.2979 C.3     1  UNL1        0.0197
      2 C         -23.9525   -7.4658  -12.9048 C.3     1  UNL1        0.0187
      3 C         -25.3476   -7.0466  -12.4008 C.3     1  UNL1        0.0722
      4 N         -25.7351   -7.7472  -11.1556 N.3     1  UNL1       -0.2712
      5 C         -27.1970   -7.6780  -10.9814 C.3     1  UNL1        0.0896
      6 C         -25.2768   -9.1605  -11.1318 C.3     1  UNL1        0.0768
      7 C         -24.6707   -9.5051   -9.7658 C.3     1  UNL1        0.0438
      8 C         -20.3611   -9.8055   -9.9938 C.ar    1  UNL1        0.1724
      9 C         -20.9721   -8.9830   -9.0286 C.ar    1  UNL1        0.0397
     10 C         -22.3630   -8.9032   -8.9468 C.ar    1  UNL1       -0.0009
     11 C         -23.1686   -9.6332   -9.8309 C.ar    1  UNL1       -0.0176
     12 C         -22.5626  -10.4591  -10.7904 C.ar    1  UNL1        0.0358
     13 C         -21.1596  -10.5525  -10.8732 C.ar    1  UNL1        0.1721
     14 C         -18.1382  -10.6722   -9.2391 C.3     1  UNL1        0.2526
     15 O         -18.9658   -9.9078  -10.1097 O.3     1  UNL1       -0.4684
     16 O         -20.5217  -11.3744  -11.8160 O.3     1  UNL1       -0.4684
     17 C         -20.3283  -12.7769  -11.6654 C.3     1  UNL1        0.2526
     18 C         -22.5626   -8.7859  -14.7299 C.3     1  UNL1        0.0981
     19 C         -22.6677  -10.3249  -14.6517 C.ar    1  UNL1       -0.0065
     20 C         -21.6894  -11.1834  -15.2002 C.ar    1  UNL1        0.0000
     21 C         -21.8294  -12.5697  -15.1270 C.ar    1  UNL1        0.0398
     22 C         -22.9525  -13.1440  -14.5095 C.ar    1  UNL1        0.1724
     23 C         -23.9375  -12.3143  -13.9604 C.ar    1  UNL1        0.1721
     24 C         -23.7887  -10.9163  -14.0284 C.ar    1  UNL1        0.0367
     25 O         -23.1250  -14.5344  -14.4200 O.3     1  UNL1       -0.4684
     26 C         -22.9155  -15.4442  -15.4950 C.3     1  UNL1        0.2526
     27 O         -25.0479  -12.9168  -13.3464 O.3     1  UNL1       -0.4684
     28 C         -26.0804  -13.6099  -14.0406 C.3     1  UNL1        0.2526
     29 C         -22.1964   -8.3668  -16.2100 C.3     1  UNL1        0.0169
     30 C         -20.7050   -8.0001  -16.3658 C.3     1  UNL1        0.0014
     31 C         -23.0587   -7.2168  -16.7743 C.3     1  UNL1        0.0014
     32 C         -21.5095   -8.2545  -13.8255 C.1     1  UNL1        0.0752
     33 N         -20.6920   -7.8380  -13.1197 N.1     1  UNL1       -0.1956
@<TRIPOS>BOND
     1    14    15    1
     2    15     8    1
     3     8     9   ar
     4     9    10   ar
     5    10    11   ar
     6    11     7    1
     7     7     6    1
     8     6     4    1
     9     4     5    1
    10     4     3    1
    11     3     2    1
    12     2     1    1
    13     1    18    1
    14    18    32    1
    15    32    33    3
    16    18    19    1
    17    19    20   ar
    18    20    21   ar
    19    21    22   ar
    20    22    25    1
    21    25    26    1
    22    22    23   ar
    23    23    27    1
    24    27    28    1
    25    23    24   ar
    26    18    29    1
    27    29    30    1
    28    29    31    1
    29    11    12   ar
    30    12    13   ar
    31    13    16    1
    32    16    17    1
    33    13     8   ar
    34    24    19   ar
@<TRIPOS>MOLECULE
*****
 33 34 0 0 0
SMALL
GASTEIGER

@<TRIPOS>ATOM
      1 C         -23.8128  -12.2135  -16.7619 C.3     1  UNL1        0.0197
      2 C         -22.6547  -11.2384  -17.1030 C.3     1  UNL1        0.0187
      3 C         -23.0745   -9.7798  -17.3719 C.3     1  UNL1        0.0722
      4 N         -22.6398   -8.8574  -16.2987 N.3     1  UNL1       -0.2712
      5 C         -21.1933   -9.0152  -16.0642 C.3     1  UNL1        0.0896
      6 C         -22.9638   -7.4391  -16.6017 C.3     1  UNL1        0.0768
      7 C         -23.6396   -7.3246  -17.9737 C.3     1  UNL1        0.0438
      8 C         -26.5045   -4.0852  -18.0901 C.ar    1  UNL1        0.1724
      9 C         -26.0305   -4.6660  -19.2815 C.ar    1  UNL1        0.0397
     10 C         -25.1202   -5.7229  -19.2389 C.ar    1  UNL1       -0.0009
     11 C         -24.6591   -6.2128  -18.0097 C.ar    1  UNL1       -0.0176
     12 C         -25.1344   -5.6400  -16.8197 C.ar    1  UNL1        0.0358
     13 C         -26.0605   -4.5793  -16.8540 C.ar    1  UNL1        0.1721
     14 C         -28.8030   -3.1428  -18.3909 C.3     1  UNL1        0.2526
     15 O         -27.4163   -3.0179  -18.0930 O.3     1  UNL1       -0.4684
     16 O         -26.5614   -3.9889  -15.6828 O.3     1  UNL1       -0.4684
     17 C         -26.9295   -4.7072  -14.5099 C.3     1  UNL1        0.2526
     18 C         -23.8890  -12.7075  -15.2798 C.3     1  UNL1        0.0981
     19 C         -24.0483  -11.4914  -14.3409 C.ar    1  UNL1       -0.0065
     20 C         -25.2035  -10.6788  -14.3376 C.ar    1  UNL1        0.0000
     21 C         -25.3023   -9.5763  -13.4882 C.ar    1  UNL1        0.0398
     22 C         -24.2496   -9.2457  -12.6191 C.ar    1  UNL1        0.1724
     23 C         -23.0929  -10.0342  -12.6056 C.ar    1  UNL1        0.1721
     24 C         -23.0003  -11.1508  -13.4576 C.ar    1  UNL1        0.0367
     25 O         -24.3160   -8.1429  -11.7530 O.3     1  UNL1       -0.4684
     26 C         -24.5546   -6.8025  -12.1701 C.3     1  UNL1        0.2526
     27 O         -22.0580   -9.6814  -11.7238 O.3     1  UNL1       -0.4684
     28 C         -21.4546  -10.5683  -10.7869 C.3     1  UNL1        0.2526
     29 C         -25.1192  -13.6806  -15.0795 C.3     1  UNL1        0.0169
     30 C         -25.3023  -14.1018  -13.6057 C.3     1  UNL1        0.0014
     31 C         -25.0756  -14.9465  -15.9627 C.3     1  UNL1        0.0014
     32 C         -22.6456  -13.4703  -14.9946 C.1     1  UNL1        0.0752
     33 N         -21.6750  -14.0614  -14.7739 N.1     1  UNL1       -0.1956
@<TRIPOS>BOND
     1    14    15    1
     2    15     8    1
     3     8     9   ar
     4     9    10   ar
     5    10    11   ar
     6    11     7    1
     7     7     6    1
     8     6     4    1
     9     4     5    1
    10     4     3    1
    11     3     2    1
    12     2     1    1
    13     1    18    1
    14    18    32    1
    15    32    33    3
    16    18    19    1
    17    19    20   ar
    18    20    21   ar
    19    21    22   ar
    20    22    25    1
    21    25    26    1
    22    22    23   ar
    23    23    27    1
    24    27    28    1
    25    23    24   ar
    26    18    29    1
    27    29    30    1
    28    29    31    1
    29    11    12   ar
    30    12    13   ar
    31    13    16    1
    32    16    17    1
    33    13     8   ar
    34    24    19   ar
