@<TRIPOS>MOLECULE
*****
 40 44 0 0 0
SMALL
GASTEIGER

@<TRIPOS>ATOM
      1 C          -9.0648   -9.9281   32.7117 C.3     1  UNL1        0.1333
      2 N          -9.1996  -11.0733   31.8109 N.ar    1  UNL1       -0.2950
      3 C         -10.2171  -11.9750   31.7331 C.ar    1  UNL1        0.2019
      4 N         -10.0717  -12.8752   30.7288 N.ar    1  UNL1       -0.2130
      5 C          -8.8931  -12.5292   30.1783 C.ar    1  UNL1        0.1086
      6 C          -8.2409  -13.1576   29.1145 C.ar    1  UNL1        0.0567
      7 I          -9.1064  -14.8981   28.2545 I       1  UNL1       -0.0407
      8 C          -6.9861  -12.6329   28.7052 C.ar    1  UNL1        0.0975
      9 C          -6.4313  -11.5217   29.3922 C.ar    1  UNL1        0.1786
     10 C          -7.1097  -10.9374   30.4798 C.ar    1  UNL1        0.1897
     11 C          -8.3584  -11.4538   30.8310 C.ar    1  UNL1        0.1178
     12 O          -6.5129   -9.8789   31.1715 O.3     1  UNL1       -0.4669
     13 C          -5.1366   -9.5510   30.9722 C.3     1  UNL1        0.2527
     14 C          -4.7649   -9.7047   29.4925 C.3     1  UNL1        0.2526
     15 O          -5.2017  -10.9748   29.0028 O.3     1  UNL1       -0.4682
     16 C          -6.2456  -13.2215   27.5753 C.2     1  UNL1        0.2530
     17 O          -5.2118  -12.6386   27.1500 O.2     1  UNL1       -0.2697
     18 N          -6.7028  -14.4409   26.9671 N.am    1  UNL1       -0.2803
     19 H          -7.4916  -14.9530   27.4228 H       1  UNL1        0.1552
     20 C          -6.0771  -15.0559   25.8290 C.ar    1  UNL1        0.0506
     21 C          -4.9568  -15.8739   26.0233 C.ar    1  UNL1        0.0170
     22 C          -4.3474  -16.5062   24.9387 C.ar    1  UNL1        0.0309
     23 C          -4.8555  -16.3372   23.6485 C.ar    1  UNL1        0.1441
     24 F          -4.2531  -16.9764   22.6135 F       1  UNL1       -0.2042
     25 C          -5.9865  -15.5283   23.4309 C.ar    1  UNL1        0.1000
     26 C          -6.6042  -14.9068   24.5335 C.ar    1  UNL1        0.0208
     27 C          -6.5523  -15.3877   22.0375 C.3     1  UNL1        0.4207
     28 F          -6.8061  -16.6210   21.4619 F       1  UNL1       -0.1658
     29 F          -5.6491  -14.7050   21.2439 F       1  UNL1       -0.1658
     30 F          -7.7397  -14.6789   22.0831 F       1  UNL1       -0.1658
     31 N         -11.3509  -11.9980   32.6110 N.pl3   1  UNL1       -0.2814
     32 H         -11.7843  -11.0809   32.8599 H       1  UNL1        0.1551
     33 C         -12.0162  -13.2024   33.0297 C.ar    1  UNL1        0.0889
     34 C         -13.1698  -13.6636   32.3617 C.ar    1  UNL1        0.1543
     35 F         -13.6961  -12.9709   31.3206 F       1  UNL1       -0.2028
     36 C         -13.8088  -14.8322   32.7864 C.ar    1  UNL1        0.0310
     37 C         -13.3163  -15.5440   33.8812 C.ar    1  UNL1        0.0033
     38 C         -12.1857  -15.0871   34.5605 C.ar    1  UNL1        0.0128
     39 C         -11.5369  -13.9185   34.1450 C.ar    1  UNL1        0.0733
     40 CL        -10.0997  -13.3958   35.0139 Cl      1  UNL1       -0.0809
@<TRIPOS>BOND
     1     1     2    1
     2     2     3   ar
     3     3    31    1
     4    31    33    1
     5    33    34   ar
     6    34    35    1
     7    34    36   ar
     8    36    37   ar
     9    37    38   ar
    10    38    39   ar
    11    39    40    1
    12     3     4   ar
    13     4     5   ar
    14     5     6   ar
    15     6     7    1
    16     6     8   ar
    17     8    16    1
    18    16    17    2
    19    16    18   am
    20    18    20    1
    21    20    21   ar
    22    21    22   ar
    23    22    23   ar
    24    23    24    1
    25    23    25   ar
    26    25    27    1
    27    27    28    1
    28    27    29    1
    29    27    30    1
    30    25    26   ar
    31     8     9   ar
    32     9    10   ar
    33    10    11   ar
    34    10    12    1
    35    12    13    1
    36    13    14    1
    37    14    15    1
    38    11     2   ar
    39    39    33   ar
    40    11     5   ar
    41    26    20   ar
    42    15     9    1
    43    31    32    1
    44    18    19    1
@<TRIPOS>MOLECULE
*****
 40 44 0 0 0
SMALL
GASTEIGER

@<TRIPOS>ATOM
      1 C          -8.8423   -9.8644   32.9284 C.3     1  UNL1        0.1333
      2 N          -9.0263  -10.9950   32.0179 N.ar    1  UNL1       -0.2950
      3 C         -10.0600  -11.8799   31.9638 C.ar    1  UNL1        0.2019
      4 N          -9.9635  -12.7685   30.9435 N.ar    1  UNL1       -0.2130
      5 C          -8.7994  -12.4331   30.3568 C.ar    1  UNL1        0.1086
      6 C          -8.1943  -13.0569   29.2629 C.ar    1  UNL1        0.0567
      7 I          -9.1164  -14.7722   28.4109 I       1  UNL1       -0.0407
      8 C          -6.9464  -12.5460   28.8171 C.ar    1  UNL1        0.0975
      9 C          -6.3507  -11.4528   29.4988 C.ar    1  UNL1        0.1786
     10 C          -6.9818  -10.8731   30.6169 C.ar    1  UNL1        0.1897
     11 C          -8.2256  -11.3751   31.0045 C.ar    1  UNL1        0.1178
     12 O          -6.3448   -9.8333   31.3011 O.3     1  UNL1       -0.4669
     13 C          -4.9712   -9.5238   31.0584 C.3     1  UNL1        0.2527
     14 C          -4.6533   -9.6631   29.5648 C.3     1  UNL1        0.2526
     15 O          -5.1268  -10.9196   29.0740 O.3     1  UNL1       -0.4682
     16 C          -6.2547  -13.1305   27.6545 C.2     1  UNL1        0.2530
     17 O          -5.2768  -12.5152   27.1503 O.2     1  UNL1       -0.2697
     18 N          -6.6963  -14.3827   27.1041 N.am    1  UNL1       -0.2803
     19 H          -7.4312  -14.9162   27.6212 H       1  UNL1        0.1552
     20 C          -6.1185  -14.9985   25.9413 C.ar    1  UNL1        0.0506
     21 C          -4.9821  -15.8041   26.0874 C.ar    1  UNL1        0.0170
     22 C          -4.4179  -16.4371   24.9790 C.ar    1  UNL1        0.0309
     23 C          -4.9878  -16.2813   23.7132 C.ar    1  UNL1        0.1441
     24 F          -4.4282  -16.9209   22.6547 F       1  UNL1       -0.2042
     25 C          -6.1359  -15.4849   23.5444 C.ar    1  UNL1        0.1000
     26 C          -6.7075  -14.8628   24.6713 C.ar    1  UNL1        0.0208
     27 C          -6.7680  -15.3587   22.1784 C.3     1  UNL1        0.4207
     28 F          -7.0892  -16.5963   21.6473 F       1  UNL1       -0.1658
     29 F          -5.8861  -14.7241   21.3233 F       1  UNL1       -0.1658
     30 F          -7.9289  -14.6112   22.2664 F       1  UNL1       -0.1658
     31 N         -11.1629  -11.8975   32.8803 N.pl3   1  UNL1       -0.2814
     32 H         -11.5271  -10.9762   33.2112 H       1  UNL1        0.1551
     33 C         -11.8909  -13.0858   33.2358 C.ar    1  UNL1        0.0889
     34 C         -11.4418  -13.9282   34.2743 C.ar    1  UNL1        0.1543
     35 F         -10.2983  -13.6522   34.9503 F       1  UNL1       -0.2028
     36 C         -12.1573  -15.0836   34.6021 C.ar    1  UNL1        0.0310
     37 C         -13.3142  -15.4174   33.8965 C.ar    1  UNL1        0.0033
     38 C         -13.7580  -14.6003   32.8554 C.ar    1  UNL1        0.0128
     39 C         -13.0506  -13.4408   32.5176 C.ar    1  UNL1        0.0733
     40 CL        -13.6622  -12.4268   31.2170 Cl      1  UNL1       -0.0809
@<TRIPOS>BOND
     1     1     2    1
     2     2     3   ar
     3     3    31    1
     4    31    33    1
     5    33    34   ar
     6    34    35    1
     7    34    36   ar
     8    36    37   ar
     9    37    38   ar
    10    38    39   ar
    11    39    40    1
    12     3     4   ar
    13     4     5   ar
    14     5     6   ar
    15     6     7    1
    16     6     8   ar
    17     8    16    1
    18    16    17    2
    19    16    18   am
    20    18    20    1
    21    20    21   ar
    22    21    22   ar
    23    22    23   ar
    24    23    24    1
    25    23    25   ar
    26    25    27    1
    27    27    28    1
    28    27    29    1
    29    27    30    1
    30    25    26   ar
    31     8     9   ar
    32     9    10   ar
    33    10    11   ar
    34    10    12    1
    35    12    13    1
    36    13    14    1
    37    14    15    1
    38    11     2   ar
    39    39    33   ar
    40    11     5   ar
    41    26    20   ar
    42    15     9    1
    43    31    32    1
    44    18    19    1
@<TRIPOS>MOLECULE
*****
 40 44 0 0 0
SMALL
GASTEIGER

@<TRIPOS>ATOM
      1 C          -7.4347  -19.9795   20.5943 C.3     1  UNL1        0.1333
      2 N          -6.8063  -18.9343   21.4029 N.ar    1  UNL1       -0.2950
      3 C          -5.5294  -18.4655   21.3378 C.ar    1  UNL1        0.2019
      4 N          -5.2857  -17.4301   22.1796 N.ar    1  UNL1       -0.2130
      5 C          -6.4617  -17.2711   22.8149 C.ar    1  UNL1        0.1086
      6 C          -6.7588  -16.3523   23.8246 C.ar    1  UNL1        0.0567
      7 I          -5.2222  -15.0696   24.5397 I       1  UNL1       -0.0407
      8 C          -8.0692  -16.3721   24.3722 C.ar    1  UNL1        0.0975
      9 C          -9.0125  -17.3232   23.9031 C.ar    1  UNL1        0.1786
     10 C          -8.6606  -18.2518   22.9039 C.ar    1  UNL1        0.1897
     11 C          -7.3766  -18.1793   22.3606 C.ar    1  UNL1        0.1178
     12 O          -9.5939  -19.2119   22.5010 O.3     1  UNL1       -0.4669
     13 C         -10.7884  -19.4393   23.2513 C.3     1  UNL1        0.2527
     14 C         -11.3476  -18.1097   23.7716 C.3     1  UNL1        0.2526
     15 O         -10.3159  -17.3580   24.4154 O.3     1  UNL1       -0.4682
     16 C          -8.4710  -15.4195   25.4223 C.2     1  UNL1        0.2530
     17 O          -9.5469  -14.7764   25.2870 O.2     1  UNL1       -0.2697
     18 N          -7.6417  -15.2266   26.5802 N.am    1  UNL1       -0.2803
     19 H          -6.8225  -15.8622   26.7107 H       1  UNL1        0.1552
     20 C          -7.9259  -14.2812   27.6245 C.ar    1  UNL1        0.0506
     21 C          -9.1660  -14.3314   28.2737 C.ar    1  UNL1        0.0170
     22 C          -9.4569  -13.4438   29.3106 C.ar    1  UNL1        0.0309
     23 C          -8.5090  -12.5022   29.7183 C.ar    1  UNL1        0.1441
     24 F          -8.8119  -11.6613   30.7399 F       1  UNL1       -0.2042
     25 C          -7.2524  -12.4404   29.0874 C.ar    1  UNL1        0.1000
     26 C          -6.9620  -13.3506   28.0525 C.ar    1  UNL1        0.0208
     27 C          -6.2202  -11.4468   29.5656 C.3     1  UNL1        0.4207
     28 F          -5.1487  -11.3626   28.6929 F       1  UNL1       -0.1658
     29 F          -5.7519  -11.8356   30.8071 F       1  UNL1       -0.1658
     30 F          -6.7918  -10.1913   29.6712 F       1  UNL1       -0.1658
     31 N          -4.5143  -18.9909   20.4717 N.pl3   1  UNL1       -0.2814
     32 H          -4.8218  -19.6248   19.7006 H       1  UNL1        0.1551
     33 C          -3.1390  -18.5714   20.5016 C.ar    1  UNL1        0.0889
     34 C          -2.1374  -19.4063   21.0394 C.ar    1  UNL1        0.1543
     35 F          -2.4480  -20.6184   21.5640 F       1  UNL1       -0.2028
     36 C          -0.8063  -18.9800   21.0678 C.ar    1  UNL1        0.0310
     37 C          -0.4614  -17.7208   20.5747 C.ar    1  UNL1        0.0033
     38 C          -1.4470  -16.8792   20.0562 C.ar    1  UNL1        0.0128
     39 C          -2.7832  -17.2945   20.0222 C.ar    1  UNL1        0.0733
     40 CL         -3.9871  -16.2120   19.3347 Cl      1  UNL1       -0.0809
@<TRIPOS>BOND
     1     1     2    1
     2     2     3   ar
     3     3    31    1
     4    31    33    1
     5    33    34   ar
     6    34    35    1
     7    34    36   ar
     8    36    37   ar
     9    37    38   ar
    10    38    39   ar
    11    39    40    1
    12     3     4   ar
    13     4     5   ar
    14     5     6   ar
    15     6     7    1
    16     6     8   ar
    17     8    16    1
    18    16    17    2
    19    16    18   am
    20    18    20    1
    21    20    21   ar
    22    21    22   ar
    23    22    23   ar
    24    23    24    1
    25    23    25   ar
    26    25    27    1
    27    27    28    1
    28    27    29    1
    29    27    30    1
    30    25    26   ar
    31     8     9   ar
    32     9    10   ar
    33    10    11   ar
    34    10    12    1
    35    12    13    1
    36    13    14    1
    37    14    15    1
    38    11     2   ar
    39    39    33   ar
    40    11     5   ar
    41    26    20   ar
    42    15     9    1
    43    31    32    1
    44    18    19    1
@<TRIPOS>MOLECULE
*****
 40 44 0 0 0
SMALL
GASTEIGER

@<TRIPOS>ATOM
      1 C          -8.8233  -10.3687   31.2788 C.3     1  UNL1        0.1333
      2 N          -9.0085  -11.6353   30.5700 N.ar    1  UNL1       -0.2950
      3 C         -10.0426  -12.5163   30.6653 C.ar    1  UNL1        0.2019
      4 N          -9.9475  -13.5628   29.8074 N.ar    1  UNL1       -0.2130
      5 C          -8.7839  -13.3306   29.1719 C.ar    1  UNL1        0.1086
      6 C          -8.1801  -14.1285   28.1968 C.ar    1  UNL1        0.0567
      7 I          -9.1037  -15.9614   27.6439 I       1  UNL1       -0.0407
      8 C          -6.9324  -13.6997   27.6708 C.ar    1  UNL1        0.0975
      9 C          -6.3357  -12.5084   28.1600 C.ar    1  UNL1        0.1786
     10 C          -6.9655  -11.7499   29.1663 C.ar    1  UNL1        0.1897
     11 C          -8.2090  -12.1796   29.6334 C.ar    1  UNL1        0.1178
     12 O          -6.3274  -10.6109   29.6668 O.3     1  UNL1       -0.4669
     13 C          -4.9539  -10.3469   29.3745 C.3     1  UNL1        0.2527
     14 C          -4.6376  -10.7337   27.9248 C.3     1  UNL1        0.2526
     15 O          -5.1121  -12.0542   27.6510 O.3     1  UNL1       -0.4682
     16 C          -6.2422  -14.4704   26.6214 C.2     1  UNL1        0.2530
     17 O          -5.1766  -15.0795   26.9092 O.2     1  UNL1       -0.2697
     18 N          -6.7782  -14.5195   25.2887 N.am    1  UNL1       -0.2803
     19 H          -7.7211  -14.1011   25.1214 H       1  UNL1        0.1552
     20 C          -6.1452  -15.1985   24.1918 C.ar    1  UNL1        0.0506
     21 C          -6.4679  -14.8279   22.8801 C.ar    1  UNL1        0.0170
     22 C          -5.8467  -15.4512   21.7970 C.ar    1  UNL1        0.0309
     23 C          -4.8884  -16.4448   22.0110 C.ar    1  UNL1        0.1441
     24 F          -4.2880  -17.0237   20.9399 F       1  UNL1       -0.2042
     25 C          -4.5408  -16.8260   23.3205 C.ar    1  UNL1        0.1000
     26 C          -5.1615  -16.1804   24.4074 C.ar    1  UNL1        0.0208
     27 C          -3.4725  -17.8710   23.5397 C.3     1  UNL1        0.4207
     28 F          -3.2529  -18.1029   24.8868 F       1  UNL1       -0.1658
     29 F          -2.2899  -17.4437   22.9644 F       1  UNL1       -0.1658
     30 F          -3.8557  -19.0635   22.9522 F       1  UNL1       -0.1658
     31 N         -11.1446  -12.3802   31.5729 N.pl3   1  UNL1       -0.2814
     32 H         -11.8401  -11.6267   31.3742 H       1  UNL1        0.1551
     33 C         -11.4321  -13.3117   32.6303 C.ar    1  UNL1        0.0889
     34 C         -12.4038  -14.3205   32.4641 C.ar    1  UNL1        0.1543
     35 F         -13.1100  -14.4247   31.3103 F       1  UNL1       -0.2028
     36 C         -12.6764  -15.2131   33.5049 C.ar    1  UNL1        0.0310
     37 C         -11.9971  -15.1049   34.7192 C.ar    1  UNL1        0.0033
     38 C         -11.0460  -14.0995   34.9007 C.ar    1  UNL1        0.0128
     39 C         -10.7640  -13.1996   33.8663 C.ar    1  UNL1        0.0733
     40 CL         -9.5382  -11.9662   34.1304 Cl      1  UNL1       -0.0809
@<TRIPOS>BOND
     1     1     2    1
     2     2     3   ar
     3     3    31    1
     4    31    33    1
     5    33    34   ar
     6    34    35    1
     7    34    36   ar
     8    36    37   ar
     9    37    38   ar
    10    38    39   ar
    11    39    40    1
    12     3     4   ar
    13     4     5   ar
    14     5     6   ar
    15     6     7    1
    16     6     8   ar
    17     8    16    1
    18    16    17    2
    19    16    18   am
    20    18    20    1
    21    20    21   ar
    22    21    22   ar
    23    22    23   ar
    24    23    24    1
    25    23    25   ar
    26    25    27    1
    27    27    28    1
    28    27    29    1
    29    27    30    1
    30    25    26   ar
    31     8     9   ar
    32     9    10   ar
    33    10    11   ar
    34    10    12    1
    35    12    13    1
    36    13    14    1
    37    14    15    1
    38    11     2   ar
    39    39    33   ar
    40    11     5   ar
    41    26    20   ar
    42    15     9    1
    43    31    32    1
    44    18    19    1
@<TRIPOS>MOLECULE
*****
 40 44 0 0 0
SMALL
GASTEIGER

@<TRIPOS>ATOM
      1 C          -7.7116  -18.7598   21.1882 C.3     1  UNL1        0.1333
      2 N          -7.0806  -17.8310   22.1264 N.ar    1  UNL1       -0.2950
      3 C          -5.9042  -17.1585   21.9908 C.ar    1  UNL1        0.2019
      4 N          -5.6414  -16.3088   23.0150 N.ar    1  UNL1       -0.2130
      5 C          -6.6932  -16.4869   23.8358 C.ar    1  UNL1        0.1086
      6 C          -6.9132  -15.8742   25.0720 C.ar    1  UNL1        0.0567
      7 I          -5.4422  -14.5488   25.8450 I       1  UNL1       -0.0407
      8 C          -8.0900  -16.2266   25.7848 C.ar    1  UNL1        0.0975
      9 C          -8.9784  -17.1910   25.2413 C.ar    1  UNL1        0.1786
     10 C          -8.7019  -17.8066   24.0047 C.ar    1  UNL1        0.1897
     11 C          -7.5564  -17.4087   23.3129 C.ar    1  UNL1        0.1178
     12 O          -9.5673  -18.7926   23.5210 O.3     1  UNL1       -0.4669
     13 C         -10.5688  -19.3706   24.3603 C.3     1  UNL1        0.2527
     14 C         -11.1838  -18.2974   25.2665 C.3     1  UNL1        0.2526
     15 O         -10.1530  -17.5490   25.9156 O.3     1  UNL1       -0.4682
     16 C          -8.4091  -15.6073   27.0833 C.2     1  UNL1        0.2530
     17 O          -8.7715  -16.3432   28.0406 O.2     1  UNL1       -0.2697
     18 N          -8.3115  -14.1829   27.2491 N.am    1  UNL1       -0.2803
     19 H          -7.8957  -13.6237   26.4703 H       1  UNL1        0.1552
     20 C          -8.6549  -13.4888   28.4596 C.ar    1  UNL1        0.0506
     21 C          -9.9193  -13.6895   29.0279 C.ar    1  UNL1        0.0170
     22 C         -10.2680  -13.0502   30.2184 C.ar    1  UNL1        0.0309
     23 C          -9.3547  -12.2108   30.8608 C.ar    1  UNL1        0.1441
     24 F          -9.7140  -11.6139   32.0259 F       1  UNL1       -0.2042
     25 C          -8.0748  -12.0027   30.3136 C.ar    1  UNL1        0.1000
     26 C          -7.7263  -12.6644   29.1202 C.ar    1  UNL1        0.0208
     27 C          -7.0810  -11.1272   31.0397 C.3     1  UNL1        0.4207
     28 F          -7.0829  -11.3728   32.4021 F       1  UNL1       -0.1658
     29 F          -7.4015   -9.7988   30.8278 F       1  UNL1       -0.1658
     30 F          -5.8062  -11.3667   30.5585 F       1  UNL1       -0.1658
     31 N          -5.0060  -17.3081   20.8828 N.pl3   1  UNL1       -0.2814
     32 H          -5.3172  -16.9342   19.9585 H       1  UNL1        0.1551
     33 C          -3.6555  -17.7874   21.0046 C.ar    1  UNL1        0.0889
     34 C          -2.6148  -16.9276   21.4137 C.ar    1  UNL1        0.1543
     35 F          -2.8559  -15.6195   21.6811 F       1  UNL1       -0.2028
     36 C          -1.3061  -17.4078   21.5197 C.ar    1  UNL1        0.0310
     37 C          -1.0188  -18.7380   21.2103 C.ar    1  UNL1        0.0033
     38 C          -2.0379  -19.5931   20.7876 C.ar    1  UNL1        0.0128
     39 C          -3.3522  -19.1244   20.6776 C.ar    1  UNL1        0.0733
     40 CL         -4.6087  -20.2447   20.1677 Cl      1  UNL1       -0.0809
@<TRIPOS>BOND
     1     1     2    1
     2     2     3   ar
     3     3    31    1
     4    31    33    1
     5    33    34   ar
     6    34    35    1
     7    34    36   ar
     8    36    37   ar
     9    37    38   ar
    10    38    39   ar
    11    39    40    1
    12     3     4   ar
    13     4     5   ar
    14     5     6   ar
    15     6     7    1
    16     6     8   ar
    17     8    16    1
    18    16    17    2
    19    16    18   am
    20    18    20    1
    21    20    21   ar
    22    21    22   ar
    23    22    23   ar
    24    23    24    1
    25    23    25   ar
    26    25    27    1
    27    27    28    1
    28    27    29    1
    29    27    30    1
    30    25    26   ar
    31     8     9   ar
    32     9    10   ar
    33    10    11   ar
    34    10    12    1
    35    12    13    1
    36    13    14    1
    37    14    15    1
    38    11     2   ar
    39    39    33   ar
    40    11     5   ar
    41    26    20   ar
    42    15     9    1
    43    31    32    1
    44    18    19    1
@<TRIPOS>MOLECULE
*****
 40 44 0 0 0
SMALL
GASTEIGER

@<TRIPOS>ATOM
      1 C          -8.8697  -10.3227   31.2979 C.3     1  UNL1        0.1333
      2 N          -9.0577  -11.6011   30.6113 N.ar    1  UNL1       -0.2950
      3 C         -10.0887  -12.4828   30.7294 C.ar    1  UNL1        0.2019
      4 N          -9.9981  -13.5429   29.8879 N.ar    1  UNL1       -0.2130
      5 C          -8.8403  -13.3183   29.2392 C.ar    1  UNL1        0.1086
      6 C          -8.2427  -14.1306   28.2722 C.ar    1  UNL1        0.0567
      7 I          -9.1662  -15.9744   27.7568 I       1  UNL1       -0.0407
      8 C          -7.0004  -13.7075   27.7290 C.ar    1  UNL1        0.0975
      9 C          -6.4027  -12.5071   28.1938 C.ar    1  UNL1        0.1786
     10 C          -7.0259  -11.7338   29.1928 C.ar    1  UNL1        0.1897
     11 C          -8.2646  -12.1586   29.6771 C.ar    1  UNL1        0.1178
     12 O          -6.3866  -10.5852   29.6694 O.3     1  UNL1       -0.4669
     13 C          -5.0162  -10.3228   29.3615 C.3     1  UNL1        0.2527
     14 C          -4.7110  -10.7324   27.9157 C.3     1  UNL1        0.2526
     15 O          -5.1844  -12.0583   27.6674 O.3     1  UNL1       -0.4682
     16 C          -6.3169  -14.4936   26.6865 C.2     1  UNL1        0.2530
     17 O          -5.1995  -15.0159   26.9469 O.2     1  UNL1       -0.2697
     18 N          -6.9183  -14.6551   25.3911 N.am    1  UNL1       -0.2803
     19 H          -7.8944  -14.3079   25.2545 H       1  UNL1        0.1552
     20 C          -6.3004  -15.3562   24.2995 C.ar    1  UNL1        0.0506
     21 C          -5.0476  -14.9338   23.8369 C.ar    1  UNL1        0.0170
     22 C          -4.4124  -15.6145   22.7973 C.ar    1  UNL1        0.0309
     23 C          -5.0160  -16.7312   22.2142 C.ar    1  UNL1        0.1441
     24 F          -4.3691  -17.3843   21.2154 F       1  UNL1       -0.2042
     25 C          -6.2698  -17.1799   22.6698 C.ar    1  UNL1        0.1000
     26 C          -6.8961  -16.4960   23.7299 C.ar    1  UNL1        0.0208
     27 C          -6.8926  -18.4137   22.0606 C.3     1  UNL1        0.4207
     28 F          -8.1360  -18.6819   22.6072 F       1  UNL1       -0.1658
     29 F          -6.0665  -19.5001   22.2827 F       1  UNL1       -0.1658
     30 F          -7.0484  -18.2357   20.6974 F       1  UNL1       -0.1658
     31 N         -11.1836  -12.3345   31.6438 N.pl3   1  UNL1       -0.2814
     32 H         -11.8416  -11.5400   31.4803 H       1  UNL1        0.1551
     33 C         -11.5166  -13.2977   32.6586 C.ar    1  UNL1        0.0889
     34 C         -12.5333  -14.2523   32.4469 C.ar    1  UNL1        0.1543
     35 F         -13.2401  -14.2726   31.2890 F       1  UNL1       -0.2028
     36 C         -12.8497  -15.1767   33.4468 C.ar    1  UNL1        0.0310
     37 C         -12.1696  -15.1538   34.6653 C.ar    1  UNL1        0.0033
     38 C         -11.1738  -14.2023   34.8921 C.ar    1  UNL1        0.0128
     39 C         -10.8478  -13.2714   33.8990 C.ar    1  UNL1        0.0733
     40 CL         -9.5673  -12.1087   34.2186 Cl      1  UNL1       -0.0809
@<TRIPOS>BOND
     1     1     2    1
     2     2     3   ar
     3     3    31    1
     4    31    33    1
     5    33    34   ar
     6    34    35    1
     7    34    36   ar
     8    36    37   ar
     9    37    38   ar
    10    38    39   ar
    11    39    40    1
    12     3     4   ar
    13     4     5   ar
    14     5     6   ar
    15     6     7    1
    16     6     8   ar
    17     8    16    1
    18    16    17    2
    19    16    18   am
    20    18    20    1
    21    20    21   ar
    22    21    22   ar
    23    22    23   ar
    24    23    24    1
    25    23    25   ar
    26    25    27    1
    27    27    28    1
    28    27    29    1
    29    27    30    1
    30    25    26   ar
    31     8     9   ar
    32     9    10   ar
    33    10    11   ar
    34    10    12    1
    35    12    13    1
    36    13    14    1
    37    14    15    1
    38    11     2   ar
    39    39    33   ar
    40    11     5   ar
    41    26    20   ar
    42    15     9    1
    43    31    32    1
    44    18    19    1
@<TRIPOS>MOLECULE
*****
 40 44 0 0 0
SMALL
GASTEIGER

@<TRIPOS>ATOM
      1 C          -7.8858  -18.5785   21.3692 C.3     1  UNL1        0.1333
      2 N          -7.2394  -17.6532   22.3004 N.ar    1  UNL1       -0.2950
      3 C          -6.0826  -16.9541   22.1342 C.ar    1  UNL1        0.2019
      4 N          -5.7994  -16.1169   23.1633 N.ar    1  UNL1       -0.2130
      5 C          -6.8166  -16.3310   24.0185 C.ar    1  UNL1        0.1086
      6 C          -7.0032  -15.7444   25.2727 C.ar    1  UNL1        0.0567
      7 I          -5.5317  -14.4023   26.0154 I       1  UNL1       -0.0407
      8 C          -8.1457  -16.1335   26.0214 C.ar    1  UNL1        0.0975
      9 C          -9.0339  -17.1066   25.4933 C.ar    1  UNL1        0.1786
     10 C          -8.7907  -17.6949   24.2367 C.ar    1  UNL1        0.1897
     11 C          -7.6797  -17.2613   23.5108 C.ar    1  UNL1        0.1178
     12 O          -9.6533  -18.6901   23.7671 O.3     1  UNL1       -0.4669
     13 C         -10.6115  -19.3032   24.6317 C.3     1  UNL1        0.2527
     14 C         -11.2142  -18.2588   25.5789 C.3     1  UNL1        0.2526
     15 O         -10.1755  -17.5005   26.2034 O.3     1  UNL1       -0.4682
     16 C          -8.4292  -15.5434   27.3417 C.2     1  UNL1        0.2530
     17 O          -8.6831  -16.3069   28.3122 O.2     1  UNL1       -0.2697
     18 N          -8.4199  -14.1165   27.5136 N.am    1  UNL1       -0.2803
     19 H          -8.0902  -13.5265   26.7165 H       1  UNL1        0.1552
     20 C          -8.7380  -13.4531   28.7480 C.ar    1  UNL1        0.0506
     21 C          -7.8785  -12.4582   29.2311 C.ar    1  UNL1        0.0170
     22 C          -8.1785  -11.7783   30.4123 C.ar    1  UNL1        0.0309
     23 C          -9.3455  -12.0767   31.1198 C.ar    1  UNL1        0.1441
     24 F          -9.6211  -11.3891   32.2573 F       1  UNL1       -0.2042
     25 C         -10.2291  -13.0652   30.6476 C.ar    1  UNL1        0.1000
     26 C          -9.9259  -13.7351   29.4464 C.ar    1  UNL1        0.0208
     27 C         -11.5088  -13.3488   31.3981 C.3     1  UNL1        0.4207
     28 F         -11.4124  -12.9829   32.7299 F       1  UNL1       -0.1658
     29 F         -11.7896  -14.7009   31.3286 F       1  UNL1       -0.1658
     30 F         -12.5525  -12.6407   30.8293 F       1  UNL1       -0.1658
     31 N          -5.2230  -17.0659   20.9917 N.pl3   1  UNL1       -0.2814
     32 H          -5.5683  -16.6675   20.0901 H       1  UNL1        0.1551
     33 C          -3.8664  -17.5397   21.0525 C.ar    1  UNL1        0.0889
     34 C          -2.8224  -16.6967   21.4872 C.ar    1  UNL1        0.1543
     35 F          -3.0665  -15.4090   21.8378 F       1  UNL1       -0.2028
     36 C          -1.5080  -17.1709   21.5330 C.ar    1  UNL1        0.0310
     37 C          -1.2186  -18.4777   21.1381 C.ar    1  UNL1        0.0033
     38 C          -2.2414  -19.3151   20.6895 C.ar    1  UNL1        0.0128
     39 C          -3.5614  -18.8522   20.6390 C.ar    1  UNL1        0.0733
     40 CL         -4.8216  -19.9511   20.0933 Cl      1  UNL1       -0.0809
@<TRIPOS>BOND
     1     1     2    1
     2     2     3   ar
     3     3    31    1
     4    31    33    1
     5    33    34   ar
     6    34    35    1
     7    34    36   ar
     8    36    37   ar
     9    37    38   ar
    10    38    39   ar
    11    39    40    1
    12     3     4   ar
    13     4     5   ar
    14     5     6   ar
    15     6     7    1
    16     6     8   ar
    17     8    16    1
    18    16    17    2
    19    16    18   am
    20    18    20    1
    21    20    21   ar
    22    21    22   ar
    23    22    23   ar
    24    23    24    1
    25    23    25   ar
    26    25    27    1
    27    27    28    1
    28    27    29    1
    29    27    30    1
    30    25    26   ar
    31     8     9   ar
    32     9    10   ar
    33    10    11   ar
    34    10    12    1
    35    12    13    1
    36    13    14    1
    37    14    15    1
    38    11     2   ar
    39    39    33   ar
    40    11     5   ar
    41    26    20   ar
    42    15     9    1
    43    31    32    1
    44    18    19    1
@<TRIPOS>MOLECULE
*****
 40 44 0 0 0
SMALL
GASTEIGER

@<TRIPOS>ATOM
      1 C          -7.8748  -18.6534   21.3653 C.3     1  UNL1        0.1333
      2 N          -7.2295  -17.7279   22.2971 N.ar    1  UNL1       -0.2950
      3 C          -6.0637  -17.0420   22.1391 C.ar    1  UNL1        0.2019
      4 N          -5.7836  -16.2003   23.1653 N.ar    1  UNL1       -0.2130
      5 C          -6.8125  -16.3976   24.0103 C.ar    1  UNL1        0.1086
      6 C          -7.0074  -15.8000   25.2581 C.ar    1  UNL1        0.0567
      7 I          -5.5306  -14.4676   26.0078 I       1  UNL1       -0.0407
      8 C          -8.1622  -16.1718   25.9965 C.ar    1  UNL1        0.0975
      9 C          -9.0544  -17.1396   25.4653 C.ar    1  UNL1        0.1786
     10 C          -8.8030  -17.7395   24.2158 C.ar    1  UNL1        0.1897
     11 C          -7.6795  -17.3227   23.4996 C.ar    1  UNL1        0.1178
     12 O          -9.6705  -18.7293   23.7436 O.3     1  UNL1       -0.4669
     13 C         -10.6447  -19.3262   24.6017 C.3     1  UNL1        0.2527
     14 C         -11.2473  -18.2687   25.5343 C.3     1  UNL1        0.2526
     15 O         -10.2080  -17.5165   26.1652 O.3     1  UNL1       -0.4682
     16 C          -8.4546  -15.5692   27.3091 C.2     1  UNL1        0.2530
     17 O          -8.7834  -16.3188   28.2679 O.2     1  UNL1       -0.2697
     18 N          -8.3692  -14.1455   27.4869 N.am    1  UNL1       -0.2803
     19 H          -7.9803  -13.5737   26.7033 H       1  UNL1        0.1552
     20 C          -8.6890  -13.4675   28.7129 C.ar    1  UNL1        0.0506
     21 C          -7.8509  -12.4404   29.1653 C.ar    1  UNL1        0.0170
     22 C          -8.1539  -11.7464   30.3375 C.ar    1  UNL1        0.0309
     23 C          -9.3027  -12.0630   31.0665 C.ar    1  UNL1        0.1441
     24 F          -9.5820  -11.3616   32.1947 F       1  UNL1       -0.2042
     25 C         -10.1648  -13.0842   30.6253 C.ar    1  UNL1        0.1000
     26 C          -9.8593  -13.7684   29.4328 C.ar    1  UNL1        0.0208
     27 C         -11.4261  -13.3883   31.3986 C.3     1  UNL1        0.4207
     28 F         -11.8103  -14.7101   31.2509 F       1  UNL1       -0.1658
     29 F         -12.4483  -12.5756   30.9441 F       1  UNL1       -0.1658
     30 F         -11.2205  -13.1454   32.7451 F       1  UNL1       -0.1658
     31 N          -5.1924  -17.1709   21.0073 N.pl3   1  UNL1       -0.2814
     32 H          -5.3648  -16.5386   20.1941 H       1  UNL1        0.1551
     33 C          -4.0124  -17.9929   20.9936 C.ar    1  UNL1        0.0889
     34 C          -4.0639  -19.3287   20.5434 C.ar    1  UNL1        0.1543
     35 F          -5.2331  -19.8811   20.1329 F       1  UNL1       -0.2028
     36 C          -2.9090  -20.1164   20.5438 C.ar    1  UNL1        0.0310
     37 C          -1.6998  -19.5899   21.0004 C.ar    1  UNL1        0.0033
     38 C          -1.6410  -18.2748   21.4645 C.ar    1  UNL1        0.0128
     39 C          -2.7903  -17.4760   21.4692 C.ar    1  UNL1        0.0733
     40 CL         -2.6631  -15.8161   22.0371 Cl      1  UNL1       -0.0809
@<TRIPOS>BOND
     1     1     2    1
     2     2     3   ar
     3     3    31    1
     4    31    33    1
     5    33    34   ar
     6    34    35    1
     7    34    36   ar
     8    36    37   ar
     9    37    38   ar
    10    38    39   ar
    11    39    40    1
    12     3     4   ar
    13     4     5   ar
    14     5     6   ar
    15     6     7    1
    16     6     8   ar
    17     8    16    1
    18    16    17    2
    19    16    18   am
    20    18    20    1
    21    20    21   ar
    22    21    22   ar
    23    22    23   ar
    24    23    24    1
    25    23    25   ar
    26    25    27    1
    27    27    28    1
    28    27    29    1
    29    27    30    1
    30    25    26   ar
    31     8     9   ar
    32     9    10   ar
    33    10    11   ar
    34    10    12    1
    35    12    13    1
    36    13    14    1
    37    14    15    1
    38    11     2   ar
    39    39    33   ar
    40    11     5   ar
    41    26    20   ar
    42    15     9    1
    43    31    32    1
    44    18    19    1
