@<TRIPOS>MOLECULE
*****
 50 55 0 0 0
SMALL
GASTEIGER

@<TRIPOS>ATOM
      1 O           9.9868   76.3506   26.8607 O.2     1  UNL1       -0.2701
      2 C           8.7869   76.7402   26.8610 C.2     1  UNL1        0.2484
      3 N           8.2866   77.5075   27.9667 N.am    1  UNL1       -0.2945
      4 H           7.3938   78.0376   27.8467 H       1  UNL1        0.1501
      5 C           7.9220   76.4264   25.7017 C.ar    1  UNL1        0.0813
      6 C           8.4986   75.9305   24.5198 C.ar    1  UNL1        0.0138
      7 C           7.7044   75.6306   23.4078 C.ar    1  UNL1        0.0436
      8 I           8.6431   74.8736   21.6675 I       1  UNL1       -0.0412
      9 C           6.3137   75.8170   23.4717 C.ar    1  UNL1        0.0556
     10 C           5.7316   76.2892   24.6536 C.ar    1  UNL1        0.0447
     11 C           6.5245   76.5907   25.7642 C.ar    1  UNL1        0.1457
     12 F           5.9170   76.9943   26.9082 F       1  UNL1       -0.2040
     13 N           5.4796   75.5210   22.3454 N.pl3   1  UNL1       -0.3037
     14 C           4.9842   76.6073   21.4976 C.3     1  UNL1        0.1123
     15 C           3.5039   76.3825   21.1785 C.3     1  UNL1        0.1136
     16 N           3.2455   75.0065   20.7148 N.pl3   1  UNL1       -0.2897
     17 C           4.3207   74.0018   20.7673 C.3     1  UNL1        0.1136
     18 C           5.1183   74.1271   22.0703 C.3     1  UNL1        0.1123
     19 C           1.9979   74.6824   20.0588 C.ar    1  UNL1        0.1318
     20 C           1.3153   75.6276   19.2725 C.ar    1  UNL1        0.0343
     21 C           0.1145   75.2752   18.6545 C.ar    1  UNL1        0.0083
     22 C          -0.4226   73.9919   18.8314 C.ar    1  UNL1        0.0906
     23 C           0.2985   73.0694   19.6039 C.ar    1  UNL1        0.1041
     24 N           1.4671   73.4344   20.1941 N.ar    1  UNL1       -0.2292
     25 C          -1.6923   73.5839   18.1289 C.3     1  UNL1        0.4200
     26 F          -1.7358   74.1157   16.8516 F       1  UNL1       -0.1658
     27 F          -1.7432   72.2051   18.0449 F       1  UNL1       -0.1658
     28 F          -2.8014   74.0349   18.8236 F       1  UNL1       -0.1658
     29 C           9.0693   77.7091   29.1899 C.3     1  UNL1        0.1535
     30 C           8.7842   79.0728   29.7590 C.2     1  UNL1        0.2443
     31 O           7.8624   79.7690   29.2536 O.2     1  UNL1       -0.2730
     32 N           9.5291   79.5587   30.8886 N.am    1  UNL1       -0.2825
     33 H          10.0791   78.8674   31.4468 H       1  UNL1        0.1549
     34 C           9.4783   80.9147   31.3633 C.ar    1  UNL1        0.0535
     35 C           9.0255   81.1724   32.6645 C.ar    1  UNL1        0.0353
     36 C           8.9963   82.4859   33.1392 C.ar    1  UNL1        0.1002
     37 N           9.4214   83.5063   32.3484 N.ar    1  UNL1       -0.2422
     38 C           9.8848   83.2858   31.0897 C.ar    1  UNL1        0.1002
     39 C           9.9295   81.9874   30.5757 C.ar    1  UNL1        0.0353
     40 C           8.7510   76.6219   30.2311 C.3     1  UNL1        0.0569
     41 C           7.2836   76.3046   30.2534 C.ar    1  UNL1       -0.0017
     42 C           6.2873   77.0329   30.8968 C.ar    1  UNL1        0.0681
     43 N           5.0711   76.5019   30.6357 N.ar    1  UNL1       -0.3523
     44 C           5.2905   75.4512   29.8262 C.ar    1  UNL1        0.0563
     45 C           4.3372   74.5985   29.2713 C.ar    1  UNL1        0.0170
     46 C           4.7896   73.5663   28.4287 C.ar    1  UNL1        0.0015
     47 C           6.1681   73.4136   28.1604 C.ar    1  UNL1        0.0001
     48 C           7.1074   74.2907   28.7328 C.ar    1  UNL1        0.0012
     49 C           6.6288   75.3012   29.5670 C.ar    1  UNL1        0.0131
     50 H           4.1497   76.8504   30.9820 H       1  UNL1        0.1660
@<TRIPOS>BOND
     1     1     2    2
     2     2     3   am
     3     3    29    1
     4    29    40    1
     5    40    41    1
     6    41    42   ar
     7    42    43   ar
     8    43    44   ar
     9    44    45   ar
    10    45    46   ar
    11    46    47   ar
    12    47    48   ar
    13    48    49   ar
    14    29    30    1
    15    30    31    2
    16    30    32   am
    17    32    34    1
    18    34    35   ar
    19    35    36   ar
    20    36    37   ar
    21    37    38   ar
    22    38    39   ar
    23     2     5    1
    24     5     6   ar
    25     6     7   ar
    26     7     8    1
    27     7     9   ar
    28     9    13    1
    29    13    14    1
    30    14    15    1
    31    15    16    1
    32    16    19    1
    33    19    20   ar
    34    20    21   ar
    35    21    22   ar
    36    22    25    1
    37    25    26    1
    38    25    27    1
    39    25    28    1
    40    22    23   ar
    41    23    24   ar
    42    16    17    1
    43    17    18    1
    44     9    10   ar
    45    10    11   ar
    46    11    12    1
    47    49    41   ar
    48    39    34   ar
    49    11     5   ar
    50    49    44   ar
    51    18    13    1
    52    24    19   ar
    53     3     4    1
    54    43    50    1
    55    32    33    1
@<TRIPOS>MOLECULE
*****
 50 55 0 0 0
SMALL
GASTEIGER

@<TRIPOS>ATOM
      1 O          10.3629   76.4835   26.7105 O.2     1  UNL1       -0.2701
      2 C           9.1570   76.8532   26.7377 C.2     1  UNL1        0.2484
      3 N           8.6650   77.5990   27.8617 N.am    1  UNL1       -0.2945
      4 H           7.7615   78.1156   27.7646 H       1  UNL1        0.1501
      5 C           8.2759   76.5389   25.5908 C.ar    1  UNL1        0.0813
      6 C           6.8815   76.6295   25.7418 C.ar    1  UNL1        0.0138
      7 C           6.0260   76.3331   24.6752 C.ar    1  UNL1        0.0436
      8 I           3.9372   76.5064   24.9743 I       1  UNL1       -0.0412
      9 C           6.5624   75.9490   23.4352 C.ar    1  UNL1        0.0556
     10 C           7.9506   75.8788   23.2727 C.ar    1  UNL1        0.0447
     11 C           8.8058   76.1730   24.3382 C.ar    1  UNL1        0.1457
     12 F          10.1454   76.1459   24.1251 F       1  UNL1       -0.2040
     13 N           5.7073   75.6367   22.3293 N.pl3   1  UNL1       -0.3037
     14 C           5.1915   76.7111   21.4784 C.3     1  UNL1        0.1123
     15 C           3.7060   76.4776   21.1913 C.3     1  UNL1        0.1136
     16 N           3.4432   75.0953   20.7495 N.pl3   1  UNL1       -0.2897
     17 C           4.5227   74.0948   20.7928 C.3     1  UNL1        0.1136
     18 C           5.3455   74.2385   22.0781 C.3     1  UNL1        0.1123
     19 C           2.1840   74.7593   20.1221 C.ar    1  UNL1        0.1318
     20 C           1.5212   75.6657   19.2756 C.ar    1  UNL1        0.0343
     21 C           0.3083   75.3028   18.6880 C.ar    1  UNL1        0.0083
     22 C          -0.2602   74.0489   18.9547 C.ar    1  UNL1        0.0906
     23 C           0.4417   73.1632   19.7858 C.ar    1  UNL1        0.1041
     24 N           1.6225   73.5376   20.3449 N.ar    1  UNL1       -0.2292
     25 C          -1.5439   73.6266   18.2868 C.3     1  UNL1        0.4200
     26 F          -1.5136   72.2771   17.9803 F       1  UNL1       -0.1658
     27 F          -2.6031   73.8711   19.1408 F       1  UNL1       -0.1658
     28 F          -1.7387   74.3330   17.1125 F       1  UNL1       -0.1658
     29 C           9.4669   77.7990   29.0726 C.3     1  UNL1        0.1535
     30 C           9.4796   79.2581   29.4409 C.2     1  UNL1        0.2443
     31 O           9.8374   80.1061   28.5792 O.2     1  UNL1       -0.2730
     32 N           9.0528   79.6812   30.7470 N.am    1  UNL1       -0.2825
     33 H           8.5109   79.0032   31.3289 H       1  UNL1        0.1549
     34 C           9.2293   81.0127   31.2593 C.ar    1  UNL1        0.0535
     35 C           8.8410   81.3017   32.5747 C.ar    1  UNL1        0.0353
     36 C           9.0319   82.5878   33.0855 C.ar    1  UNL1        0.1002
     37 N           9.6072   83.5488   32.3156 N.ar    1  UNL1       -0.2422
     38 C          10.0125   83.2937   31.0435 C.ar    1  UNL1        0.1002
     39 C           9.8389   82.0210   30.4935 C.ar    1  UNL1        0.0353
     40 C           8.9170   76.9612   30.2402 C.3     1  UNL1        0.0569
     41 C           7.4536   76.6766   30.0621 C.ar    1  UNL1       -0.0017
     42 C           6.3962   77.4894   30.4603 C.ar    1  UNL1        0.0681
     43 N           5.2171   76.9570   30.0659 N.ar    1  UNL1       -0.3523
     44 C           5.5217   75.8209   29.4148 C.ar    1  UNL1        0.0563
     45 C           4.6363   74.9317   28.8071 C.ar    1  UNL1        0.0170
     46 C           5.1767   73.8060   28.1587 C.ar    1  UNL1        0.0015
     47 C           6.5738   73.5985   28.1297 C.ar    1  UNL1        0.0001
     48 C           7.4435   74.5139   28.7499 C.ar    1  UNL1        0.0012
     49 C           6.8778   75.6177   29.3883 C.ar    1  UNL1        0.0131
     50 H           4.2663   77.3586   30.2236 H       1  UNL1        0.1660
@<TRIPOS>BOND
     1     1     2    2
     2     2     3   am
     3     3    29    1
     4    29    40    1
     5    40    41    1
     6    41    42   ar
     7    42    43   ar
     8    43    44   ar
     9    44    45   ar
    10    45    46   ar
    11    46    47   ar
    12    47    48   ar
    13    48    49   ar
    14    29    30    1
    15    30    31    2
    16    30    32   am
    17    32    34    1
    18    34    35   ar
    19    35    36   ar
    20    36    37   ar
    21    37    38   ar
    22    38    39   ar
    23     2     5    1
    24     5     6   ar
    25     6     7   ar
    26     7     8    1
    27     7     9   ar
    28     9    13    1
    29    13    14    1
    30    14    15    1
    31    15    16    1
    32    16    19    1
    33    19    20   ar
    34    20    21   ar
    35    21    22   ar
    36    22    25    1
    37    25    26    1
    38    25    27    1
    39    25    28    1
    40    22    23   ar
    41    23    24   ar
    42    16    17    1
    43    17    18    1
    44     9    10   ar
    45    10    11   ar
    46    11    12    1
    47    49    41   ar
    48    39    34   ar
    49    11     5   ar
    50    49    44   ar
    51    18    13    1
    52    24    19   ar
    53     3     4    1
    54    43    50    1
    55    32    33    1
@<TRIPOS>MOLECULE
*****
 50 55 0 0 0
SMALL
GASTEIGER

@<TRIPOS>ATOM
      1 O           5.9121   73.2177   22.2133 O.2     1  UNL1       -0.2701
      2 C           5.6389   74.4315   22.4223 C.2     1  UNL1        0.2484
      3 N           4.6443   75.0868   21.6204 N.am    1  UNL1       -0.2945
      4 H           4.2435   75.9912   21.9580 H       1  UNL1        0.1501
      5 C           6.3274   75.1520   23.5164 C.ar    1  UNL1        0.0813
      6 C           7.7269   75.0777   23.6234 C.ar    1  UNL1        0.0138
      7 C           8.4019   75.7452   24.6510 C.ar    1  UNL1        0.0436
      8 I          10.5122   75.5982   24.7387 I       1  UNL1       -0.0412
      9 C           7.6780   76.5067   25.5833 C.ar    1  UNL1        0.0556
     10 C           6.2865   76.6025   25.4684 C.ar    1  UNL1        0.0447
     11 C           5.6113   75.9346   24.4431 C.ar    1  UNL1        0.1457
     12 F           4.2687   76.0964   24.3337 F       1  UNL1       -0.2040
     13 N           8.3458   77.1960   26.6466 N.pl3   1  UNL1       -0.3037
     14 C           8.4077   76.5959   27.9809 C.3     1  UNL1        0.1123
     15 C           8.1085   77.6581   29.0419 C.3     1  UNL1        0.1136
     16 N           8.8979   78.8853   28.8275 N.pl3   1  UNL1       -0.2897
     17 C           9.7062   79.0321   27.6055 C.3     1  UNL1        0.1136
     18 C           8.9435   78.5084   26.3833 C.3     1  UNL1        0.1123
     19 C           9.0127   79.8695   29.8811 C.ar    1  UNL1        0.1318
     20 C           9.7992   81.0246   29.7236 C.ar    1  UNL1        0.0343
     21 C           9.8828   81.9514   30.7638 C.ar    1  UNL1        0.0083
     22 C           9.2037   81.7251   31.9697 C.ar    1  UNL1        0.0906
     23 C           8.4109   80.5732   32.0809 C.ar    1  UNL1        0.1041
     24 N           8.3427   79.6859   31.0537 N.ar    1  UNL1       -0.2292
     25 C           9.2460   82.7426   33.0811 C.3     1  UNL1        0.4200
     26 F          10.1154   83.7728   32.7667 F       1  UNL1       -0.1658
     27 F           7.9796   83.2636   33.2697 F       1  UNL1       -0.1658
     28 F           9.6744   82.1594   34.2610 F       1  UNL1       -0.1658
     29 C           4.0528   74.4481   20.4408 C.3     1  UNL1        0.1535
     30 C           2.5760   74.7335   20.3927 C.2     1  UNL1        0.2443
     31 O           2.0231   75.2792   21.3858 O.2     1  UNL1       -0.2730
     32 N           1.8139   74.4216   19.2142 N.am    1  UNL1       -0.2825
     33 H           2.3359   74.2343   18.3285 H       1  UNL1        0.1549
     34 C           0.3782   74.4580   19.1510 C.ar    1  UNL1        0.0535
     35 C          -0.3240   73.3062   18.7703 C.ar    1  UNL1        0.0353
     36 C          -1.7201   73.3291   18.7299 C.ar    1  UNL1        0.1002
     37 N          -2.3939   74.4580   19.0748 N.ar    1  UNL1       -0.2422
     38 C          -1.7418   75.5841   19.4674 C.ar    1  UNL1        0.1002
     39 C          -0.3457   75.6044   19.5205 C.ar    1  UNL1        0.0353
     40 C           4.7313   74.9414   19.1509 C.3     1  UNL1        0.0569
     41 C           4.9079   76.4322   19.1663 C.ar    1  UNL1       -0.0017
     42 C           4.0114   77.3787   18.6788 C.ar    1  UNL1        0.0681
     43 N           4.4601   78.6289   18.9332 N.ar    1  UNL1       -0.3523
     44 C           5.6266   78.4797   19.5848 C.ar    1  UNL1        0.0563
     45 C           6.4565   79.4877   20.0736 C.ar    1  UNL1        0.0170
     46 C           7.6303   79.1035   20.7477 C.ar    1  UNL1        0.0015
     47 C           7.9428   77.7365   20.9189 C.ar    1  UNL1        0.0001
     48 C           7.0852   76.7408   20.4167 C.ar    1  UNL1        0.0012
     49 C           5.9315   77.1527   19.7494 C.ar    1  UNL1        0.0131
     50 H           3.9855   79.5256   18.6859 H       1  UNL1        0.1660
@<TRIPOS>BOND
     1     1     2    2
     2     2     3   am
     3     3    29    1
     4    29    40    1
     5    40    41    1
     6    41    42   ar
     7    42    43   ar
     8    43    44   ar
     9    44    45   ar
    10    45    46   ar
    11    46    47   ar
    12    47    48   ar
    13    48    49   ar
    14    29    30    1
    15    30    31    2
    16    30    32   am
    17    32    34    1
    18    34    35   ar
    19    35    36   ar
    20    36    37   ar
    21    37    38   ar
    22    38    39   ar
    23     2     5    1
    24     5     6   ar
    25     6     7   ar
    26     7     8    1
    27     7     9   ar
    28     9    13    1
    29    13    14    1
    30    14    15    1
    31    15    16    1
    32    16    19    1
    33    19    20   ar
    34    20    21   ar
    35    21    22   ar
    36    22    25    1
    37    25    26    1
    38    25    27    1
    39    25    28    1
    40    22    23   ar
    41    23    24   ar
    42    16    17    1
    43    17    18    1
    44     9    10   ar
    45    10    11   ar
    46    11    12    1
    47    49    41   ar
    48    39    34   ar
    49    11     5   ar
    50    49    44   ar
    51    18    13    1
    52    24    19   ar
    53     3     4    1
    54    43    50    1
    55    32    33    1
@<TRIPOS>MOLECULE
*****
 50 55 0 0 0
SMALL
GASTEIGER

@<TRIPOS>ATOM
      1 O          14.1870   83.8000   25.6231 O.2     1  UNL1       -0.2701
      2 C          13.6959   83.1854   24.6367 C.2     1  UNL1        0.2484
      3 N          13.8705   83.7094   23.3113 N.am    1  UNL1       -0.2945
      4 H          13.6944   83.0800   22.4956 H       1  UNL1        0.1501
      5 C          12.9741   81.9130   24.8610 C.ar    1  UNL1        0.0813
      6 C          13.6812   80.6987   24.8268 C.ar    1  UNL1        0.0138
      7 C          13.0222   79.4816   25.0305 C.ar    1  UNL1        0.0436
      8 I          14.1568   77.6948   24.9787 I       1  UNL1       -0.0412
      9 C          11.6402   79.4686   25.2814 C.ar    1  UNL1        0.0556
     10 C          10.9352   80.6762   25.3389 C.ar    1  UNL1        0.0447
     11 C          11.5924   81.8923   25.1337 C.ar    1  UNL1        0.1457
     12 F          10.8843   83.0436   25.2511 F       1  UNL1       -0.2040
     13 N          10.9423   78.2352   25.4893 N.pl3   1  UNL1       -0.3037
     14 C          10.0339   77.7271   24.4592 C.3     1  UNL1        0.1123
     15 C           8.7438   77.2204   25.1093 C.3     1  UNL1        0.1136
     16 N           9.0185   76.3292   26.2518 N.pl3   1  UNL1       -0.2897
     17 C          10.3992   76.1633   26.7359 C.3     1  UNL1        0.1136
     18 C          11.1363   77.5073   26.7469 C.3     1  UNL1        0.1123
     19 C           7.9682   75.4940   26.7916 C.ar    1  UNL1        0.1318
     20 C           7.1031   74.7692   25.9527 C.ar    1  UNL1        0.0343
     21 C           6.1028   73.9732   26.5129 C.ar    1  UNL1        0.0083
     22 C           5.9449   73.9102   27.9050 C.ar    1  UNL1        0.0906
     23 C           6.8414   74.6290   28.7095 C.ar    1  UNL1        0.1041
     24 N           7.8093   75.3956   28.1417 N.ar    1  UNL1       -0.2292
     25 C           4.9010   73.0153   28.5227 C.3     1  UNL1        0.4200
     26 F           3.6321   73.3980   28.1237 F       1  UNL1       -0.1658
     27 F           5.1250   71.7112   28.1227 F       1  UNL1       -0.1658
     28 F           4.9583   73.0797   29.9043 F       1  UNL1       -0.1658
     29 C          14.4496   85.0344   23.0697 C.3     1  UNL1        0.1535
     30 C          14.9553   85.1198   21.6548 C.2     1  UNL1        0.2443
     31 O          16.0764   85.6530   21.4343 O.2     1  UNL1       -0.2730
     32 N          14.1860   84.5662   20.5738 N.am    1  UNL1       -0.2825
     33 H          13.4160   83.9007   20.8110 H       1  UNL1        0.1549
     34 C          14.4783   84.7847   19.1833 C.ar    1  UNL1        0.0535
     35 C          15.1791   83.8064   18.4648 C.ar    1  UNL1        0.0353
     36 C          15.4453   84.0031   17.1076 C.ar    1  UNL1        0.1002
     37 N          15.0114   85.1300   16.4839 N.ar    1  UNL1       -0.2422
     38 C          14.3122   86.0872   17.1490 C.ar    1  UNL1        0.1002
     39 C          14.0256   85.9306   18.5075 C.ar    1  UNL1        0.0353
     40 C          13.4144   86.1423   23.3315 C.3     1  UNL1        0.0569
     41 C          13.6712   87.3410   22.4647 C.ar    1  UNL1       -0.0017
     42 C          14.7584   88.2060   22.5465 C.ar    1  UNL1        0.0681
     43 N          14.7057   89.1255   21.5560 N.ar    1  UNL1       -0.3523
     44 C          13.6003   88.8426   20.8449 C.ar    1  UNL1        0.0563
     45 C          13.1329   89.5047   19.7104 C.ar    1  UNL1        0.0170
     46 C          11.9555   89.0248   19.1077 C.ar    1  UNL1        0.0015
     47 C          11.2815   87.9052   19.6443 C.ar    1  UNL1        0.0001
     48 C          11.7777   87.2556   20.7892 C.ar    1  UNL1        0.0012
     49 C          12.9444   87.7571   21.3667 C.ar    1  UNL1        0.0131
     50 H          15.3947   89.8889   21.3747 H       1  UNL1        0.1660
@<TRIPOS>BOND
     1     1     2    2
     2     2     3   am
     3     3    29    1
     4    29    40    1
     5    40    41    1
     6    41    42   ar
     7    42    43   ar
     8    43    44   ar
     9    44    45   ar
    10    45    46   ar
    11    46    47   ar
    12    47    48   ar
    13    48    49   ar
    14    29    30    1
    15    30    31    2
    16    30    32   am
    17    32    34    1
    18    34    35   ar
    19    35    36   ar
    20    36    37   ar
    21    37    38   ar
    22    38    39   ar
    23     2     5    1
    24     5     6   ar
    25     6     7   ar
    26     7     8    1
    27     7     9   ar
    28     9    13    1
    29    13    14    1
    30    14    15    1
    31    15    16    1
    32    16    19    1
    33    19    20   ar
    34    20    21   ar
    35    21    22   ar
    36    22    25    1
    37    25    26    1
    38    25    27    1
    39    25    28    1
    40    22    23   ar
    41    23    24   ar
    42    16    17    1
    43    17    18    1
    44     9    10   ar
    45    10    11   ar
    46    11    12    1
    47    49    41   ar
    48    39    34   ar
    49    11     5   ar
    50    49    44   ar
    51    18    13    1
    52    24    19   ar
    53     3     4    1
    54    43    50    1
    55    32    33    1
@<TRIPOS>MOLECULE
*****
 50 55 0 0 0
SMALL
GASTEIGER

@<TRIPOS>ATOM
      1 O          10.8003   76.2420   25.2356 O.2     1  UNL1       -0.2701
      2 C           9.8161   76.9867   24.9739 C.2     1  UNL1        0.2484
      3 N           9.7379   78.2963   25.5575 N.am    1  UNL1       -0.2945
      4 H           9.0749   78.9910   25.1446 H       1  UNL1        0.1501
      5 C           8.7722   76.5081   24.0403 C.ar    1  UNL1        0.0813
      6 C           7.4163   76.6851   24.3655 C.ar    1  UNL1        0.0138
      7 C           6.4098   76.2375   23.5031 C.ar    1  UNL1        0.0436
      8 I           4.3900   76.5527   24.0542 I       1  UNL1       -0.0412
      9 C           6.7533   75.6119   22.2933 C.ar    1  UNL1        0.0556
     10 C           8.1018   75.4531   21.9540 C.ar    1  UNL1        0.0447
     11 C           9.1078   75.8984   22.8158 C.ar    1  UNL1        0.1457
     12 F          10.4015   75.7749   22.4261 F       1  UNL1       -0.2040
     13 N           5.7412   75.1415   21.3955 N.pl3   1  UNL1       -0.3037
     14 C           5.4665   75.8724   20.1567 C.3     1  UNL1        0.1123
     15 C           3.9545   75.9917   19.9492 C.3     1  UNL1        0.1136
     16 N           3.2730   74.6952   20.1212 N.pl3   1  UNL1       -0.2897
     17 C           4.0278   73.5307   20.6138 C.3     1  UNL1        0.1136
     18 C           4.9794   73.9386   21.7442 C.3     1  UNL1        0.1123
     19 C           1.9151   74.5197   19.6551 C.ar    1  UNL1        0.1318
     20 C           1.2169   75.5623   19.0204 C.ar    1  UNL1        0.0343
     21 C          -0.0921   75.3525   18.5836 C.ar    1  UNL1        0.0083
     22 C          -0.7185   74.1155   18.7934 C.ar    1  UNL1        0.0906
     23 C           0.0178   73.0927   19.4093 C.ar    1  UNL1        0.1041
     24 N           1.2920   73.3194   19.8242 N.ar    1  UNL1       -0.2292
     25 C          -2.1133   73.8611   18.2816 C.3     1  UNL1        0.4200
     26 F          -3.0540   74.4158   19.1322 F       1  UNL1       -0.1658
     27 F          -2.2489   74.4285   17.0284 F       1  UNL1       -0.1658
     28 F          -2.3598   72.5021   18.1907 F       1  UNL1       -0.1658
     29 C          10.6736   78.7421   26.5944 C.3     1  UNL1        0.1535
     30 C          11.9726   79.1636   25.9622 C.2     1  UNL1        0.2443
     31 O          12.1638   80.3833   25.7060 O.2     1  UNL1       -0.2730
     32 N          12.9965   78.1920   25.6891 N.am    1  UNL1       -0.2825
     33 H          12.9242   77.2598   26.1557 H       1  UNL1        0.1549
     34 C          14.1697   78.4584   24.9022 C.ar    1  UNL1        0.0535
     35 C          14.5410   77.5592   23.8931 C.ar    1  UNL1        0.0353
     36 C          15.6667   77.8250   23.1098 C.ar    1  UNL1        0.1002
     37 N          16.3876   78.9589   23.3145 N.ar    1  UNL1       -0.2422
     38 C          16.0409   79.8597   24.2716 C.ar    1  UNL1        0.1002
     39 C          14.9228   79.6317   25.0780 C.ar    1  UNL1        0.0353
     40 C          10.0779   79.9035   27.4092 C.3     1  UNL1        0.0569
     41 C           9.5438   79.4236   28.7278 C.ar    1  UNL1       -0.0017
     42 C          10.1763   79.5208   29.9638 C.ar    1  UNL1        0.0681
     43 N           9.3682   79.0592   30.9451 N.ar    1  UNL1       -0.3523
     44 C           8.2286   78.6805   30.3407 C.ar    1  UNL1        0.0563
     45 C           7.0861   78.1562   30.9437 C.ar    1  UNL1        0.0170
     46 C           5.9910   77.8440   30.1172 C.ar    1  UNL1        0.0015
     47 C           6.0605   78.0634   28.7233 C.ar    1  UNL1        0.0001
     48 C           7.2260   78.5959   28.1427 C.ar    1  UNL1        0.0012
     49 C           8.2964   78.8913   28.9872 C.ar    1  UNL1        0.0131
     50 H           9.5839   79.0215   31.9661 H       1  UNL1        0.1660
@<TRIPOS>BOND
     1     1     2    2
     2     2     3   am
     3     3    29    1
     4    29    40    1
     5    40    41    1
     6    41    42   ar
     7    42    43   ar
     8    43    44   ar
     9    44    45   ar
    10    45    46   ar
    11    46    47   ar
    12    47    48   ar
    13    48    49   ar
    14    29    30    1
    15    30    31    2
    16    30    32   am
    17    32    34    1
    18    34    35   ar
    19    35    36   ar
    20    36    37   ar
    21    37    38   ar
    22    38    39   ar
    23     2     5    1
    24     5     6   ar
    25     6     7   ar
    26     7     8    1
    27     7     9   ar
    28     9    13    1
    29    13    14    1
    30    14    15    1
    31    15    16    1
    32    16    19    1
    33    19    20   ar
    34    20    21   ar
    35    21    22   ar
    36    22    25    1
    37    25    26    1
    38    25    27    1
    39    25    28    1
    40    22    23   ar
    41    23    24   ar
    42    16    17    1
    43    17    18    1
    44     9    10   ar
    45    10    11   ar
    46    11    12    1
    47    49    41   ar
    48    39    34   ar
    49    11     5   ar
    50    49    44   ar
    51    18    13    1
    52    24    19   ar
    53     3     4    1
    54    43    50    1
    55    32    33    1
@<TRIPOS>MOLECULE
*****
 50 55 0 0 0
SMALL
GASTEIGER

@<TRIPOS>ATOM
      1 O           7.6797   75.0063   25.0659 O.2     1  UNL1       -0.2701
      2 C           7.9356   75.7962   24.1160 C.2     1  UNL1        0.2484
      3 N           7.3263   75.5890   22.8325 N.am    1  UNL1       -0.2945
      4 H           7.3338   76.3728   22.1409 H       1  UNL1        0.1501
      5 C           8.8371   76.9460   24.3516 C.ar    1  UNL1        0.0813
      6 C           9.0791   77.3801   25.6663 C.ar    1  UNL1        0.0138
      7 C           9.9231   78.4676   25.9163 C.ar    1  UNL1        0.0436
      8 I          10.2508   79.0543   27.9241 I       1  UNL1       -0.0412
      9 C          10.5448   79.1303   24.8453 C.ar    1  UNL1        0.0556
     10 C          10.3252   78.6883   23.5357 C.ar    1  UNL1        0.0447
     11 C           9.4809   77.6032   23.2850 C.ar    1  UNL1        0.1457
     12 F           9.3366   77.1715   22.0069 F       1  UNL1       -0.2040
     13 N          11.4099   80.2485   25.0752 N.pl3   1  UNL1       -0.3037
     14 C          10.8610   81.5017   25.5973 C.3     1  UNL1        0.1123
     15 C          11.4526   82.6868   24.8298 C.3     1  UNL1        0.1136
     16 N          12.9210   82.5959   24.7269 N.pl3   1  UNL1       -0.2897
     17 C          13.6131   81.3783   25.1813 C.3     1  UNL1        0.1136
     18 C          12.8370   80.1241   24.7636 C.3     1  UNL1        0.1123
     19 C          13.6959   83.7536   24.3378 C.ar    1  UNL1        0.1318
     20 C          13.8466   84.8577   25.1955 C.ar    1  UNL1        0.0343
     21 C          14.6038   85.9553   24.7834 C.ar    1  UNL1        0.0083
     22 C          15.1959   85.9695   23.5122 C.ar    1  UNL1        0.0906
     23 C          15.0424   84.8405   22.6940 C.ar    1  UNL1        0.1041
     24 N          14.3025   83.7821   23.1176 N.ar    1  UNL1       -0.2292
     25 C          16.0570   87.1271   23.0757 C.3     1  UNL1        0.4200
     26 F          16.2985   87.0696   21.7140 F       1  UNL1       -0.1658
     27 F          15.4089   88.3124   23.3687 F       1  UNL1       -0.1658
     28 F          17.2752   87.1046   23.7328 F       1  UNL1       -0.1658
     29 C           6.5492   74.3840   22.5267 C.3     1  UNL1        0.1535
     30 C           5.1276   74.7611   22.2075 C.2     1  UNL1        0.2443
     31 O           4.4581   74.0296   21.4287 O.2     1  UNL1       -0.2730
     32 N           4.5301   75.9201   22.8131 N.am    1  UNL1       -0.2825
     33 H           5.0033   76.3362   23.6467 H       1  UNL1        0.1549
     34 C           3.2667   76.4766   22.4123 C.ar    1  UNL1        0.0535
     35 C           2.6006   77.3620   23.2709 C.ar    1  UNL1        0.0353
     36 C           1.3841   77.9241   22.8766 C.ar    1  UNL1        0.1002
     37 N           0.8583   77.6267   21.6590 N.ar    1  UNL1       -0.2422
     38 C           1.4905   76.7877   20.7965 C.ar    1  UNL1        0.1002
     39 C           2.7086   76.2029   21.1520 C.ar    1  UNL1        0.0353
     40 C           7.1714   73.6132   21.3493 C.3     1  UNL1        0.0569
     41 C           8.3152   72.7549   21.8063 C.ar    1  UNL1       -0.0017
     42 C           8.2927   71.3766   21.9988 C.ar    1  UNL1        0.0681
     43 N           9.5232   70.9266   22.3343 N.ar    1  UNL1       -0.3523
     44 C          10.3234   72.0069   22.3460 C.ar    1  UNL1        0.0563
     45 C          11.6903   72.0431   22.6182 C.ar    1  UNL1        0.0170
     46 C          12.3403   73.2894   22.5551 C.ar    1  UNL1        0.0015
     47 C          11.6186   74.4573   22.2220 C.ar    1  UNL1        0.0001
     48 C          10.2400   74.3901   21.9501 C.ar    1  UNL1        0.0012
     49 C           9.6228   73.1413   22.0248 C.ar    1  UNL1        0.0131
     50 H           9.7954   69.9374   22.5283 H       1  UNL1        0.1660
@<TRIPOS>BOND
     1     1     2    2
     2     2     3   am
     3     3    29    1
     4    29    40    1
     5    40    41    1
     6    41    42   ar
     7    42    43   ar
     8    43    44   ar
     9    44    45   ar
    10    45    46   ar
    11    46    47   ar
    12    47    48   ar
    13    48    49   ar
    14    29    30    1
    15    30    31    2
    16    30    32   am
    17    32    34    1
    18    34    35   ar
    19    35    36   ar
    20    36    37   ar
    21    37    38   ar
    22    38    39   ar
    23     2     5    1
    24     5     6   ar
    25     6     7   ar
    26     7     8    1
    27     7     9   ar
    28     9    13    1
    29    13    14    1
    30    14    15    1
    31    15    16    1
    32    16    19    1
    33    19    20   ar
    34    20    21   ar
    35    21    22   ar
    36    22    25    1
    37    25    26    1
    38    25    27    1
    39    25    28    1
    40    22    23   ar
    41    23    24   ar
    42    16    17    1
    43    17    18    1
    44     9    10   ar
    45    10    11   ar
    46    11    12    1
    47    49    41   ar
    48    39    34   ar
    49    11     5   ar
    50    49    44   ar
    51    18    13    1
    52    24    19   ar
    53     3     4    1
    54    43    50    1
    55    32    33    1
@<TRIPOS>MOLECULE
*****
 50 55 0 0 0
SMALL
GASTEIGER

@<TRIPOS>ATOM
      1 O          11.5022   76.1939   24.2068 O.2     1  UNL1       -0.2701
      2 C          10.3168   76.3917   24.5906 C.2     1  UNL1        0.2484
      3 N          10.0733   77.0374   25.8498 N.am    1  UNL1       -0.2945
      4 H           9.1214   77.4253   26.0391 H       1  UNL1        0.1501
      5 C           9.1938   75.9828   23.7176 C.ar    1  UNL1        0.0813
      6 C           7.8733   76.2637   24.1082 C.ar    1  UNL1        0.0138
      7 C           6.7935   75.8837   23.3039 C.ar    1  UNL1        0.0436
      8 I           4.8334   76.3541   23.9517 I       1  UNL1       -0.0412
      9 C           7.0273   75.2219   22.0872 C.ar    1  UNL1        0.0556
     10 C           8.3411   74.9596   21.6826 C.ar    1  UNL1        0.0447
     11 C           9.4202   75.3373   22.4863 C.ar    1  UNL1        0.1457
     12 F          10.6795   75.1138   22.0336 F       1  UNL1       -0.2040
     13 N           5.9384   74.8192   21.2482 N.pl3   1  UNL1       -0.3037
     14 C           5.6530   75.5582   20.0167 C.3     1  UNL1        0.1123
     15 C           4.1447   75.7855   19.8858 C.3     1  UNL1        0.1136
     16 N           3.3814   74.5433   20.1078 N.pl3   1  UNL1       -0.2897
     17 C           4.0748   73.3310   20.5746 C.3     1  UNL1        0.1136
     18 C           5.1110   73.6776   21.6497 C.3     1  UNL1        0.1123
     19 C           1.9919   74.4634   19.7142 C.ar    1  UNL1        0.1318
     20 C           1.3144   75.5757   19.1840 C.ar    1  UNL1        0.0343
     21 C          -0.0264   75.4573   18.8147 C.ar    1  UNL1        0.0083
     22 C          -0.7039   74.2419   18.9893 C.ar    1  UNL1        0.0906
     23 C           0.0115   73.1486   19.4996 C.ar    1  UNL1        0.1041
     24 N           1.3173   73.2869   19.8502 N.ar    1  UNL1       -0.2292
     25 C          -2.1369   74.0878   18.5478 C.3     1  UNL1        0.4200
     26 F          -2.3737   72.7998   18.0996 F       1  UNL1       -0.1658
     27 F          -2.9733   74.3542   19.6157 F       1  UNL1       -0.1658
     28 F          -2.4274   74.9651   17.5173 F       1  UNL1       -0.1658
     29 C          11.1537   77.3207   26.7994 C.3     1  UNL1        0.1535
     30 C          12.2194   78.1450   26.1287 C.2     1  UNL1        0.2443
     31 O          12.0099   79.3715   25.9249 O.2     1  UNL1       -0.2730
     32 N          13.4744   77.5485   25.7598 N.am    1  UNL1       -0.2825
     33 H          13.7209   76.6250   26.1823 H       1  UNL1        0.1549
     34 C          14.4590   78.1914   24.9329 C.ar    1  UNL1        0.0535
     35 C          14.9079   77.5492   23.7707 C.ar    1  UNL1        0.0353
     36 C          15.8471   78.1796   22.9510 C.ar    1  UNL1        0.1002
     37 N          16.3098   79.4169   23.2707 N.ar    1  UNL1       -0.2422
     38 C          15.8785   80.0734   24.3801 C.ar    1  UNL1        0.1002
     39 C          14.9407   79.4782   25.2276 C.ar    1  UNL1        0.0353
     40 C          10.6161   78.0554   28.0399 C.3     1  UNL1        0.0569
     41 C           9.2253   77.6026   28.3785 C.ar    1  UNL1       -0.0017
     42 C           8.0513   78.3301   28.2066 C.ar    1  UNL1        0.0681
     43 N           6.9774   77.5797   28.5426 N.ar    1  UNL1       -0.3523
     44 C           7.4627   76.3828   28.9160 C.ar    1  UNL1        0.0563
     45 C           6.7353   75.2681   29.3308 C.ar    1  UNL1        0.0170
     46 C           7.4503   74.1016   29.6592 C.ar    1  UNL1        0.0015
     47 C           8.8595   74.0748   29.5637 C.ar    1  UNL1        0.0001
     48 C           9.5670   75.2145   29.1400 C.ar    1  UNL1        0.0012
     49 C           8.8309   76.3570   28.8256 C.ar    1  UNL1        0.0131
     50 H           5.9752   77.8701   28.5032 H       1  UNL1        0.1660
@<TRIPOS>BOND
     1     1     2    2
     2     2     3   am
     3     3    29    1
     4    29    40    1
     5    40    41    1
     6    41    42   ar
     7    42    43   ar
     8    43    44   ar
     9    44    45   ar
    10    45    46   ar
    11    46    47   ar
    12    47    48   ar
    13    48    49   ar
    14    29    30    1
    15    30    31    2
    16    30    32   am
    17    32    34    1
    18    34    35   ar
    19    35    36   ar
    20    36    37   ar
    21    37    38   ar
    22    38    39   ar
    23     2     5    1
    24     5     6   ar
    25     6     7   ar
    26     7     8    1
    27     7     9   ar
    28     9    13    1
    29    13    14    1
    30    14    15    1
    31    15    16    1
    32    16    19    1
    33    19    20   ar
    34    20    21   ar
    35    21    22   ar
    36    22    25    1
    37    25    26    1
    38    25    27    1
    39    25    28    1
    40    22    23   ar
    41    23    24   ar
    42    16    17    1
    43    17    18    1
    44     9    10   ar
    45    10    11   ar
    46    11    12    1
    47    49    41   ar
    48    39    34   ar
    49    11     5   ar
    50    49    44   ar
    51    18    13    1
    52    24    19   ar
    53     3     4    1
    54    43    50    1
    55    32    33    1
@<TRIPOS>MOLECULE
*****
 50 55 0 0 0
SMALL
GASTEIGER

@<TRIPOS>ATOM
      1 O          10.6551   74.8629   25.5744 O.2     1  UNL1       -0.2701
      2 C           9.9935   75.9135   25.3501 C.2     1  UNL1        0.2484
      3 N           8.5686   75.8383   25.1903 N.am    1  UNL1       -0.2945
      4 H           8.0082   76.7176   25.2641 H       1  UNL1        0.1501
      5 C          10.6968   77.2142   25.2884 C.ar    1  UNL1        0.0813
      6 C          12.0625   77.2498   24.9584 C.ar    1  UNL1        0.0138
      7 C          12.7522   78.4655   24.8980 C.ar    1  UNL1        0.0436
      8 I          14.8049   78.4406   24.3800 I       1  UNL1       -0.0412
      9 C          12.0741   79.6673   25.1605 C.ar    1  UNL1        0.0556
     10 C          10.7090   79.6397   25.4676 C.ar    1  UNL1        0.0447
     11 C          10.0198   78.4256   25.5299 C.ar    1  UNL1        0.1457
     12 F           8.6860   78.4453   25.7773 F       1  UNL1       -0.2040
     13 N          12.7590   80.9243   25.1089 N.pl3   1  UNL1       -0.3037
     14 C          14.1443   81.0212   25.5736 C.3     1  UNL1        0.1123
     15 C          14.3191   82.2819   26.4242 C.3     1  UNL1        0.1136
     16 N          13.7551   83.4730   25.7623 N.pl3   1  UNL1       -0.2897
     17 C          12.9775   83.3219   24.5210 C.3     1  UNL1        0.1136
     18 C          12.0497   82.1045   24.6058 C.3     1  UNL1        0.1123
     19 C          14.0985   84.7972   26.2321 C.ar    1  UNL1        0.1318
     20 C          14.3097   85.8612   25.3373 C.ar    1  UNL1        0.0343
     21 C          14.6381   87.1248   25.8306 C.ar    1  UNL1        0.0083
     22 C          14.7780   87.3314   27.2106 C.ar    1  UNL1        0.0906
     23 C          14.5370   86.2516   28.0729 C.ar    1  UNL1        0.1041
     24 N          14.2160   85.0306   27.5697 N.ar    1  UNL1       -0.2292
     25 C          15.0829   88.7025   27.7579 C.3     1  UNL1        0.4200
     26 F          16.1198   89.2896   27.0535 F       1  UNL1       -0.1658
     27 F          13.9571   89.4970   27.6484 F       1  UNL1       -0.1658
     28 F          15.4532   88.6255   29.0895 F       1  UNL1       -0.1658
     29 C           7.8634   74.5562   25.1000 C.3     1  UNL1        0.1535
     30 C           6.6546   74.5746   25.9963 C.2     1  UNL1        0.2443
     31 O           5.7385   75.4123   25.7751 O.2     1  UNL1       -0.2730
     32 N           6.5300   73.6239   27.0675 N.am    1  UNL1       -0.2825
     33 H           7.1535   72.7854   27.0533 H       1  UNL1        0.1549
     34 C           5.5291   73.6973   28.0967 C.ar    1  UNL1        0.0535
     35 C           4.7014   72.5911   28.3327 C.ar    1  UNL1        0.0353
     36 C           3.7428   72.6485   29.3473 C.ar    1  UNL1        0.1002
     37 N           3.6258   73.7657   30.1124 N.ar    1  UNL1       -0.2422
     38 C           4.4273   74.8467   29.9209 C.ar    1  UNL1        0.1002
     39 C           5.3981   74.8314   28.9162 C.ar    1  UNL1        0.0353
     40 C           7.4444   74.2607   23.6493 C.3     1  UNL1        0.0569
     41 C           8.5851   74.4834   22.6987 C.ar    1  UNL1       -0.0017
     42 C           8.7761   75.5906   21.8773 C.ar    1  UNL1        0.0681
     43 N           9.9518   75.4907   21.2163 N.ar    1  UNL1       -0.3523
     44 C          10.5082   74.3354   21.6203 C.ar    1  UNL1        0.0563
     45 C          11.7377   73.8073   21.2288 C.ar    1  UNL1        0.0170
     46 C          12.1379   72.5833   21.7959 C.ar    1  UNL1        0.0015
     47 C          11.3114   71.9241   22.7330 C.ar    1  UNL1        0.0001
     48 C          10.0765   72.4820   23.1109 C.ar    1  UNL1        0.0012
     49 C           9.7052   73.6940   22.5284 C.ar    1  UNL1        0.0131
     50 H          10.3501   76.1813   20.5419 H       1  UNL1        0.1660
@<TRIPOS>BOND
     1     1     2    2
     2     2     3   am
     3     3    29    1
     4    29    40    1
     5    40    41    1
     6    41    42   ar
     7    42    43   ar
     8    43    44   ar
     9    44    45   ar
    10    45    46   ar
    11    46    47   ar
    12    47    48   ar
    13    48    49   ar
    14    29    30    1
    15    30    31    2
    16    30    32   am
    17    32    34    1
    18    34    35   ar
    19    35    36   ar
    20    36    37   ar
    21    37    38   ar
    22    38    39   ar
    23     2     5    1
    24     5     6   ar
    25     6     7   ar
    26     7     8    1
    27     7     9   ar
    28     9    13    1
    29    13    14    1
    30    14    15    1
    31    15    16    1
    32    16    19    1
    33    19    20   ar
    34    20    21   ar
    35    21    22   ar
    36    22    25    1
    37    25    26    1
    38    25    27    1
    39    25    28    1
    40    22    23   ar
    41    23    24   ar
    42    16    17    1
    43    17    18    1
    44     9    10   ar
    45    10    11   ar
    46    11    12    1
    47    49    41   ar
    48    39    34   ar
    49    11     5   ar
    50    49    44   ar
    51    18    13    1
    52    24    19   ar
    53     3     4    1
    54    43    50    1
    55    32    33    1
@<TRIPOS>MOLECULE
*****
 50 55 0 0 0
SMALL
GASTEIGER

@<TRIPOS>ATOM
      1 O          10.9731   75.1650   24.0640 O.2     1  UNL1       -0.2701
      2 C          10.3035   76.2320   24.1331 C.2     1  UNL1        0.2484
      3 N           8.8721   76.1834   24.0313 N.am    1  UNL1       -0.2945
      4 H           8.3183   77.0133   24.3430 H       1  UNL1        0.1501
      5 C          11.0058   77.5162   24.3519 C.ar    1  UNL1        0.0813
      6 C          12.4109   77.5450   24.3671 C.ar    1  UNL1        0.0138
      7 C          13.0994   78.7447   24.5768 C.ar    1  UNL1        0.0436
      8 I          15.2164   78.7116   24.5718 I       1  UNL1       -0.0412
      9 C          12.3827   79.9378   24.7658 C.ar    1  UNL1        0.0556
     10 C          10.9838   79.9188   24.7293 C.ar    1  UNL1        0.0447
     11 C          10.2953   78.7205   24.5216 C.ar    1  UNL1        0.1457
     12 F           8.9415   78.7527   24.4389 F       1  UNL1       -0.2040
     13 N          13.0645   81.1780   24.9862 N.pl3   1  UNL1       -0.3037
     14 C          14.2970   81.2038   25.7767 C.3     1  UNL1        0.1123
     15 C          14.2660   82.3872   26.7474 C.3     1  UNL1        0.1136
     16 N          13.8830   83.6410   26.0720 N.pl3   1  UNL1       -0.2897
     17 C          13.4276   83.6093   24.6720 C.3     1  UNL1        0.1136
     18 C          12.5022   82.4118   24.4286 C.3     1  UNL1        0.1123
     19 C          14.1079   84.9143   26.7202 C.ar    1  UNL1        0.1318
     20 C          14.2914   85.0071   28.1113 C.ar    1  UNL1        0.0343
     21 C          14.5074   86.2547   28.6987 C.ar    1  UNL1        0.0083
     22 C          14.5212   87.4149   27.9111 C.ar    1  UNL1        0.0906
     23 C          14.3574   87.2799   26.5245 C.ar    1  UNL1        0.1041
     24 N          14.1509   86.0544   25.9745 N.ar    1  UNL1       -0.2292
     25 C          14.8032   88.7615   28.5270 C.3     1  UNL1        0.4200
     26 F          15.3308   88.6157   29.7984 F       1  UNL1       -0.1658
     27 F          15.7114   89.4419   27.7376 F       1  UNL1       -0.1658
     28 F          13.6412   89.5074   28.6234 F       1  UNL1       -0.1658
     29 C           8.1601   74.9539   23.6698 C.3     1  UNL1        0.1535
     30 C           6.6937   75.1058   23.9721 C.2     1  UNL1        0.2443
     31 O           5.9693   74.0757   24.0341 O.2     1  UNL1       -0.2730
     32 N           6.1349   76.4063   24.2239 N.am    1  UNL1       -0.2825
     33 H           6.7932   77.1895   24.4369 H       1  UNL1        0.1549
     34 C           4.7251   76.6740   24.3087 C.ar    1  UNL1        0.0535
     35 C           3.9369   76.5878   23.1530 C.ar    1  UNL1        0.0353
     36 C           2.5624   76.8239   23.2340 C.ar    1  UNL1        0.1002
     37 N           1.9906   77.1187   24.4312 N.ar    1  UNL1       -0.2422
     38 C           2.7253   77.1896   25.5726 C.ar    1  UNL1        0.1002
     39 C           4.1033   76.9618   25.5356 C.ar    1  UNL1        0.0353
     40 C           8.3638   74.6184   22.1820 C.3     1  UNL1        0.0569
     41 C           7.4627   75.4451   21.3109 C.ar    1  UNL1       -0.0017
     42 C           6.2696   75.0331   20.7245 C.ar    1  UNL1        0.0681
     43 N           5.6823   76.0637   20.0749 N.ar    1  UNL1       -0.3523
     44 C           6.4893   77.1240   20.2539 C.ar    1  UNL1        0.0563
     45 C           6.2946   78.4227   19.7857 C.ar    1  UNL1        0.0170
     46 C           7.2638   79.3902   20.1090 C.ar    1  UNL1        0.0015
     47 C           8.3909   79.0426   20.8865 C.ar    1  UNL1        0.0001
     48 C           8.5601   77.7241   21.3471 C.ar    1  UNL1        0.0012
     49 C           7.5848   76.7865   21.0069 C.ar    1  UNL1        0.0131
     50 H           4.7774   76.0400   19.5544 H       1  UNL1        0.1660
@<TRIPOS>BOND
     1     1     2    2
     2     2     3   am
     3     3    29    1
     4    29    40    1
     5    40    41    1
     6    41    42   ar
     7    42    43   ar
     8    43    44   ar
     9    44    45   ar
    10    45    46   ar
    11    46    47   ar
    12    47    48   ar
    13    48    49   ar
    14    29    30    1
    15    30    31    2
    16    30    32   am
    17    32    34    1
    18    34    35   ar
    19    35    36   ar
    20    36    37   ar
    21    37    38   ar
    22    38    39   ar
    23     2     5    1
    24     5     6   ar
    25     6     7   ar
    26     7     8    1
    27     7     9   ar
    28     9    13    1
    29    13    14    1
    30    14    15    1
    31    15    16    1
    32    16    19    1
    33    19    20   ar
    34    20    21   ar
    35    21    22   ar
    36    22    25    1
    37    25    26    1
    38    25    27    1
    39    25    28    1
    40    22    23   ar
    41    23    24   ar
    42    16    17    1
    43    17    18    1
    44     9    10   ar
    45    10    11   ar
    46    11    12    1
    47    49    41   ar
    48    39    34   ar
    49    11     5   ar
    50    49    44   ar
    51    18    13    1
    52    24    19   ar
    53     3     4    1
    54    43    50    1
    55    32    33    1
