@<TRIPOS>MOLECULE
*****
 60 64 0 0 0
SMALL
GASTEIGER

@<TRIPOS>ATOM
      1 C         -18.8877   -8.5230   -6.2747 C.ar    1  UNL1        0.0548
      2 C         -17.9912   -9.4794   -6.7771 C.ar    1  UNL1        0.0077
      3 C         -18.2300  -10.0930   -8.0065 C.ar    1  UNL1        0.0390
      4 C         -19.3662   -9.7684   -8.7525 C.ar    1  UNL1        0.1598
      5 C         -20.2217   -8.7298   -8.3177 C.ar    1  UNL1        0.0993
      6 C         -19.9908   -8.1426   -7.0591 C.ar    1  UNL1        0.0235
      7 N         -19.6886   -7.8901   -3.9461 N.am    1  UNL1       -0.3040
      8 C         -18.6594   -7.8855   -4.9556 C.2     1  UNL1        0.2458
      9 O         -17.5563   -7.3172   -4.7336 O.2     1  UNL1       -0.2701
     10 H         -20.6489   -8.1747   -4.2452 H       1  UNL1        0.1496
     11 C         -20.7818   -7.7972   -1.7460 C.3     1  UNL1        0.0196
     12 C         -19.4889   -7.5035   -2.5351 C.3     1  UNL1        0.0572
     13 C         -18.3415   -8.3247   -1.9146 C.3     1  UNL1        0.0196
     14 C         -19.1860   -5.9957   -2.4318 C.3     1  UNL1        0.0196
     15 N         -21.2596   -8.2434   -9.1934 N.pl3   1  UNL1       -0.2120
     16 H         -21.0091   -7.5668   -9.9460 H       1  UNL1        0.1738
     17 S         -22.9537   -8.5963   -9.0340 S.O2    1  UNL1        0.0745
     18 O         -23.1404  -10.0754   -8.8410 O.2     1  UNL1       -0.1499
     19 O         -23.4679   -7.8843   -7.8152 O.2     1  UNL1       -0.1499
     20 C         -23.8666   -8.0260  -10.4371 C.ar    1  UNL1        0.1356
     21 C         -24.7898   -8.8784  -11.0557 C.ar    1  UNL1        0.0207
     22 C         -25.4934   -8.4680  -12.1890 C.ar    1  UNL1       -0.0028
     23 C         -25.2827   -7.1861  -12.7362 C.ar    1  UNL1       -0.0207
     24 C         -24.3519   -6.3374  -12.1179 C.ar    1  UNL1        0.0085
     25 C         -23.6448   -6.7459  -10.9811 C.ar    1  UNL1        0.0762
     26 CL        -22.4717   -5.6309  -10.2882 Cl      1  UNL1       -0.0809
     27 C         -25.9907   -6.6723  -13.9780 C.3     1  UNL1        0.0329
     28 C         -27.5004   -6.4856  -13.8660 C.3     1  UNL1        0.0160
     29 C         -26.5828   -5.2695  -13.9298 C.3     1  UNL1        0.0482
     30 S         -26.6026   -4.4316  -15.5452 S.3     1  UNL1       -0.1685
     31 H         -27.7386   -3.6759  -15.2001 H       1  UNL1        0.1023
     32 O         -19.6393  -10.5083   -9.9108 O.3     1  UNL1       -0.4513
     33 C         -20.2123   -9.9410  -11.0592 C.ar    1  UNL1        0.1580
     34 C         -19.9663   -8.5907  -11.3343 C.ar    1  UNL1        0.0677
     35 C         -20.6006   -7.9550  -12.4059 C.ar    1  UNL1        0.1398
     36 F         -20.3970   -6.6273  -12.5997 F       1  UNL1       -0.2044
     37 C         -21.4551   -8.6830  -13.2523 C.ar    1  UNL1        0.0175
     38 C         -21.6453  -10.0534  -13.0195 C.ar    1  UNL1        0.0130
     39 C         -21.0307  -10.6860  -11.9353 C.ar    1  UNL1        0.0919
     40 CL        -21.2909  -12.4137  -11.7332 Cl      1  UNL1       -0.0791
     41 C         -22.2210   -8.0087  -14.3598 C.3     1  UNL1        0.1382
     42 C         -22.2179   -8.8852  -15.5709 C.2     1  UNL1        0.3234
     43 O         -21.1251   -9.1746  -16.1302 O.2     1  UNL1       -0.2497
     44 O         -23.4196   -9.4378  -16.0234 O.3     1  UNL1       -0.4215
     45 C         -23.7174  -10.8278  -15.9200 C.3     1  UNL1        0.3207
     46 O         -24.0391  -11.1380  -14.5745 O.3     1  UNL1       -0.3070
     47 C         -24.4759  -12.4827  -14.4696 C.3     1  UNL1        0.2456
     48 C         -23.3267  -13.4534  -14.8303 C.3     1  UNL1        0.1781
     49 O         -23.7485  -14.7928  -14.7431 O.3     1  UNL1       -0.3790
     50 C         -22.7933  -13.1415  -16.2440 C.3     1  UNL1        0.1733
     51 O         -21.6199  -13.8726  -16.4896 O.3     1  UNL1       -0.3793
     52 C         -22.4926  -11.6416  -16.3757 C.3     1  UNL1        0.2106
     53 O         -22.1883  -11.3486  -17.7146 O.3     1  UNL1       -0.3766
     54 H         -24.5000  -14.9141  -15.3811 H       1  UNL1        0.2106
     55 H         -21.9001  -14.7972  -16.7184 H       1  UNL1        0.2105
     56 H         -21.6910  -10.4894  -17.7170 H       1  UNL1        0.2107
     57 C         -24.9435  -12.7346  -13.0636 C.2     1  UNL1        0.3439
     58 O         -24.6233  -11.9405  -12.1397 O.2     1  UNL1       -0.2475
     59 O         -25.6907  -13.8689  -12.7578 O.3     1  UNL1       -0.4785
     60 H         -25.9428  -14.5419  -13.4718 H       1  UNL1        0.2951
@<TRIPOS>BOND
     1    11    12    1
     2    12    13    1
     3    12    14    1
     4    12     7    1
     5     7     8   am
     6     8     9    2
     7     8     1    1
     8     1     2   ar
     9     2     3   ar
    10     3     4   ar
    11     4    32    1
    12    32    33    1
    13    33    34   ar
    14    34    35   ar
    15    35    36    1
    16    35    37   ar
    17    37    41    1
    18    41    42    1
    19    42    43    2
    20    42    44    1
    21    44    45    1
    22    45    46    1
    23    46    47    1
    24    47    57    1
    25    57    58    2
    26    57    59    1
    27    47    48    1
    28    48    49    1
    29    48    50    1
    30    50    51    1
    31    50    52    1
    32    52    53    1
    33    37    38   ar
    34    38    39   ar
    35    39    40    1
    36     4     5   ar
    37     5    15    1
    38    15    17    1
    39    17    18    2
    40    17    19    2
    41    17    20    1
    42    20    21   ar
    43    21    22   ar
    44    22    23   ar
    45    23    27    1
    46    27    28    1
    47    28    29    1
    48    29    30    1
    49    23    24   ar
    50    24    25   ar
    51    25    26    1
    52     5     6   ar
    53     6     1   ar
    54    39    33   ar
    55    25    20   ar
    56    52    45    1
    57    29    27    1
    58     7    10    1
    59    59    60    1
    60    49    54    1
    61    51    55    1
    62    53    56    1
    63    15    16    1
    64    30    31    1
@<TRIPOS>MOLECULE
*****
 60 64 0 0 0
SMALL
GASTEIGER

@<TRIPOS>ATOM
      1 C         -27.3720   -5.8828  -14.6203 C.ar    1  UNL1        0.0548
      2 C         -27.6004   -6.7448  -13.5361 C.ar    1  UNL1        0.0077
      3 C         -26.5899   -7.5929  -13.0839 C.ar    1  UNL1        0.0390
      4 C         -25.3385   -7.6001  -13.7062 C.ar    1  UNL1        0.1598
      5 C         -25.0534   -6.6631  -14.7262 C.ar    1  UNL1        0.0993
      6 C         -26.0911   -5.8369  -15.1982 C.ar    1  UNL1        0.0235
      7 N         -28.2334   -4.1656  -16.2857 N.am    1  UNL1       -0.3040
      8 C         -28.4479   -4.9978  -15.1282 C.2     1  UNL1        0.2458
      9 O         -29.5514   -4.9654  -14.5198 O.2     1  UNL1       -0.2701
     10 H         -27.2494   -4.0612  -16.6226 H       1  UNL1        0.1496
     11 C         -30.2015   -4.4583  -17.7298 C.3     1  UNL1        0.0196
     12 C         -29.2944   -3.4382  -17.0107 C.3     1  UNL1        0.0572
     13 C         -30.1576   -2.6297  -16.0222 C.3     1  UNL1        0.0196
     14 C         -28.6749   -2.5048  -18.0693 C.3     1  UNL1        0.0196
     15 N         -23.7016   -6.5190  -15.2083 N.pl3   1  UNL1       -0.2120
     16 H         -23.0419   -5.9040  -14.6852 H       1  UNL1        0.1738
     17 S         -23.0852   -7.1979  -16.6845 S.O2    1  UNL1        0.0745
     18 O         -24.0827   -6.9830  -17.7884 O.2     1  UNL1       -0.1499
     19 O         -21.8155   -6.4766  -17.0375 O.2     1  UNL1       -0.1499
     20 C         -22.7145   -8.9170  -16.4990 C.ar    1  UNL1        0.1356
     21 C         -23.3760   -9.8582  -17.2979 C.ar    1  UNL1        0.0207
     22 C         -23.1324  -11.2238  -17.1436 C.ar    1  UNL1       -0.0028
     23 C         -22.2173  -11.6817  -16.1741 C.ar    1  UNL1       -0.0207
     24 C         -21.5617  -10.7363  -15.3707 C.ar    1  UNL1        0.0085
     25 C         -21.8036   -9.3662  -15.5231 C.ar    1  UNL1        0.0762
     26 CL        -20.9632   -8.2507  -14.4513 Cl      1  UNL1       -0.0809
     27 C         -21.9129  -13.1495  -15.9285 C.3     1  UNL1        0.0329
     28 C         -21.4677  -13.5197  -14.5173 C.3     1  UNL1        0.0160
     29 C         -22.8508  -13.9267  -15.0136 C.3     1  UNL1        0.0482
     30 S         -22.9788  -15.6931  -15.4328 S.3     1  UNL1       -0.1685
     31 H         -23.2488  -16.0460  -14.0975 H       1  UNL1        0.1023
     32 O         -24.4013   -8.5643  -13.3117 O.3     1  UNL1       -0.4513
     33 C         -23.5046   -8.3651  -12.2510 C.ar    1  UNL1        0.1580
     34 C         -23.3146   -7.0648  -11.7687 C.ar    1  UNL1        0.0677
     35 C         -22.3543   -6.8024  -10.7871 C.ar    1  UNL1        0.1398
     36 F         -22.1444   -5.5201  -10.3954 F       1  UNL1       -0.2044
     37 C         -21.6033   -7.8552  -10.2356 C.ar    1  UNL1        0.0175
     38 C         -21.8444   -9.1682  -10.6675 C.ar    1  UNL1        0.0130
     39 C         -22.7875   -9.4304  -11.6651 C.ar    1  UNL1        0.0919
     40 CL        -23.0564  -11.1065  -12.1252 Cl      1  UNL1       -0.0791
     41 C         -20.5017   -7.5950   -9.2424 C.3     1  UNL1        0.1382
     42 C         -20.8164   -8.2916   -7.9576 C.2     1  UNL1        0.3234
     43 O         -22.0186   -8.4494   -7.6104 O.2     1  UNL1       -0.2497
     44 O         -19.7763   -8.8295   -7.1939 O.3     1  UNL1       -0.4215
     45 C         -19.3583   -8.2662   -5.9532 C.3     1  UNL1        0.3207
     46 O         -17.9643   -8.4695   -5.7936 O.3     1  UNL1       -0.3070
     47 C         -17.4974   -7.7966   -4.6364 C.3     1  UNL1        0.2456
     48 C         -18.1296   -8.4086   -3.3641 C.3     1  UNL1        0.1781
     49 O         -17.6853   -7.7428   -2.2069 O.3     1  UNL1       -0.3790
     50 C         -19.6686   -8.3623   -3.4618 C.3     1  UNL1        0.1733
     51 O         -20.2415   -9.1031   -2.4156 O.3     1  UNL1       -0.3793
     52 C         -20.1298   -8.9436   -4.8060 C.3     1  UNL1        0.2106
     53 O         -21.5085   -8.7237   -4.9542 O.3     1  UNL1       -0.3766
     54 H         -17.9526   -6.7895   -2.2866 H       1  UNL1        0.2106
     55 H         -20.2016   -8.5325   -1.6041 H       1  UNL1        0.2105
     56 H         -21.8335   -9.3713   -5.6329 H       1  UNL1        0.2107
     57 C         -16.0000   -7.9121   -4.5767 C.2     1  UNL1        0.3439
     58 O         -15.4618   -8.7571   -3.8132 O.2     1  UNL1       -0.2475
     59 O         -15.1931   -7.0578   -5.3233 O.3     1  UNL1       -0.4785
     60 H         -15.5929   -6.3492   -5.9269 H       1  UNL1        0.2951
@<TRIPOS>BOND
     1    11    12    1
     2    12    13    1
     3    12    14    1
     4    12     7    1
     5     7     8   am
     6     8     9    2
     7     8     1    1
     8     1     2   ar
     9     2     3   ar
    10     3     4   ar
    11     4    32    1
    12    32    33    1
    13    33    34   ar
    14    34    35   ar
    15    35    36    1
    16    35    37   ar
    17    37    41    1
    18    41    42    1
    19    42    43    2
    20    42    44    1
    21    44    45    1
    22    45    46    1
    23    46    47    1
    24    47    57    1
    25    57    58    2
    26    57    59    1
    27    47    48    1
    28    48    49    1
    29    48    50    1
    30    50    51    1
    31    50    52    1
    32    52    53    1
    33    37    38   ar
    34    38    39   ar
    35    39    40    1
    36     4     5   ar
    37     5    15    1
    38    15    17    1
    39    17    18    2
    40    17    19    2
    41    17    20    1
    42    20    21   ar
    43    21    22   ar
    44    22    23   ar
    45    23    27    1
    46    27    28    1
    47    28    29    1
    48    29    30    1
    49    23    24   ar
    50    24    25   ar
    51    25    26    1
    52     5     6   ar
    53     6     1   ar
    54    39    33   ar
    55    25    20   ar
    56    52    45    1
    57    29    27    1
    58     7    10    1
    59    59    60    1
    60    49    54    1
    61    51    55    1
    62    53    56    1
    63    15    16    1
    64    30    31    1
@<TRIPOS>MOLECULE
*****
 60 64 0 0 0
SMALL
GASTEIGER

@<TRIPOS>ATOM
      1 C         -19.7382   -8.1548   -8.2049 C.ar    1  UNL1        0.0548
      2 C         -20.4865   -7.0823   -8.7154 C.ar    1  UNL1        0.0077
      3 C         -20.8826   -7.0715  -10.0525 C.ar    1  UNL1        0.0390
      4 C         -20.5364   -8.1248  -10.9033 C.ar    1  UNL1        0.1598
      5 C         -19.8799   -9.2642  -10.3833 C.ar    1  UNL1        0.0993
      6 C         -19.4539   -9.2485   -9.0415 C.ar    1  UNL1        0.0235
      7 N         -18.4529   -9.2269   -6.2911 N.am    1  UNL1       -0.3040
      8 C         -19.2867   -8.1632   -6.7926 C.2     1  UNL1        0.2458
      9 O         -19.6602   -7.2352   -6.0255 O.2     1  UNL1       -0.2701
     10 H         -18.3495  -10.0759   -6.8922 H       1  UNL1        0.1496
     11 C         -18.8067   -9.2528   -3.8583 C.3     1  UNL1        0.0196
     12 C         -17.7573   -9.2118   -4.9886 C.3     1  UNL1        0.0572
     13 C         -16.8483  -10.4494   -4.8554 C.3     1  UNL1        0.0196
     14 C         -16.9298   -7.9201   -4.8397 C.3     1  UNL1        0.0196
     15 N         -19.7260  -10.4392  -11.2056 N.pl3   1  UNL1       -0.2120
     16 H         -18.8949  -10.5126  -11.8308 H       1  UNL1        0.1738
     17 S         -20.8866  -11.7252  -11.3449 S.O2    1  UNL1        0.0745
     18 O         -20.1974  -13.0452  -11.1391 O.2     1  UNL1       -0.1499
     19 O         -21.9152  -11.5469  -10.2645 O.2     1  UNL1       -0.1499
     20 C         -21.7108  -11.6842  -12.9090 C.ar    1  UNL1        0.1356
     21 C         -21.0231  -12.0759  -14.0645 C.ar    1  UNL1        0.0207
     22 C         -21.6366  -12.0143  -15.3166 C.ar    1  UNL1       -0.0028
     23 C         -22.9617  -11.5501  -15.4414 C.ar    1  UNL1       -0.0207
     24 C         -23.6452  -11.1519  -14.2824 C.ar    1  UNL1        0.0085
     25 C         -23.0328  -11.2126  -13.0253 C.ar    1  UNL1        0.0762
     26 CL        -23.9508  -10.6624  -11.6275 Cl      1  UNL1       -0.0809
     27 C         -23.6925  -11.4318  -16.7678 C.3     1  UNL1        0.0329
     28 C         -23.4810  -10.1346  -17.5419 C.3     1  UNL1        0.0160
     29 C         -22.8577  -11.4332  -18.0422 C.3     1  UNL1        0.0482
     30 S         -23.7211  -12.1448  -19.4775 S.3     1  UNL1       -0.1685
     31 H         -23.0003  -11.3395  -20.3788 H       1  UNL1        0.1023
     32 O         -20.8328   -8.0068  -12.2679 O.3     1  UNL1       -0.4513
     33 C         -22.1180   -7.7069  -12.7446 C.ar    1  UNL1        0.1580
     34 C         -23.0955   -7.3016  -11.8282 C.ar    1  UNL1        0.0677
     35 C         -24.4157   -7.0956  -12.2396 C.ar    1  UNL1        0.1398
     36 F         -25.3535   -6.7752  -11.3123 F       1  UNL1       -0.2044
     37 C         -24.7641   -7.2437  -13.5936 C.ar    1  UNL1        0.0175
     38 C         -23.7691   -7.5797  -14.5240 C.ar    1  UNL1        0.0130
     39 C         -22.4535   -7.8088  -14.1119 C.ar    1  UNL1        0.0919
     40 CL        -21.2582   -8.1903  -15.3444 Cl      1  UNL1       -0.0791
     41 C         -26.1923   -7.1157  -14.0533 C.3     1  UNL1        0.1382
     42 C         -26.5283   -5.6702  -14.2338 C.2     1  UNL1        0.3234
     43 O         -26.4932   -4.8918  -13.2420 O.2     1  UNL1       -0.2497
     44 O         -26.8015   -5.1820  -15.5149 O.3     1  UNL1       -0.4215
     45 C         -27.8064   -4.2041  -15.7705 C.3     1  UNL1        0.3207
     46 O         -29.0778   -4.7477  -15.4574 O.3     1  UNL1       -0.3070
     47 C         -30.0805   -3.7515  -15.5679 C.3     1  UNL1        0.2456
     48 C         -30.2095   -3.2756  -17.0341 C.3     1  UNL1        0.1781
     49 O         -31.1928   -2.2769  -17.1582 O.3     1  UNL1       -0.3790
     50 C         -28.8472   -2.7650  -17.5476 C.3     1  UNL1        0.1733
     51 O         -28.9084   -2.5337  -18.9312 O.3     1  UNL1       -0.3793
     52 C         -27.7513   -3.7998  -17.2550 C.3     1  UNL1        0.2106
     53 O         -26.4988   -3.2427  -17.5582 O.3     1  UNL1       -0.3766
     54 H         -30.9217   -1.5142  -16.5827 H       1  UNL1        0.2106
     55 H         -29.3664   -1.6618  -19.0567 H       1  UNL1        0.2105
     56 H         -25.8676   -3.9991  -17.6808 H       1  UNL1        0.2107
     57 C         -31.3876   -4.3211  -15.0922 C.2     1  UNL1        0.3439
     58 O         -32.4102   -3.5883  -15.0294 O.2     1  UNL1       -0.2475
     59 O         -31.4719   -5.6453  -14.6707 O.3     1  UNL1       -0.4785
     60 H         -30.6626   -6.2545  -14.6828 H       1  UNL1        0.2951
@<TRIPOS>BOND
     1    11    12    1
     2    12    13    1
     3    12    14    1
     4    12     7    1
     5     7     8   am
     6     8     9    2
     7     8     1    1
     8     1     2   ar
     9     2     3   ar
    10     3     4   ar
    11     4    32    1
    12    32    33    1
    13    33    34   ar
    14    34    35   ar
    15    35    36    1
    16    35    37   ar
    17    37    41    1
    18    41    42    1
    19    42    43    2
    20    42    44    1
    21    44    45    1
    22    45    46    1
    23    46    47    1
    24    47    57    1
    25    57    58    2
    26    57    59    1
    27    47    48    1
    28    48    49    1
    29    48    50    1
    30    50    51    1
    31    50    52    1
    32    52    53    1
    33    37    38   ar
    34    38    39   ar
    35    39    40    1
    36     4     5   ar
    37     5    15    1
    38    15    17    1
    39    17    18    2
    40    17    19    2
    41    17    20    1
    42    20    21   ar
    43    21    22   ar
    44    22    23   ar
    45    23    27    1
    46    27    28    1
    47    28    29    1
    48    29    30    1
    49    23    24   ar
    50    24    25   ar
    51    25    26    1
    52     5     6   ar
    53     6     1   ar
    54    39    33   ar
    55    25    20   ar
    56    52    45    1
    57    29    27    1
    58     7    10    1
    59    59    60    1
    60    49    54    1
    61    51    55    1
    62    53    56    1
    63    15    16    1
    64    30    31    1
@<TRIPOS>MOLECULE
*****
 60 64 0 0 0
SMALL
GASTEIGER

@<TRIPOS>ATOM
      1 C         -26.9443   -5.4348  -14.1624 C.ar    1  UNL1        0.0548
      2 C         -26.8891   -5.0324  -12.8186 C.ar    1  UNL1        0.0077
      3 C         -26.4645   -5.9224  -11.8324 C.ar    1  UNL1        0.0390
      4 C         -26.0931   -7.2275  -12.1670 C.ar    1  UNL1        0.1598
      5 C         -26.0360   -7.6177  -13.5250 C.ar    1  UNL1        0.0993
      6 C         -26.5003   -6.7233  -14.5082 C.ar    1  UNL1        0.0235
      7 N         -28.7687   -4.5951  -15.7215 N.am    1  UNL1       -0.3040
      8 C         -27.4217   -4.5065  -15.2154 C.2     1  UNL1        0.2458
      9 O         -26.6248   -3.6478  -15.6810 O.2     1  UNL1       -0.2701
     10 H         -29.3180   -5.4479  -15.4691 H       1  UNL1        0.1496
     11 C         -30.4293   -2.7823  -15.7409 C.3     1  UNL1        0.0196
     12 C         -29.4152   -3.5846  -16.5825 C.3     1  UNL1        0.0572
     13 C         -28.3621   -2.6067  -17.1399 C.3     1  UNL1        0.0196
     14 C         -30.1729   -4.2712  -17.7358 C.3     1  UNL1        0.0196
     15 N         -25.4400   -8.8818  -13.8821 N.pl3   1  UNL1       -0.2120
     16 H         -25.9673   -9.7606  -13.6905 H       1  UNL1        0.1738
     17 S         -23.8332   -9.0916  -14.5099 S.O2    1  UNL1        0.0745
     18 O         -23.9036   -9.7814  -15.8437 O.2     1  UNL1       -0.1499
     19 O         -23.2248   -7.7318  -14.7040 O.2     1  UNL1       -0.1499
     20 C         -22.8147  -10.0006  -13.3857 C.ar    1  UNL1        0.1356
     21 C         -21.5097   -9.5637  -13.1255 C.ar    1  UNL1        0.0207
     22 C         -20.6710  -10.2850  -12.2744 C.ar    1  UNL1       -0.0028
     23 C         -21.1221  -11.4729  -11.6640 C.ar    1  UNL1       -0.0207
     24 C         -22.4277  -11.9113  -11.9327 C.ar    1  UNL1        0.0085
     25 C         -23.2713  -11.1902  -12.7855 C.ar    1  UNL1        0.0762
     26 CL        -24.8826  -11.8289  -13.0939 Cl      1  UNL1       -0.0809
     27 C         -20.2660  -12.3263  -10.7443 C.3     1  UNL1        0.0329
     28 C         -19.3574  -13.3470  -11.4221 C.3     1  UNL1        0.0160
     29 C         -18.7587  -12.1062  -10.7688 C.3     1  UNL1        0.0482
     30 S         -17.9471  -12.4467   -9.1759 S.3     1  UNL1       -0.1685
     31 H         -16.7432  -12.8132   -9.8060 H       1  UNL1        0.1023
     32 O         -25.8088   -8.1279  -11.1315 O.3     1  UNL1       -0.4513
     33 C         -24.5303   -8.2620  -10.5690 C.ar    1  UNL1        0.1580
     34 C         -23.5356   -7.3493  -10.9392 C.ar    1  UNL1        0.0677
     35 C         -22.2215   -7.5062  -10.4886 C.ar    1  UNL1        0.1398
     36 F         -21.2668   -6.6465  -10.9260 F       1  UNL1       -0.2044
     37 C         -21.8966   -8.5574   -9.6133 C.ar    1  UNL1        0.0175
     38 C         -22.9086   -9.4297   -9.1850 C.ar    1  UNL1        0.0130
     39 C         -24.2183   -9.2889   -9.6522 C.ar    1  UNL1        0.0919
     40 CL        -25.4360  -10.4005   -9.0397 Cl      1  UNL1       -0.0791
     41 C         -20.4757   -8.8057   -9.1810 C.3     1  UNL1        0.1382
     42 C         -20.2241   -8.1134   -7.8801 C.2     1  UNL1        0.3234
     43 O         -20.3994   -6.8675   -7.7910 O.2     1  UNL1       -0.2497
     44 O         -19.8727   -8.8670   -6.7563 O.3     1  UNL1       -0.4215
     45 C         -19.3417   -8.2822   -5.5699 C.3     1  UNL1        0.3207
     46 O         -17.9565   -8.5725   -5.4854 O.3     1  UNL1       -0.3070
     47 C         -17.3748   -7.8853   -4.3902 C.3     1  UNL1        0.2456
     48 C         -17.9639   -8.3999   -3.0556 C.3     1  UNL1        0.1781
     49 O         -17.4053   -7.7183   -1.9588 O.3     1  UNL1       -0.3790
     50 C         -19.4998   -8.2538   -3.0626 C.3     1  UNL1        0.1733
     51 O         -20.0524   -8.9101   -1.9512 O.3     1  UNL1       -0.3793
     52 C         -20.0816   -8.8578   -4.3487 C.3     1  UNL1        0.2106
     53 O         -21.4497   -8.5515   -4.4236 O.3     1  UNL1       -0.3766
     54 H         -17.6146   -6.7532   -2.0656 H       1  UNL1        0.2106
     55 H         -19.9245   -8.3104   -1.1704 H       1  UNL1        0.2105
     56 H         -21.8582   -9.2032   -5.0513 H       1  UNL1        0.2107
     57 C         -15.8873   -8.0992   -4.4156 C.2     1  UNL1        0.3439
     58 O         -15.3752   -9.0514   -3.7692 O.2     1  UNL1       -0.2475
     59 O         -15.0572   -7.2232   -5.1096 O.3     1  UNL1       -0.4785
     60 H         -15.4337   -6.4318   -5.6177 H       1  UNL1        0.2951
@<TRIPOS>BOND
     1    11    12    1
     2    12    13    1
     3    12    14    1
     4    12     7    1
     5     7     8   am
     6     8     9    2
     7     8     1    1
     8     1     2   ar
     9     2     3   ar
    10     3     4   ar
    11     4    32    1
    12    32    33    1
    13    33    34   ar
    14    34    35   ar
    15    35    36    1
    16    35    37   ar
    17    37    41    1
    18    41    42    1
    19    42    43    2
    20    42    44    1
    21    44    45    1
    22    45    46    1
    23    46    47    1
    24    47    57    1
    25    57    58    2
    26    57    59    1
    27    47    48    1
    28    48    49    1
    29    48    50    1
    30    50    51    1
    31    50    52    1
    32    52    53    1
    33    37    38   ar
    34    38    39   ar
    35    39    40    1
    36     4     5   ar
    37     5    15    1
    38    15    17    1
    39    17    18    2
    40    17    19    2
    41    17    20    1
    42    20    21   ar
    43    21    22   ar
    44    22    23   ar
    45    23    27    1
    46    27    28    1
    47    28    29    1
    48    29    30    1
    49    23    24   ar
    50    24    25   ar
    51    25    26    1
    52     5     6   ar
    53     6     1   ar
    54    39    33   ar
    55    25    20   ar
    56    52    45    1
    57    29    27    1
    58     7    10    1
    59    59    60    1
    60    49    54    1
    61    51    55    1
    62    53    56    1
    63    15    16    1
    64    30    31    1
@<TRIPOS>MOLECULE
*****
 60 64 0 0 0
SMALL
GASTEIGER

@<TRIPOS>ATOM
      1 C         -19.0542   -8.8305   -6.9535 C.ar    1  UNL1        0.0548
      2 C         -18.1829   -9.7733   -7.5217 C.ar    1  UNL1        0.0077
      3 C         -18.4700  -10.3412   -8.7627 C.ar    1  UNL1        0.0390
      4 C         -19.6302   -9.9838   -9.4550 C.ar    1  UNL1        0.1598
      5 C         -20.4624   -8.9567   -8.9528 C.ar    1  UNL1        0.0993
      6 C         -20.1823   -8.4162   -7.6833 C.ar    1  UNL1        0.0235
      7 N         -19.7693   -8.2697   -4.5789 N.am    1  UNL1       -0.3040
      8 C         -18.7742   -8.2418   -5.6217 C.2     1  UNL1        0.2458
      9 O         -17.6572   -7.6944   -5.4175 O.2     1  UNL1       -0.2701
     10 H         -20.7426   -8.5326   -4.8551 H       1  UNL1        0.1496
     11 C         -19.1348   -6.4436   -3.0600 C.3     1  UNL1        0.0196
     12 C         -19.5180   -7.9346   -3.1630 C.3     1  UNL1        0.0572
     13 C         -20.7904   -8.1701   -2.3255 C.3     1  UNL1        0.0196
     14 C         -18.3505   -8.7776   -2.6133 C.3     1  UNL1        0.0196
     15 N         -21.5279   -8.4337   -9.7724 N.pl3   1  UNL1       -0.2120
     16 H         -21.2889   -7.9669  -10.6735 H       1  UNL1        0.1738
     17 S         -23.2087   -8.4014   -9.3323 S.O2    1  UNL1        0.0745
     18 O         -23.6399   -9.7762   -8.9037 O.2     1  UNL1       -0.1499
     19 O         -23.3707   -7.4632   -8.1701 O.2     1  UNL1       -0.1499
     20 C         -24.2135   -7.8147  -10.6641 C.ar    1  UNL1        0.1356
     21 C         -25.3513   -8.5378  -11.0436 C.ar    1  UNL1        0.0207
     22 C         -26.1386   -8.1194  -12.1174 C.ar    1  UNL1       -0.0028
     23 C         -25.7983   -6.9609  -12.8448 C.ar    1  UNL1       -0.0207
     24 C         -24.6537   -6.2430  -12.4662 C.ar    1  UNL1        0.0085
     25 C         -23.8622   -6.6598  -11.3897 C.ar    1  UNL1        0.0762
     26 CL        -22.4250   -5.7193  -11.0030 Cl      1  UNL1       -0.0809
     27 C         -26.5886   -6.4516  -14.0379 C.3     1  UNL1        0.0329
     28 C         -27.8537   -5.6602  -13.7216 C.3     1  UNL1        0.0160
     29 C         -26.6254   -4.9474  -14.2767 C.3     1  UNL1        0.0482
     30 S         -26.7837   -4.4925  -16.0317 S.3     1  UNL1       -0.1685
     31 H         -27.4544   -3.2959  -15.7169 H       1  UNL1        0.1023
     32 O         -19.9498  -10.6803  -10.6282 O.3     1  UNL1       -0.4513
     33 C         -20.8746  -10.2026  -11.5692 C.ar    1  UNL1        0.1580
     34 C         -22.0557  -10.9250  -11.7753 C.ar    1  UNL1        0.0677
     35 C         -22.9560  -10.5478  -12.7763 C.ar    1  UNL1        0.1398
     36 F         -24.0545  -11.3132  -12.9984 F       1  UNL1       -0.2044
     37 C         -22.7073   -9.4033  -13.5540 C.ar    1  UNL1        0.0175
     38 C         -21.5593   -8.6381  -13.2991 C.ar    1  UNL1        0.0130
     39 C         -20.6461   -9.0259  -12.3147 C.ar    1  UNL1        0.0919
     40 CL        -19.2507   -7.9933  -12.0320 Cl      1  UNL1       -0.0791
     41 C         -23.6108   -9.0214  -14.6966 C.3     1  UNL1        0.1382
     42 C         -23.0728   -9.5945  -15.9682 C.2     1  UNL1        0.3234
     43 O         -21.8968   -9.3174  -16.3304 O.2     1  UNL1       -0.2497
     44 O         -23.8523  -10.4940  -16.7015 O.3     1  UNL1       -0.4215
     45 C         -23.8153  -11.9023  -16.4852 C.3     1  UNL1        0.3207
     46 O         -24.6456  -12.2278  -15.3832 O.3     1  UNL1       -0.3070
     47 C         -24.7383  -13.6348  -15.2345 C.3     1  UNL1        0.2456
     48 C         -23.3576  -14.2315  -14.8731 C.3     1  UNL1        0.1781
     49 O         -23.4304  -15.6297  -14.7344 O.3     1  UNL1       -0.3790
     50 C         -22.3159  -13.8440  -15.9432 C.3     1  UNL1        0.1733
     51 O         -21.0272  -14.1996  -15.5137 O.3     1  UNL1       -0.3793
     52 C         -22.3639  -12.3316  -16.2033 C.3     1  UNL1        0.2106
     53 O         -21.5471  -12.0273  -17.3039 O.3     1  UNL1       -0.3766
     54 H         -23.7381  -16.0028  -15.6020 H       1  UNL1        0.2106
     55 H         -20.9322  -15.1758  -15.6678 H       1  UNL1        0.2105
     56 H         -21.3333  -11.0595  -17.2468 H       1  UNL1        0.2107
     57 C         -25.7351  -13.9457  -14.1535 C.2     1  UNL1        0.3439
     58 O         -25.3568  -14.4938  -13.0843 O.2     1  UNL1       -0.2475
     59 O         -27.0887  -13.6785  -14.3397 O.3     1  UNL1       -0.4785
     60 H         -27.4305  -13.2630  -15.1980 H       1  UNL1        0.2951
@<TRIPOS>BOND
     1    11    12    1
     2    12    13    1
     3    12    14    1
     4    12     7    1
     5     7     8   am
     6     8     9    2
     7     8     1    1
     8     1     2   ar
     9     2     3   ar
    10     3     4   ar
    11     4    32    1
    12    32    33    1
    13    33    34   ar
    14    34    35   ar
    15    35    36    1
    16    35    37   ar
    17    37    41    1
    18    41    42    1
    19    42    43    2
    20    42    44    1
    21    44    45    1
    22    45    46    1
    23    46    47    1
    24    47    57    1
    25    57    58    2
    26    57    59    1
    27    47    48    1
    28    48    49    1
    29    48    50    1
    30    50    51    1
    31    50    52    1
    32    52    53    1
    33    37    38   ar
    34    38    39   ar
    35    39    40    1
    36     4     5   ar
    37     5    15    1
    38    15    17    1
    39    17    18    2
    40    17    19    2
    41    17    20    1
    42    20    21   ar
    43    21    22   ar
    44    22    23   ar
    45    23    27    1
    46    27    28    1
    47    28    29    1
    48    29    30    1
    49    23    24   ar
    50    24    25   ar
    51    25    26    1
    52     5     6   ar
    53     6     1   ar
    54    39    33   ar
    55    25    20   ar
    56    52    45    1
    57    29    27    1
    58     7    10    1
    59    59    60    1
    60    49    54    1
    61    51    55    1
    62    53    56    1
    63    15    16    1
    64    30    31    1
@<TRIPOS>MOLECULE
*****
 60 64 0 0 0
SMALL
GASTEIGER

@<TRIPOS>ATOM
      1 C         -27.6855   -5.8199  -14.1598 C.ar    1  UNL1        0.0548
      2 C         -28.4186   -6.9963  -13.9370 C.ar    1  UNL1        0.0077
      3 C         -27.9999   -7.9174  -12.9772 C.ar    1  UNL1        0.0390
      4 C         -26.8434   -7.6849  -12.2279 C.ar    1  UNL1        0.1598
      5 C         -26.1538   -6.4573  -12.3587 C.ar    1  UNL1        0.0993
      6 C         -26.5644   -5.5511  -13.3549 C.ar    1  UNL1        0.0235
      7 N         -29.4967   -4.6834  -15.5354 N.am    1  UNL1       -0.3040
      8 C         -28.1048   -4.8475  -15.1977 C.2     1  UNL1        0.2458
      9 O         -27.2231   -4.1776  -15.8000 O.2     1  UNL1       -0.2701
     10 H         -30.1634   -5.4029  -15.1740 H       1  UNL1        0.1496
     11 C         -30.5384   -4.1788  -17.7044 C.3     1  UNL1        0.0196
     12 C         -30.0405   -3.5914  -16.3674 C.3     1  UNL1        0.0572
     13 C         -31.2320   -2.9213  -15.6553 C.3     1  UNL1        0.0196
     14 C         -28.9429   -2.5523  -16.6694 C.3     1  UNL1        0.0196
     15 N         -25.1008   -6.1252  -11.4305 N.pl3   1  UNL1       -0.2120
     16 H         -25.3537   -5.8536  -10.4562 H       1  UNL1        0.1738
     17 S         -23.4121   -6.0172  -11.8260 S.O2    1  UNL1        0.0745
     18 O         -23.0491   -4.5809  -12.0811 O.2     1  UNL1       -0.1499
     19 O         -22.6224   -6.5099  -10.6468 O.2     1  UNL1       -0.1499
     20 C         -23.0107   -7.0240  -13.2234 C.ar    1  UNL1        0.1356
     21 C         -24.0012   -7.3266  -14.1662 C.ar    1  UNL1        0.0207
     22 C         -23.7218   -8.1523  -15.2562 C.ar    1  UNL1       -0.0028
     23 C         -22.4351   -8.7026  -15.4250 C.ar    1  UNL1       -0.0207
     24 C         -21.4472   -8.4030  -14.4746 C.ar    1  UNL1        0.0085
     25 C         -21.7241   -7.5751  -13.3805 C.ar    1  UNL1        0.0762
     26 CL        -20.4360   -7.2776  -12.2179 Cl      1  UNL1       -0.0809
     27 C         -22.0564   -9.6265  -16.5698 C.3     1  UNL1        0.0329
     28 C         -21.4610  -10.9756  -16.1799 C.3     1  UNL1        0.0160
     29 C         -22.8713  -10.9003  -16.7547 C.3     1  UNL1        0.0482
     30 S         -22.9779  -11.4515  -18.4859 S.3     1  UNL1       -0.1685
     31 H         -23.1019  -12.8008  -18.1053 H       1  UNL1        0.1023
     32 O         -26.3831   -8.6987  -11.3769 O.3     1  UNL1       -0.4513
     33 C         -25.2294   -9.4513  -11.6440 C.ar    1  UNL1        0.1580
     34 C         -25.1417  -10.1351  -12.8623 C.ar    1  UNL1        0.0677
     35 C         -24.0615  -10.9820  -13.1278 C.ar    1  UNL1        0.1398
     36 F         -24.0450  -11.6867  -14.2875 F       1  UNL1       -0.2044
     37 C         -23.0223  -11.1149  -12.1902 C.ar    1  UNL1        0.0175
     38 C         -23.0746  -10.3739  -11.0000 C.ar    1  UNL1        0.0130
     39 C         -24.1646   -9.5444  -10.7221 C.ar    1  UNL1        0.0919
     40 CL        -24.1375   -8.6216   -9.2250 Cl      1  UNL1       -0.0791
     41 C         -21.8911  -12.0849  -12.4073 C.3     1  UNL1        0.1382
     42 C         -20.7772  -11.7686  -11.4616 C.2     1  UNL1        0.3234
     43 O         -20.1497  -12.7068  -10.8988 O.2     1  UNL1       -0.2497
     44 O         -20.3923  -10.4381  -11.2723 O.3     1  UNL1       -0.4215
     45 C         -19.4808  -10.0356  -10.2531 C.3     1  UNL1        0.3207
     46 O         -18.8225  -11.1800   -9.7364 O.3     1  UNL1       -0.3070
     47 C         -17.8101  -10.7952   -8.8215 C.3     1  UNL1        0.2456
     48 C         -18.4340  -10.1106   -7.5825 C.3     1  UNL1        0.1781
     49 O         -17.4402   -9.7111   -6.6701 O.3     1  UNL1       -0.3790
     50 C         -19.2898   -8.9032   -8.0185 C.3     1  UNL1        0.1733
     51 O         -20.0237   -8.4121   -6.9268 O.3     1  UNL1       -0.3793
     52 C         -20.2588   -9.3187   -9.1347 C.3     1  UNL1        0.2106
     53 O         -20.8930   -8.1743   -9.6437 O.3     1  UNL1       -0.3766
     54 H         -16.8412   -9.0718   -7.1380 H       1  UNL1        0.2106
     55 H         -19.3981   -7.8666   -6.3821 H       1  UNL1        0.2105
     56 H         -21.7189   -8.4806  -10.1015 H       1  UNL1        0.2107
     57 C         -17.0403  -12.0169   -8.4046 C.2     1  UNL1        0.3439
     58 O         -16.0029  -11.8996   -7.6998 O.2     1  UNL1       -0.2475
     59 O         -17.4342  -13.2823   -8.8311 O.3     1  UNL1       -0.4785
     60 H         -18.2480  -13.4099   -9.4208 H       1  UNL1        0.2951
@<TRIPOS>BOND
     1    11    12    1
     2    12    13    1
     3    12    14    1
     4    12     7    1
     5     7     8   am
     6     8     9    2
     7     8     1    1
     8     1     2   ar
     9     2     3   ar
    10     3     4   ar
    11     4    32    1
    12    32    33    1
    13    33    34   ar
    14    34    35   ar
    15    35    36    1
    16    35    37   ar
    17    37    41    1
    18    41    42    1
    19    42    43    2
    20    42    44    1
    21    44    45    1
    22    45    46    1
    23    46    47    1
    24    47    57    1
    25    57    58    2
    26    57    59    1
    27    47    48    1
    28    48    49    1
    29    48    50    1
    30    50    51    1
    31    50    52    1
    32    52    53    1
    33    37    38   ar
    34    38    39   ar
    35    39    40    1
    36     4     5   ar
    37     5    15    1
    38    15    17    1
    39    17    18    2
    40    17    19    2
    41    17    20    1
    42    20    21   ar
    43    21    22   ar
    44    22    23   ar
    45    23    27    1
    46    27    28    1
    47    28    29    1
    48    29    30    1
    49    23    24   ar
    50    24    25   ar
    51    25    26    1
    52     5     6   ar
    53     6     1   ar
    54    39    33   ar
    55    25    20   ar
    56    52    45    1
    57    29    27    1
    58     7    10    1
    59    59    60    1
    60    49    54    1
    61    51    55    1
    62    53    56    1
    63    15    16    1
    64    30    31    1
@<TRIPOS>MOLECULE
*****
 60 64 0 0 0
SMALL
GASTEIGER

@<TRIPOS>ATOM
      1 C         -18.5701   -9.6068   -7.2588 C.ar    1  UNL1        0.0548
      2 C         -17.9556  -10.5916   -8.0484 C.ar    1  UNL1        0.0077
      3 C         -18.3153  -10.7489   -9.3866 C.ar    1  UNL1        0.0390
      4 C         -19.2949   -9.9326   -9.9585 C.ar    1  UNL1        0.1598
      5 C         -19.8453   -8.8644   -9.2131 C.ar    1  UNL1        0.0993
      6 C         -19.5014   -8.7374   -7.8537 C.ar    1  UNL1        0.0235
      7 N         -18.5313   -8.2339   -5.1192 N.am    1  UNL1       -0.3040
      8 C         -18.2167   -9.4496   -5.8274 C.2     1  UNL1        0.2458
      9 O         -17.6154  -10.3884   -5.2392 O.2     1  UNL1       -0.2701
     10 H         -18.8276   -7.4112   -5.6919 H       1  UNL1        0.1496
     11 C         -17.0137   -8.4104   -3.1930 C.3     1  UNL1        0.0196
     12 C         -18.4442   -8.0632   -3.6551 C.3     1  UNL1        0.0572
     13 C         -18.7394   -6.6001   -3.2705 C.3     1  UNL1        0.0196
     14 C         -19.4299   -9.0131   -2.9467 C.3     1  UNL1        0.0196
     15 N         -20.6819   -7.8898   -9.8694 N.pl3   1  UNL1       -0.2120
     16 H         -20.4449   -7.5933  -10.8405 H       1  UNL1        0.1738
     17 S         -22.0142   -7.0523   -9.1323 S.O2    1  UNL1        0.0745
     18 O         -22.6485   -7.9366   -8.0953 O.2     1  UNL1       -0.1499
     19 O         -21.4777   -5.8243   -8.4532 O.2     1  UNL1       -0.1499
     20 C         -23.2044   -6.5452  -10.3381 C.ar    1  UNL1        0.1356
     21 C         -24.4496   -7.1838  -10.3931 C.ar    1  UNL1        0.0207
     22 C         -25.3914   -6.8312  -11.3609 C.ar    1  UNL1       -0.0028
     23 C         -25.1029   -5.8266  -12.3067 C.ar    1  UNL1       -0.0207
     24 C         -23.8516   -5.1939  -12.2530 C.ar    1  UNL1        0.0085
     25 C         -22.9051   -5.5450  -11.2835 C.ar    1  UNL1        0.0762
     26 CL        -21.3478   -4.7242  -11.3083 Cl      1  UNL1       -0.0809
     27 C         -26.0631   -5.4003  -13.4039 C.3     1  UNL1        0.0329
     28 C         -25.9077   -6.1042  -14.7481 C.3     1  UNL1        0.0160
     29 C         -27.1112   -6.4065  -13.8620 C.3     1  UNL1        0.0482
     30 S         -28.6528   -5.6366  -14.4473 S.3     1  UNL1       -0.1685
     31 H         -28.9137   -6.7018  -15.3292 H       1  UNL1        0.1023
     32 O         -19.7244  -10.2167  -11.2618 O.3     1  UNL1       -0.4513
     33 C         -21.0364   -9.9801  -11.6995 C.ar    1  UNL1        0.1580
     34 C         -22.0458  -10.8647  -11.3021 C.ar    1  UNL1        0.0677
     35 C         -23.3459  -10.7315  -11.7988 C.ar    1  UNL1        0.1398
     36 F         -24.2825  -11.6500  -11.4511 F       1  UNL1       -0.2044
     37 C         -23.6648   -9.6713  -12.6654 C.ar    1  UNL1        0.0175
     38 C         -22.6700   -8.7426  -13.0067 C.ar    1  UNL1        0.0130
     39 C         -21.3641   -8.8868  -12.5300 C.ar    1  UNL1        0.0919
     40 CL        -20.1843   -7.6605  -12.9746 Cl      1  UNL1       -0.0791
     41 C         -25.0313   -9.5516  -13.2866 C.3     1  UNL1        0.1382
     42 C         -25.1205  -10.4608  -14.4699 C.2     1  UNL1        0.3234
     43 O         -26.2024  -11.0599  -14.7178 O.2     1  UNL1       -0.2497
     44 O         -24.0270  -10.5758  -15.3332 O.3     1  UNL1       -0.4215
     45 C         -23.5461  -11.8310  -15.8072 C.3     1  UNL1        0.3207
     46 O         -24.5656  -12.8060  -15.6648 O.3     1  UNL1       -0.3070
     47 C         -24.1636  -14.0295  -16.2576 C.3     1  UNL1        0.2456
     48 C         -22.9492  -14.6213  -15.5040 C.3     1  UNL1        0.1781
     49 O         -22.5301  -15.8305  -16.0886 O.3     1  UNL1       -0.3790
     50 C         -21.7930  -13.6001  -15.4771 C.3     1  UNL1        0.1733
     51 O         -20.7752  -14.0454  -14.6183 O.3     1  UNL1       -0.3793
     52 C         -22.3045  -12.2362  -14.9920 C.3     1  UNL1        0.2106
     53 O         -21.2887  -11.2801  -15.1508 O.3     1  UNL1       -0.3766
     54 H         -22.2772  -15.6384  -17.0297 H       1  UNL1        0.2106
     55 H         -20.2577  -14.7303  -15.1170 H       1  UNL1        0.2105
     56 H         -21.5083  -10.5219  -14.5488 H       1  UNL1        0.2107
     57 C         -25.3169  -14.9925  -16.2168 C.2     1  UNL1        0.3439
     58 O         -26.1438  -14.9476  -15.2676 O.2     1  UNL1       -0.2475
     59 O         -25.4567  -15.9725  -17.1958 O.3     1  UNL1       -0.4785
     60 H         -24.7946  -16.0538  -17.9581 H       1  UNL1        0.2951
@<TRIPOS>BOND
     1    11    12    1
     2    12    13    1
     3    12    14    1
     4    12     7    1
     5     7     8   am
     6     8     9    2
     7     8     1    1
     8     1     2   ar
     9     2     3   ar
    10     3     4   ar
    11     4    32    1
    12    32    33    1
    13    33    34   ar
    14    34    35   ar
    15    35    36    1
    16    35    37   ar
    17    37    41    1
    18    41    42    1
    19    42    43    2
    20    42    44    1
    21    44    45    1
    22    45    46    1
    23    46    47    1
    24    47    57    1
    25    57    58    2
    26    57    59    1
    27    47    48    1
    28    48    49    1
    29    48    50    1
    30    50    51    1
    31    50    52    1
    32    52    53    1
    33    37    38   ar
    34    38    39   ar
    35    39    40    1
    36     4     5   ar
    37     5    15    1
    38    15    17    1
    39    17    18    2
    40    17    19    2
    41    17    20    1
    42    20    21   ar
    43    21    22   ar
    44    22    23   ar
    45    23    27    1
    46    27    28    1
    47    28    29    1
    48    29    30    1
    49    23    24   ar
    50    24    25   ar
    51    25    26    1
    52     5     6   ar
    53     6     1   ar
    54    39    33   ar
    55    25    20   ar
    56    52    45    1
    57    29    27    1
    58     7    10    1
    59    59    60    1
    60    49    54    1
    61    51    55    1
    62    53    56    1
    63    15    16    1
    64    30    31    1
@<TRIPOS>MOLECULE
*****
 60 64 0 0 0
SMALL
GASTEIGER

@<TRIPOS>ATOM
      1 C         -27.2915   -6.2281  -14.3735 C.ar    1  UNL1        0.0548
      2 C         -27.4412   -7.1870  -13.3591 C.ar    1  UNL1        0.0077
      3 C         -26.3821   -8.0296  -13.0227 C.ar    1  UNL1        0.0390
      4 C         -25.1597   -7.9347  -13.6933 C.ar    1  UNL1        0.1598
      5 C         -24.9531   -6.9044  -14.6396 C.ar    1  UNL1        0.0993
      6 C         -26.0394   -6.0830  -14.9965 C.ar    1  UNL1        0.0235
      7 N         -28.2793   -4.3978  -15.8358 N.am    1  UNL1       -0.3040
      8 C         -28.4195   -5.3467  -14.7595 C.2     1  UNL1        0.2458
      9 O         -29.5020   -5.4220  -14.1178 O.2     1  UNL1       -0.2701
     10 H         -27.3125   -4.2179  -16.1903 H       1  UNL1        0.1496
     11 C         -30.0355   -2.7359  -15.3905 C.3     1  UNL1        0.0196
     12 C         -29.3935   -3.6514  -16.4537 C.3     1  UNL1        0.0572
     13 C         -28.8709   -2.7698  -17.6050 C.3     1  UNL1        0.0196
     14 C         -30.4687   -4.6272  -16.9710 C.3     1  UNL1        0.0196
     15 N         -23.6296   -6.6668  -15.1617 N.pl3   1  UNL1       -0.2120
     16 H         -22.9994   -6.0061  -14.6583 H       1  UNL1        0.1738
     17 S         -23.0114   -7.3034  -16.6558 S.O2    1  UNL1        0.0745
     18 O         -24.0008   -7.0439  -17.7574 O.2     1  UNL1       -0.1499
     19 O         -21.7333   -6.5829  -16.9788 O.2     1  UNL1       -0.1499
     20 C         -22.6572   -9.0310  -16.5239 C.ar    1  UNL1        0.1356
     21 C         -23.4119   -9.9509  -17.2627 C.ar    1  UNL1        0.0207
     22 C         -23.1805  -11.3223  -17.1461 C.ar    1  UNL1       -0.0028
     23 C         -22.1835  -11.8077  -16.2758 C.ar    1  UNL1       -0.0207
     24 C         -21.4342  -10.8835  -15.5319 C.ar    1  UNL1        0.0085
     25 C         -21.6637   -9.5076  -15.6467 C.ar    1  UNL1        0.0762
     26 CL        -20.7008   -8.4197  -14.6524 Cl      1  UNL1       -0.0809
     27 C         -21.8847  -13.2835  -16.0752 C.3     1  UNL1        0.0329
     28 C         -21.6464  -13.7348  -14.6377 C.3     1  UNL1        0.0160
     29 C         -22.9300  -14.1298  -15.3597 C.3     1  UNL1        0.0482
     30 S         -22.9523  -15.8681  -15.8981 S.3     1  UNL1       -0.1685
     31 H         -23.4101  -16.3077  -14.6420 H       1  UNL1        0.1023
     32 O         -24.1721   -8.8910  -13.4214 O.3     1  UNL1       -0.4513
     33 C         -23.2508   -8.7566  -12.3715 C.ar    1  UNL1        0.1580
     34 C         -22.9372   -7.4711  -11.9149 C.ar    1  UNL1        0.0677
     35 C         -21.9475   -7.2810  -10.9459 C.ar    1  UNL1        0.1398
     36 F         -21.6167   -6.0168  -10.5797 F       1  UNL1       -0.2044
     37 C         -21.2916   -8.3888  -10.3808 C.ar    1  UNL1        0.0175
     38 C         -21.6568   -9.6813  -10.7863 C.ar    1  UNL1        0.0130
     39 C         -22.6295   -9.8730  -11.7715 C.ar    1  UNL1        0.0919
     40 CL        -23.0561  -11.5250  -12.1983 Cl      1  UNL1       -0.0791
     41 C         -20.1614   -8.2137   -9.4012 C.3     1  UNL1        0.1382
     42 C         -20.7162   -8.1011   -8.0176 C.2     1  UNL1        0.3234
     43 O         -21.8399   -8.6082   -7.7515 O.2     1  UNL1       -0.2497
     44 O         -19.9476   -7.5029   -7.0147 O.3     1  UNL1       -0.4215
     45 C         -19.4702   -8.2180   -5.8779 C.3     1  UNL1        0.3207
     46 O         -20.4940   -8.2768   -4.8990 O.3     1  UNL1       -0.3070
     47 C         -20.0950   -9.1022   -3.8175 C.3     1  UNL1        0.2456
     48 C         -18.8855   -8.4796   -3.0809 C.3     1  UNL1        0.1781
     49 O         -18.4694   -9.2941   -2.0117 O.3     1  UNL1       -0.3790
     50 C         -17.7253   -8.2454   -4.0704 C.3     1  UNL1        0.1733
     51 O         -16.7123   -7.4909   -3.4571 O.3     1  UNL1       -0.3793
     52 C         -18.2330   -7.4976   -5.3116 C.3     1  UNL1        0.2106
     53 O         -17.2128   -7.4586   -6.2753 O.3     1  UNL1       -0.3766
     54 H         -18.2125  -10.1768   -2.3877 H       1  UNL1        0.2106
     55 H         -16.1958   -8.1156   -2.8839 H       1  UNL1        0.2105
     56 H         -17.4313   -6.7172   -6.8983 H       1  UNL1        0.2107
     57 C         -21.2523   -9.2584   -2.8713 C.2     1  UNL1        0.3439
     58 O         -21.6469  -10.4081   -2.5407 O.2     1  UNL1       -0.2475
     59 O         -21.9300   -8.1415   -2.3902 O.3     1  UNL1       -0.4785
     60 H         -21.6559   -7.2036   -2.6571 H       1  UNL1        0.2951
@<TRIPOS>BOND
     1    11    12    1
     2    12    13    1
     3    12    14    1
     4    12     7    1
     5     7     8   am
     6     8     9    2
     7     8     1    1
     8     1     2   ar
     9     2     3   ar
    10     3     4   ar
    11     4    32    1
    12    32    33    1
    13    33    34   ar
    14    34    35   ar
    15    35    36    1
    16    35    37   ar
    17    37    41    1
    18    41    42    1
    19    42    43    2
    20    42    44    1
    21    44    45    1
    22    45    46    1
    23    46    47    1
    24    47    57    1
    25    57    58    2
    26    57    59    1
    27    47    48    1
    28    48    49    1
    29    48    50    1
    30    50    51    1
    31    50    52    1
    32    52    53    1
    33    37    38   ar
    34    38    39   ar
    35    39    40    1
    36     4     5   ar
    37     5    15    1
    38    15    17    1
    39    17    18    2
    40    17    19    2
    41    17    20    1
    42    20    21   ar
    43    21    22   ar
    44    22    23   ar
    45    23    27    1
    46    27    28    1
    47    28    29    1
    48    29    30    1
    49    23    24   ar
    50    24    25   ar
    51    25    26    1
    52     5     6   ar
    53     6     1   ar
    54    39    33   ar
    55    25    20   ar
    56    52    45    1
    57    29    27    1
    58     7    10    1
    59    59    60    1
    60    49    54    1
    61    51    55    1
    62    53    56    1
    63    15    16    1
    64    30    31    1
@<TRIPOS>MOLECULE
*****
 60 64 0 0 0
SMALL
GASTEIGER

@<TRIPOS>ATOM
      1 C         -26.3409   -6.4859  -14.0828 C.ar    1  UNL1        0.0548
      2 C         -26.8402   -7.4015  -13.1430 C.ar    1  UNL1        0.0077
      3 C         -26.0051   -8.3729  -12.5917 C.ar    1  UNL1        0.0390
      4 C         -24.6622   -8.4516  -12.9703 C.ar    1  UNL1        0.1598
      5 C         -24.1137   -7.4718  -13.8299 C.ar    1  UNL1        0.0993
      6 C         -24.9733   -6.5181  -14.4076 C.ar    1  UNL1        0.0235
      7 N         -26.7103   -4.5249  -15.6583 N.am    1  UNL1       -0.3040
      8 C         -27.2263   -5.4675  -14.6972 C.2     1  UNL1        0.2458
      9 O         -28.4376   -5.4214  -14.3514 O.2     1  UNL1       -0.2701
     10 H         -25.6712   -4.4580  -15.7505 H       1  UNL1        0.1496
     11 C         -27.2944   -3.9823  -17.9840 C.3     1  UNL1        0.0196
     12 C         -27.5387   -3.6384  -16.4998 C.3     1  UNL1        0.0572
     13 C         -29.0333   -3.8521  -16.1893 C.3     1  UNL1        0.0196
     14 C         -27.1485   -2.1651  -16.2696 C.3     1  UNL1        0.0196
     15 N         -22.6875   -7.4204  -14.0389 N.pl3   1  UNL1       -0.2120
     16 H         -22.0982   -6.8806  -13.3693 H       1  UNL1        0.1738
     17 S         -21.8488   -8.0925  -15.4045 S.O2    1  UNL1        0.0745
     18 O         -22.1476   -7.2721  -16.6282 O.2     1  UNL1       -0.1499
     19 O         -20.3737   -8.0236  -15.1286 O.2     1  UNL1       -0.1499
     20 C         -22.2874   -9.7863  -15.6616 C.ar    1  UNL1        0.1356
     21 C         -21.8068  -10.7668  -14.7846 C.ar    1  UNL1        0.0207
     22 C         -22.1040  -12.1153  -14.9882 C.ar    1  UNL1       -0.0028
     23 C         -22.8912  -12.5160  -16.0868 C.ar    1  UNL1       -0.0207
     24 C         -23.3650  -11.5316  -16.9673 C.ar    1  UNL1        0.0085
     25 C         -23.0689  -10.1785  -16.7659 C.ar    1  UNL1        0.0762
     26 CL        -23.6757   -9.0127  -17.9372 Cl      1  UNL1       -0.0809
     27 C         -23.2408  -13.9626  -16.3908 C.3     1  UNL1        0.0329
     28 C         -23.2536  -14.9183  -15.2020 C.3     1  UNL1        0.0160
     29 C         -24.5638  -14.5008  -15.8609 C.3     1  UNL1        0.0482
     30 S         -25.2936  -15.7985  -16.9076 S.3     1  UNL1       -0.1685
     31 H         -25.9287  -16.4043  -15.8075 H       1  UNL1        0.1023
     32 O         -23.8969   -9.5271  -12.4997 O.3     1  UNL1       -0.4513
     33 C         -22.8756   -9.3764  -11.5493 C.ar    1  UNL1        0.1580
     34 C         -21.5820   -9.0821  -11.9959 C.ar    1  UNL1        0.0677
     35 C         -20.5130   -9.0285  -11.0965 C.ar    1  UNL1        0.1398
     36 F         -19.2603   -8.8141  -11.5726 F       1  UNL1       -0.2044
     37 C         -20.7374   -9.2191   -9.7217 C.ar    1  UNL1        0.0175
     38 C         -22.0452   -9.4425   -9.2657 C.ar    1  UNL1        0.0130
     39 C         -23.1122   -9.5196  -10.1651 C.ar    1  UNL1        0.0919
     40 CL        -24.7259   -9.7664   -9.5105 Cl      1  UNL1       -0.0791
     41 C         -19.5964   -9.2553   -8.7397 C.3     1  UNL1        0.1382
     42 C         -19.7619   -8.1516   -7.7450 C.2     1  UNL1        0.3234
     43 O         -19.6624   -6.9516   -8.1205 O.2     1  UNL1       -0.2497
     44 O         -20.1029   -8.4605   -6.4249 O.3     1  UNL1       -0.4215
     45 C         -19.3335   -8.0255   -5.3068 C.3     1  UNL1        0.3207
     46 O         -17.9914   -8.4530   -5.4683 O.3     1  UNL1       -0.3070
     47 C         -17.1755   -7.9140   -4.4417 C.3     1  UNL1        0.2456
     48 C         -17.6008   -8.4741   -3.0639 C.3     1  UNL1        0.1781
     49 O         -16.8079   -7.9385   -2.0324 O.3     1  UNL1       -0.3790
     50 C         -19.0942   -8.1813   -2.8106 C.3     1  UNL1        0.1733
     51 O         -19.5338   -8.8679   -1.6674 O.3     1  UNL1       -0.3793
     52 C         -19.9312   -8.6227   -4.0198 C.3     1  UNL1        0.2106
     53 O         -21.2533   -8.1816   -3.8507 O.3     1  UNL1       -0.3766
     54 H         -16.9265   -6.9524   -2.0425 H       1  UNL1        0.2106
     55 H         -19.2219   -8.3471   -0.8818 H       1  UNL1        0.2105
     56 H         -21.8223   -8.7392   -4.4429 H       1  UNL1        0.2107
     57 C         -15.7419   -8.2668   -4.7233 C.2     1  UNL1        0.3439
     58 O         -15.3438   -9.4533   -4.5804 O.2     1  UNL1       -0.2475
     59 O         -14.8299   -7.2829   -5.0956 O.3     1  UNL1       -0.4785
     60 H         -15.1106   -6.3145   -5.1936 H       1  UNL1        0.2951
@<TRIPOS>BOND
     1    11    12    1
     2    12    13    1
     3    12    14    1
     4    12     7    1
     5     7     8   am
     6     8     9    2
     7     8     1    1
     8     1     2   ar
     9     2     3   ar
    10     3     4   ar
    11     4    32    1
    12    32    33    1
    13    33    34   ar
    14    34    35   ar
    15    35    36    1
    16    35    37   ar
    17    37    41    1
    18    41    42    1
    19    42    43    2
    20    42    44    1
    21    44    45    1
    22    45    46    1
    23    46    47    1
    24    47    57    1
    25    57    58    2
    26    57    59    1
    27    47    48    1
    28    48    49    1
    29    48    50    1
    30    50    51    1
    31    50    52    1
    32    52    53    1
    33    37    38   ar
    34    38    39   ar
    35    39    40    1
    36     4     5   ar
    37     5    15    1
    38    15    17    1
    39    17    18    2
    40    17    19    2
    41    17    20    1
    42    20    21   ar
    43    21    22   ar
    44    22    23   ar
    45    23    27    1
    46    27    28    1
    47    28    29    1
    48    29    30    1
    49    23    24   ar
    50    24    25   ar
    51    25    26    1
    52     5     6   ar
    53     6     1   ar
    54    39    33   ar
    55    25    20   ar
    56    52    45    1
    57    29    27    1
    58     7    10    1
    59    59    60    1
    60    49    54    1
    61    51    55    1
    62    53    56    1
    63    15    16    1
    64    30    31    1
