@<TRIPOS>MOLECULE
*****
 52 58 0 0 0
SMALL
GASTEIGER

@<TRIPOS>ATOM
      1 C          60.3058   87.3057   10.4252 C.ar    1  UNL1        0.0481
      2 C          59.2209   86.6164   10.9964 C.ar    1  UNL1        0.0176
      3 C          59.4173   85.7563   12.0798 C.ar    1  UNL1        0.0382
      4 C          60.6944   85.5638   12.6155 C.ar    1  UNL1        0.1388
      5 C          61.7836   86.2548   12.0522 C.ar    1  UNL1        0.0382
      6 C          61.5888   87.1163   10.9689 C.ar    1  UNL1        0.0176
      7 N          59.8752   89.8727    7.0070 N.pl3   1  UNL1       -0.3041
      8 C          60.1528   90.4764    8.3184 C.3     1  UNL1        0.1122
      9 C          60.8413   89.4705    9.2462 C.3     1  UNL1        0.1122
     10 N          60.1060   88.1975    9.3053 N.pl3   1  UNL1       -0.3041
     11 C          59.1094   87.8776    8.2729 C.3     1  UNL1        0.1122
     12 C          59.5314   88.4451    6.9141 C.3     1  UNL1        0.1122
     13 C          59.8120   92.3031    3.4927 C.ar    1  UNL1        0.0699
     14 C          61.0149   91.7407    3.9496 C.ar    1  UNL1        0.0190
     15 C          61.0361   90.9433    5.0969 C.ar    1  UNL1        0.0160
     16 C          59.8544   90.6940    5.8176 C.ar    1  UNL1        0.0480
     17 C          58.6532   91.2681    5.3653 C.ar    1  UNL1        0.0160
     18 C          58.6324   92.0636    4.2166 C.ar    1  UNL1        0.0190
     19 N          59.6550   93.8436    0.2063 N.ar    1  UNL1       -0.2024
     20 N          59.9688   94.8925    0.9527 N.ar    1  UNL1       -0.1442
     21 C          60.0511   94.4518    2.2261 C.ar    1  UNL1        0.2073
     22 N          59.7977   93.1272    2.3109 N.ar    1  UNL1       -0.2398
     23 C          59.5659   92.7775    1.0300 C.ar    1  UNL1        0.3522
     24 O          59.3445   91.5971    0.6477 O.2     1  UNL1       -0.2444
     25 C          59.5368   93.9117   -1.2583 C.3     1  UNL1        0.1099
     26 C          60.6392   94.7682   -1.9003 C.3     1  UNL1        0.0265
     27 C          57.0554   93.2315   -1.5366 C.3     1  UNL1        0.0021
     28 C          58.1149   94.3233   -1.6979 C.3     1  UNL1        0.0245
     29 O          60.8306   84.6817   13.7001 O.3     1  UNL1       -0.4727
     30 C          60.8540   83.2573   13.6112 C.3     1  UNL1        0.2373
     31 C          59.7270   82.7187   12.7002 C.3     1  UNL1        0.1883
     32 O          59.9356   83.2263   11.4167 O.3     1  UNL1       -0.3270
     33 C          60.4881   82.1727   10.6476 C.3     1  UNL1        0.2079
     34 O          60.5917   81.0088   11.4486 O.3     1  UNL1       -0.3307
     35 C          59.7000   81.2150   12.4968 C.3     1  UNL1        0.1487
     36 C          59.6144   81.8479    9.4256 C.ar    1  UNL1        0.0390
     37 C          60.1462   80.9683    8.4569 C.ar    1  UNL1        0.0021
     38 C          59.4259   80.6322    7.3107 C.ar    1  UNL1        0.0113
     39 C          58.1614   81.1747    7.0956 C.ar    1  UNL1        0.0585
     40 CL         57.2584   80.7521    5.6523 Cl      1  UNL1       -0.0822
     41 C          57.6192   82.0622    8.0246 C.ar    1  UNL1        0.0226
     42 C          58.3284   82.4125    9.1815 C.ar    1  UNL1        0.0590
     43 CL         57.5419   83.5762   10.2459 Cl      1  UNL1       -0.0824
     44 C          60.0318   80.3211   13.7223 C.3     1  UNL1        0.0299
     45 C          59.0366   79.1546   13.8305 C.3     1  UNL1        0.0026
     46 C          61.4574   79.7582   13.6164 C.3     1  UNL1        0.0026
     47 C          61.9190   82.5547   10.1948 C.3     1  UNL1        0.0609
     48 C          62.0583   83.9810    9.6107 C.3     1  UNL1        0.0052
     49 C          61.2488   84.1438    8.3298 C.3     1  UNL1        0.0002
     50 C          61.9079   85.2896    7.5774 C.3     1  UNL1        0.0000
     51 C          63.3516   85.3592    8.0702 C.3     1  UNL1        0.0000
     52 C          63.4854   84.3412    9.1981 C.3     1  UNL1        0.0002
@<TRIPOS>BOND
     1    27    28    1
     2    28    25    1
     3    25    26    1
     4    25    19    1
     5    19    20   ar
     6    20    21   ar
     7    21    22   ar
     8    22    13    1
     9    13    14   ar
    10    14    15   ar
    11    15    16   ar
    12    16     7    1
    13     7     8    1
    14     8     9    1
    15     9    10    1
    16    10     1    1
    17     1     2   ar
    18     2     3   ar
    19     3     4   ar
    20     4    29    1
    21    29    30    1
    22    30    31    1
    23    31    32    1
    24    32    33    1
    25    33    47    1
    26    47    48    1
    27    48    49    1
    28    49    50    1
    29    50    51    1
    30    51    52    1
    31    33    36    1
    32    36    37   ar
    33    37    38   ar
    34    38    39   ar
    35    39    40    1
    36    39    41   ar
    37    41    42   ar
    38    42    43    1
    39    33    34    1
    40    34    35    1
    41    35    44    1
    42    44    45    1
    43    44    46    1
    44     4     5   ar
    45     5     6   ar
    46    10    11    1
    47    11    12    1
    48    16    17   ar
    49    17    18   ar
    50    22    23   ar
    51    23    24    2
    52    23    19   ar
    53    18    13   ar
    54    12     7    1
    55     6     1   ar
    56    35    31    1
    57    52    48    1
    58    42    36   ar
@<TRIPOS>MOLECULE
*****
 52 58 0 0 0
SMALL
GASTEIGER

@<TRIPOS>ATOM
      1 C          59.9904   87.4017   10.3990 C.ar    1  UNL1        0.0481
      2 C          58.8572   86.9507   11.0995 C.ar    1  UNL1        0.0176
      3 C          58.9953   86.1143   12.2101 C.ar    1  UNL1        0.0382
      4 C          60.2609   85.7092   12.6451 C.ar    1  UNL1        0.1388
      5 C          61.3994   86.1614   11.9520 C.ar    1  UNL1        0.0382
      6 C          61.2631   86.9989   10.8413 C.ar    1  UNL1        0.0176
      7 N          59.7571   89.9096    6.9183 N.pl3   1  UNL1       -0.3041
      8 C          59.8108   90.5395    8.2456 C.3     1  UNL1        0.1122
      9 C          60.4673   89.6045    9.2660 C.3     1  UNL1        0.1122
     10 N          59.8513   88.2684    9.2506 N.pl3   1  UNL1       -0.3041
     11 C          59.0262   87.8544    8.1064 C.3     1  UNL1        0.1122
     12 C          59.5612   88.4559    6.8032 C.3     1  UNL1        0.1122
     13 C          59.9120   92.3159    3.3904 C.ar    1  UNL1        0.0699
     14 C          61.0724   91.6980    3.8839 C.ar    1  UNL1        0.0190
     15 C          61.0222   90.9084    5.0358 C.ar    1  UNL1        0.0160
     16 C          59.8101   90.7226    5.7244 C.ar    1  UNL1        0.0480
     17 C          58.6518   91.3523    5.2354 C.ar    1  UNL1        0.0160
     18 C          58.7023   92.1399    4.0821 C.ar    1  UNL1        0.0190
     19 N          59.9281   93.8385    0.0919 N.ar    1  UNL1       -0.2024
     20 N          60.2615   94.8785    0.8424 N.ar    1  UNL1       -0.1442
     21 C          60.2833   94.4437    2.1202 C.ar    1  UNL1        0.2073
     22 N          59.9713   93.1316    2.2040 N.ar    1  UNL1       -0.2398
     23 C          59.7669   92.7829    0.9182 C.ar    1  UNL1        0.3522
     24 O          59.5084   91.6103    0.5355 O.2     1  UNL1       -0.2444
     25 C          59.8609   93.9013   -1.3762 C.3     1  UNL1        0.1099
     26 C          58.8232   92.9310   -1.9616 C.3     1  UNL1        0.0265
     27 C          62.3852   93.4459   -1.0318 C.3     1  UNL1        0.0021
     28 C          61.2577   93.7562   -2.0184 C.3     1  UNL1        0.0245
     29 O          60.3362   84.8624   13.7633 O.3     1  UNL1       -0.4727
     30 C          60.4535   83.4405   13.7189 C.3     1  UNL1        0.2373
     31 C          59.4247   82.8078   12.7538 C.3     1  UNL1        0.1883
     32 O          59.5834   83.4105   11.5047 O.3     1  UNL1       -0.3270
     33 C          60.2860   82.4859   10.6934 C.3     1  UNL1        0.2079
     34 O          60.5332   81.3030   11.4328 O.3     1  UNL1       -0.3307
     35 C          59.6049   81.3280   12.4692 C.3     1  UNL1        0.1487
     36 C          59.4843   82.1163    9.4353 C.ar    1  UNL1        0.0390
     37 C          60.0756   81.2123    8.5253 C.ar    1  UNL1        0.0021
     38 C          59.4229   80.8350    7.3518 C.ar    1  UNL1        0.0113
     39 C          58.1685   81.3595    7.0501 C.ar    1  UNL1        0.0585
     40 CL         57.3506   80.8851    5.5725 Cl      1  UNL1       -0.0822
     41 C          57.5689   82.2700    7.9196 C.ar    1  UNL1        0.0226
     42 C          58.2098   82.6617    9.1028 C.ar    1  UNL1        0.0590
     43 CL         57.3568   83.8503   10.0853 Cl      1  UNL1       -0.0824
     44 C          60.0348   80.4190   13.6523 C.3     1  UNL1        0.0299
     45 C          59.1015   79.2034   13.7718 C.3     1  UNL1        0.0026
     46 C          61.4788   79.9283   13.4661 C.3     1  UNL1        0.0026
     47 C          61.6591   83.0816   10.2958 C.3     1  UNL1        0.0609
     48 C          62.8601   82.5541   11.1169 C.3     1  UNL1        0.0052
     49 C          63.0453   83.3414   12.4086 C.3     1  UNL1        0.0002
     50 C          64.5058   83.1555   12.7901 C.3     1  UNL1        0.0000
     51 C          65.2529   82.8245   11.5001 C.3     1  UNL1        0.0000
     52 C          64.2037   82.6911   10.4010 C.3     1  UNL1        0.0002
@<TRIPOS>BOND
     1    27    28    1
     2    28    25    1
     3    25    26    1
     4    25    19    1
     5    19    20   ar
     6    20    21   ar
     7    21    22   ar
     8    22    13    1
     9    13    14   ar
    10    14    15   ar
    11    15    16   ar
    12    16     7    1
    13     7     8    1
    14     8     9    1
    15     9    10    1
    16    10     1    1
    17     1     2   ar
    18     2     3   ar
    19     3     4   ar
    20     4    29    1
    21    29    30    1
    22    30    31    1
    23    31    32    1
    24    32    33    1
    25    33    47    1
    26    47    48    1
    27    48    49    1
    28    49    50    1
    29    50    51    1
    30    51    52    1
    31    33    36    1
    32    36    37   ar
    33    37    38   ar
    34    38    39   ar
    35    39    40    1
    36    39    41   ar
    37    41    42   ar
    38    42    43    1
    39    33    34    1
    40    34    35    1
    41    35    44    1
    42    44    45    1
    43    44    46    1
    44     4     5   ar
    45     5     6   ar
    46    10    11    1
    47    11    12    1
    48    16    17   ar
    49    17    18   ar
    50    22    23   ar
    51    23    24    2
    52    23    19   ar
    53    18    13   ar
    54    12     7    1
    55     6     1   ar
    56    35    31    1
    57    52    48    1
    58    42    36   ar
