@<TRIPOS>MOLECULE
*****
 44 48 0 0 0
SMALL
GASTEIGER

@<TRIPOS>ATOM
      1 C         -26.9642   51.4524   -8.1728 C.3     1  UNL1        0.1562
      2 C         -27.2996   52.2871   -6.9305 C.3     1  UNL1        0.0622
      3 C         -28.1802   51.3894   -6.0431 C.3     1  UNL1        0.1294
      4 O         -29.2132   52.1610   -5.4760 O.3     1  UNL1       -0.3808
      5 C         -28.7949   50.3641   -7.0210 C.3     1  UNL1        0.1264
      6 N         -27.9425   50.3735   -8.2003 N.am    1  UNL1       -0.2544
      7 C         -27.9587   49.3400   -9.2028 C.2     1  UNL1        0.3081
      8 O         -26.9946   49.2420  -10.0101 O.2     1  UNL1       -0.2522
      9 N         -29.0636   48.4242   -9.2922 N.am    1  UNL1       -0.2663
     10 H         -29.7994   51.5410   -4.9663 H       1  UNL1        0.2107
     11 H         -29.6630   48.2762   -8.4509 H       1  UNL1        0.1565
     12 C         -27.3083   50.7408   -4.9516 C.ar    1  UNL1        0.0310
     13 C         -26.2448   51.4568   -4.3555 C.ar    1  UNL1        0.0026
     14 C         -25.4843   50.8907   -3.3297 C.ar    1  UNL1        0.0295
     15 C         -25.7859   49.6149   -2.8558 C.ar    1  UNL1        0.1424
     16 F         -25.0488   49.0701   -1.8568 F       1  UNL1       -0.2041
     17 C         -26.8616   48.9096   -3.3947 C.ar    1  UNL1        0.0590
     18 C         -27.6304   49.4671   -4.4217 C.ar    1  UNL1        0.1406
     19 F         -28.7013   48.7655   -4.8712 F       1  UNL1       -0.2044
     20 C         -29.3944   47.6882  -10.4826 C.ar    1  UNL1        0.0793
     21 C         -28.8907   46.3921  -10.7017 C.ar    1  UNL1        0.0179
     22 C         -29.1920   45.7071  -11.8823 C.ar    1  UNL1        0.0128
     23 C         -29.9875   46.3108  -12.8604 C.ar    1  UNL1        0.0600
     24 CL        -30.3618   45.4501  -14.3422 Cl      1  UNL1       -0.0822
     25 C         -30.4756   47.6055  -12.6603 C.ar    1  UNL1        0.0423
     26 C         -30.1755   48.2955  -11.4813 C.ar    1  UNL1        0.1543
     27 F         -30.6570   49.5520  -11.3064 F       1  UNL1       -0.2028
     28 O         -28.0191   52.9468   -9.7152 O.2     1  UNL1       -0.2730
     29 C         -26.9828   52.2852   -9.4402 C.2     1  UNL1        0.2454
     30 N         -25.9074   52.2569  -10.3909 N.am    1  UNL1       -0.2680
     31 H         -26.1433   52.2679  -11.4086 H       1  UNL1        0.1563
     32 C         -24.5292   52.2174  -10.0136 C.ar    1  UNL1        0.1346
     33 C         -24.1051   51.3695   -8.9859 C.ar    1  UNL1        0.0406
     34 C         -22.7574   51.3564   -8.6219 C.ar    1  UNL1        0.0736
     35 C         -21.8381   52.1731   -9.2981 C.ar    1  UNL1        0.2466
     36 C         -22.3003   52.9713  -10.3549 C.ar    1  UNL1        0.1691
     37 N         -23.6189   52.9752  -10.6819 N.ar    1  UNL1       -0.2228
     38 N         -20.4467   52.1851   -8.9208 N.am    1  UNL1       -0.0841
     39 C         -20.0884   52.7615   -7.7320 C.2     1  UNL1        0.2905
     40 C         -18.7530   52.7843   -7.3250 C.2     1  UNL1        0.0758
     41 C         -17.7788   52.2157   -8.1413 C.2     1  UNL1        0.0161
     42 C         -18.1457   51.6357   -9.3537 C.2     1  UNL1        0.1156
     43 C         -19.4909   51.6300   -9.7379 C.2     1  UNL1        0.4230
     44 O         -19.8073   51.1228  -10.8493 O.2     1  UNL1       -0.2135
@<TRIPOS>BOND
     1    28    29    2
     2    29    30   am
     3    30    32    1
     4    32    33   ar
     5    33    34   ar
     6    34    35   ar
     7    35    38    1
     8    38    39    1
     9    39    40    2
    10    40    41    1
    11    41    42    2
    12    42    43    1
    13    43    44    2
    14    35    36   ar
    15    36    37   ar
    16    29     1    1
    17     1     2    1
    18     2     3    1
    19     3     4    1
    20     3    12    1
    21    12    13   ar
    22    13    14   ar
    23    14    15   ar
    24    15    16    1
    25    15    17   ar
    26    17    18   ar
    27    18    19    1
    28     3     5    1
    29     5     6    1
    30     6     7   am
    31     7     8    2
    32     7     9   am
    33     9    20    1
    34    20    21   ar
    35    21    22   ar
    36    22    23   ar
    37    23    24    1
    38    23    25   ar
    39    25    26   ar
    40    26    27    1
    41    37    32   ar
    42     6     1    1
    43    26    20   ar
    44    43    38    1
    45    18    12   ar
    46    30    31    1
    47     4    10    1
    48     9    11    1
@<TRIPOS>MOLECULE
*****
 44 48 0 0 0
SMALL
GASTEIGER

@<TRIPOS>ATOM
      1 C         -28.6157   49.7575   -5.3718 C.3     1  UNL1        0.1562
      2 C         -29.5902   48.6120   -5.0706 C.3     1  UNL1        0.0622
      3 C         -28.9383   47.3409   -5.6433 C.3     1  UNL1        0.1294
      4 O         -29.9261   46.5416   -6.2512 O.3     1  UNL1       -0.3808
      5 C         -27.9701   47.8593   -6.7292 C.3     1  UNL1        0.1264
      6 N         -27.7339   49.2614   -6.4199 N.am    1  UNL1       -0.2544
      7 C         -26.6470   50.0268   -6.9730 C.2     1  UNL1        0.3081
      8 O         -26.3137   51.1153   -6.4300 O.2     1  UNL1       -0.2522
      9 N         -25.9434   49.5627   -8.1380 N.am    1  UNL1       -0.2663
     10 H         -29.4641   45.7664   -6.6675 H       1  UNL1        0.2107
     11 H         -25.9718   48.5458   -8.3703 H       1  UNL1        0.1565
     12 C         -28.2275   46.5785   -4.5095 C.ar    1  UNL1        0.0310
     13 C         -26.8158   46.5356   -4.4414 C.ar    1  UNL1        0.0026
     14 C         -26.1673   45.8887   -3.3867 C.ar    1  UNL1        0.0295
     15 C         -26.9089   45.2995   -2.3640 C.ar    1  UNL1        0.1424
     16 F         -26.2764   44.6765   -1.3392 F       1  UNL1       -0.2041
     17 C         -28.3015   45.3724   -2.3842 C.ar    1  UNL1        0.0590
     18 C         -28.9612   46.0183   -3.4350 C.ar    1  UNL1        0.1406
     19 F         -30.3136   46.1130   -3.3782 F       1  UNL1       -0.2044
     20 C         -25.1909   50.4236   -9.0102 C.ar    1  UNL1        0.0793
     21 C         -25.6016   50.6563  -10.3364 C.ar    1  UNL1        0.0179
     22 C         -24.8366   51.4656  -11.1813 C.ar    1  UNL1        0.0128
     23 C         -23.6501   52.0406  -10.7172 C.ar    1  UNL1        0.0600
     24 CL        -22.6907   53.0535  -11.7804 Cl      1  UNL1       -0.0822
     25 C         -23.2240   51.7987   -9.4079 C.ar    1  UNL1        0.0423
     26 C         -23.9851   50.9884   -8.5592 C.ar    1  UNL1        0.1543
     27 F         -23.5539   50.7640   -7.2924 F       1  UNL1       -0.2028
     28 O         -29.0869   52.0929   -5.1496 O.2     1  UNL1       -0.2730
     29 C         -29.3385   51.0286   -5.7750 C.2     1  UNL1        0.2454
     30 N         -30.3778   51.0371   -6.7654 N.am    1  UNL1       -0.2680
     31 H         -31.2164   51.6379   -6.6006 H       1  UNL1        0.1563
     32 C         -30.3204   50.2660   -7.9677 C.ar    1  UNL1        0.1346
     33 C         -29.4338   50.6204   -8.9891 C.ar    1  UNL1        0.0406
     34 C         -29.4034   49.8637  -10.1619 C.ar    1  UNL1        0.0736
     35 C         -30.2418   48.7470  -10.3006 C.ar    1  UNL1        0.2466
     36 C         -31.0800   48.4002   -9.2305 C.ar    1  UNL1        0.1691
     37 N         -31.0997   49.1599   -8.1044 N.ar    1  UNL1       -0.2228
     38 N         -30.2358   47.9672  -11.5132 N.am    1  UNL1       -0.0841
     39 C         -30.7825   48.5039  -12.6477 C.2     1  UNL1        0.2905
     40 C         -30.7870   47.7858  -13.8450 C.2     1  UNL1        0.0758
     41 C         -30.2305   46.5099  -13.8802 C.2     1  UNL1        0.0161
     42 C         -29.6809   45.9638  -12.7223 C.2     1  UNL1        0.1156
     43 C         -29.6930   46.7047  -11.5356 C.2     1  UNL1        0.4230
     44 O         -29.2134   46.1895  -10.4882 O.2     1  UNL1       -0.2135
@<TRIPOS>BOND
     1    28    29    2
     2    29    30   am
     3    30    32    1
     4    32    33   ar
     5    33    34   ar
     6    34    35   ar
     7    35    38    1
     8    38    39    1
     9    39    40    2
    10    40    41    1
    11    41    42    2
    12    42    43    1
    13    43    44    2
    14    35    36   ar
    15    36    37   ar
    16    29     1    1
    17     1     2    1
    18     2     3    1
    19     3     4    1
    20     3    12    1
    21    12    13   ar
    22    13    14   ar
    23    14    15   ar
    24    15    16    1
    25    15    17   ar
    26    17    18   ar
    27    18    19    1
    28     3     5    1
    29     5     6    1
    30     6     7   am
    31     7     8    2
    32     7     9   am
    33     9    20    1
    34    20    21   ar
    35    21    22   ar
    36    22    23   ar
    37    23    24    1
    38    23    25   ar
    39    25    26   ar
    40    26    27    1
    41    37    32   ar
    42     6     1    1
    43    26    20   ar
    44    43    38    1
    45    18    12   ar
    46    30    31    1
    47     4    10    1
    48     9    11    1
@<TRIPOS>MOLECULE
*****
 44 48 0 0 0
SMALL
GASTEIGER

@<TRIPOS>ATOM
      1 C         -27.9519   49.9270   -6.7318 C.3     1  UNL1        0.1562
      2 C         -28.2791   49.8729   -5.2343 C.3     1  UNL1        0.0622
      3 C         -28.6886   48.4181   -4.9433 C.3     1  UNL1        0.1294
      4 O         -29.7774   48.4083   -4.0496 O.3     1  UNL1       -0.3808
      5 C         -29.1525   47.8672   -6.3096 C.3     1  UNL1        0.1264
      6 N         -28.5689   48.7430   -7.3144 N.am    1  UNL1       -0.2544
      7 C         -28.4718   48.4007   -8.7097 C.2     1  UNL1        0.3081
      8 O         -27.6845   49.0456   -9.4546 O.2     1  UNL1       -0.2522
      9 N         -29.2658   47.3350   -9.2588 N.am    1  UNL1       -0.2663
     10 H         -30.0585   47.4617   -3.9367 H       1  UNL1        0.2107
     11 H         -29.6336   46.5998   -8.6161 H       1  UNL1        0.1565
     12 C         -27.4837   47.6574   -4.3590 C.ar    1  UNL1        0.0310
     13 C         -26.7846   46.7047   -5.1354 C.ar    1  UNL1        0.0026
     14 C         -25.6603   46.0500   -4.6270 C.ar    1  UNL1        0.0295
     15 C         -25.1913   46.3522   -3.3495 C.ar    1  UNL1        0.1424
     16 F         -24.0969   45.7184   -2.8606 F       1  UNL1       -0.2041
     17 C         -25.8352   47.3244   -2.5845 C.ar    1  UNL1        0.0590
     18 C         -26.9615   47.9867   -3.0840 C.ar    1  UNL1        0.1406
     19 F         -27.5163   48.9651   -2.3249 F       1  UNL1       -0.2044
     20 C         -29.5841   47.2169  -10.6563 C.ar    1  UNL1        0.0793
     21 C         -30.3021   48.2244  -11.3279 C.ar    1  UNL1        0.0179
     22 C         -30.6357   48.0747  -12.6770 C.ar    1  UNL1        0.0128
     23 C         -30.2680   46.9156  -13.3663 C.ar    1  UNL1        0.0600
     24 CL        -30.6902   46.7291  -15.0585 Cl      1  UNL1       -0.0822
     25 C         -29.5723   45.9010  -12.7022 C.ar    1  UNL1        0.0423
     26 C         -29.2377   46.0455  -11.3519 C.ar    1  UNL1        0.1543
     27 F         -28.5639   45.0487  -10.7244 F       1  UNL1       -0.2028
     28 O         -29.4808   51.7576   -6.9234 O.2     1  UNL1       -0.2730
     29 C         -28.4391   51.2114   -7.3748 C.2     1  UNL1        0.2454
     30 N         -27.8210   51.7630   -8.5473 N.am    1  UNL1       -0.2680
     31 H         -28.4347   52.1756   -9.2852 H       1  UNL1        0.1563
     32 C         -26.4066   51.7783   -8.7536 C.ar    1  UNL1        0.1346
     33 C         -25.5817   50.9055   -8.0376 C.ar    1  UNL1        0.0406
     34 C         -24.2013   50.9462   -8.2422 C.ar    1  UNL1        0.0736
     35 C         -23.6542   51.8420   -9.1736 C.ar    1  UNL1        0.2466
     36 C         -24.5243   52.6646   -9.9044 C.ar    1  UNL1        0.1691
     37 N         -25.8629   52.6144   -9.6781 N.ar    1  UNL1       -0.2228
     38 N         -22.2293   51.9093   -9.3819 N.am    1  UNL1       -0.0841
     39 C         -21.4180   52.1981   -8.3177 C.2     1  UNL1        0.2905
     40 C         -20.0321   52.2621   -8.4750 C.2     1  UNL1        0.0758
     41 C         -19.4742   52.0314   -9.7297 C.2     1  UNL1        0.0161
     42 C         -20.3029   51.7442  -10.8121 C.2     1  UNL1        0.1156
     43 C         -21.6885   51.6898  -10.6262 C.2     1  UNL1        0.4230
     44 O         -22.4298   51.4522  -11.6195 O.2     1  UNL1       -0.2135
@<TRIPOS>BOND
     1    28    29    2
     2    29    30   am
     3    30    32    1
     4    32    33   ar
     5    33    34   ar
     6    34    35   ar
     7    35    38    1
     8    38    39    1
     9    39    40    2
    10    40    41    1
    11    41    42    2
    12    42    43    1
    13    43    44    2
    14    35    36   ar
    15    36    37   ar
    16    29     1    1
    17     1     2    1
    18     2     3    1
    19     3     4    1
    20     3    12    1
    21    12    13   ar
    22    13    14   ar
    23    14    15   ar
    24    15    16    1
    25    15    17   ar
    26    17    18   ar
    27    18    19    1
    28     3     5    1
    29     5     6    1
    30     6     7   am
    31     7     8    2
    32     7     9   am
    33     9    20    1
    34    20    21   ar
    35    21    22   ar
    36    22    23   ar
    37    23    24    1
    38    23    25   ar
    39    25    26   ar
    40    26    27    1
    41    37    32   ar
    42     6     1    1
    43    26    20   ar
    44    43    38    1
    45    18    12   ar
    46    30    31    1
    47     4    10    1
    48     9    11    1
@<TRIPOS>MOLECULE
*****
 44 48 0 0 0
SMALL
GASTEIGER

@<TRIPOS>ATOM
      1 C         -27.3331   50.4250   -7.8360 C.3     1  UNL1        0.1562
      2 C         -28.8069   50.1989   -8.1957 C.3     1  UNL1        0.0622
      3 C         -28.8248   49.8212   -9.6876 C.3     1  UNL1        0.1294
      4 O         -29.9178   50.4491  -10.3162 O.3     1  UNL1       -0.3808
      5 C         -27.5127   50.4100  -10.2506 C.3     1  UNL1        0.1264
      6 N         -26.6418   50.6184   -9.1036 N.am    1  UNL1       -0.2544
      7 C         -25.2222   50.8341   -9.2103 C.2     1  UNL1        0.3081
      8 O         -24.4929   50.6877   -8.1918 O.2     1  UNL1       -0.2522
      9 N         -24.6323   51.2173  -10.4644 N.am    1  UNL1       -0.2663
     10 H         -29.8610   50.2399  -11.2861 H       1  UNL1        0.2107
     11 H         -25.1458   51.0036  -11.3474 H       1  UNL1        0.1565
     12 C         -28.9108   48.2895   -9.8237 C.ar    1  UNL1        0.0310
     13 C         -27.7389   47.4986   -9.8442 C.ar    1  UNL1        0.0026
     14 C         -27.8142   46.1056   -9.9159 C.ar    1  UNL1        0.0295
     15 C         -29.0551   45.4710   -9.9373 C.ar    1  UNL1        0.1424
     16 F         -29.1248   44.1185  -10.0022 F       1  UNL1       -0.2041
     17 C         -30.2244   46.2280   -9.8678 C.ar    1  UNL1        0.0590
     18 C         -30.1607   47.6235   -9.7950 C.ar    1  UNL1        0.1406
     19 F         -31.3242   48.3104   -9.6700 F       1  UNL1       -0.2044
     20 C         -23.3615   51.8809  -10.5778 C.ar    1  UNL1        0.0793
     21 C         -22.1859   51.1604  -10.8614 C.ar    1  UNL1        0.0179
     22 C         -20.9538   51.8172  -10.9298 C.ar    1  UNL1        0.0128
     23 C         -20.8795   53.1947  -10.7048 C.ar    1  UNL1        0.0600
     24 CL        -19.3318   54.0159  -10.7885 Cl      1  UNL1       -0.0822
     25 C         -22.0389   53.9150  -10.4027 C.ar    1  UNL1        0.0423
     26 C         -23.2737   53.2621  -10.3315 C.ar    1  UNL1        0.1543
     27 F         -24.3875   53.9783  -10.0351 F       1  UNL1       -0.2028
     28 O         -27.1325   52.7630   -7.3682 O.2     1  UNL1       -0.2730
     29 C         -27.1512   51.5972   -6.8909 C.2     1  UNL1        0.2454
     30 N         -26.8876   51.4184   -5.4910 N.am    1  UNL1       -0.2680
     31 H         -26.1960   52.0518   -5.0307 H       1  UNL1        0.1563
     32 C         -27.5271   50.4179   -4.6951 C.ar    1  UNL1        0.1346
     33 C         -26.7618   49.5264   -3.9372 C.ar    1  UNL1        0.0406
     34 C         -27.4047   48.5469   -3.1781 C.ar    1  UNL1        0.0736
     35 C         -28.8061   48.4753   -3.1633 C.ar    1  UNL1        0.2466
     36 C         -29.5340   49.4211   -3.9005 C.ar    1  UNL1        0.1691
     37 N         -28.8846   50.3570   -4.6407 N.ar    1  UNL1       -0.2228
     38 N         -29.4837   47.4573   -2.3999 N.am    1  UNL1       -0.0841
     39 C         -30.1043   46.4344   -3.0653 C.2     1  UNL1        0.2905
     40 C         -30.7624   45.4230   -2.3628 C.2     1  UNL1        0.0758
     41 C         -30.7871   45.4607   -0.9711 C.2     1  UNL1        0.0161
     42 C         -30.1605   46.5066   -0.2970 C.2     1  UNL1        0.1156
     43 C         -29.5113   47.5084   -1.0267 C.2     1  UNL1        0.4230
     44 O         -28.9678   48.4628   -0.4053 O.2     1  UNL1       -0.2135
@<TRIPOS>BOND
     1    28    29    2
     2    29    30   am
     3    30    32    1
     4    32    33   ar
     5    33    34   ar
     6    34    35   ar
     7    35    38    1
     8    38    39    1
     9    39    40    2
    10    40    41    1
    11    41    42    2
    12    42    43    1
    13    43    44    2
    14    35    36   ar
    15    36    37   ar
    16    29     1    1
    17     1     2    1
    18     2     3    1
    19     3     4    1
    20     3    12    1
    21    12    13   ar
    22    13    14   ar
    23    14    15   ar
    24    15    16    1
    25    15    17   ar
    26    17    18   ar
    27    18    19    1
    28     3     5    1
    29     5     6    1
    30     6     7   am
    31     7     8    2
    32     7     9   am
    33     9    20    1
    34    20    21   ar
    35    21    22   ar
    36    22    23   ar
    37    23    24    1
    38    23    25   ar
    39    25    26   ar
    40    26    27    1
    41    37    32   ar
    42     6     1    1
    43    26    20   ar
    44    43    38    1
    45    18    12   ar
    46    30    31    1
    47     4    10    1
    48     9    11    1
@<TRIPOS>MOLECULE
*****
 44 48 0 0 0
SMALL
GASTEIGER

@<TRIPOS>ATOM
      1 C         -29.3950   48.6263   -8.8729 C.3     1  UNL1        0.1562
      2 C         -29.4736   49.6576  -10.0054 C.3     1  UNL1        0.0622
      3 C         -28.8343   50.9433   -9.4515 C.3     1  UNL1        0.1294
      4 O         -29.5796   52.0589   -9.8806 O.3     1  UNL1       -0.3808
      5 C         -28.9642   50.8093   -7.9183 C.3     1  UNL1        0.1264
      6 N         -29.1672   49.3927   -7.6552 N.am    1  UNL1       -0.2544
      7 C         -29.0031   48.7923   -6.3567 C.2     1  UNL1        0.3081
      8 O         -28.8792   47.5408   -6.2617 O.2     1  UNL1       -0.2522
      9 N         -28.9830   49.6061   -5.1714 N.am    1  UNL1       -0.2663
     10 H         -29.1818   52.8626   -9.4521 H       1  UNL1        0.2107
     11 H         -28.7376   50.6165   -5.2596 H       1  UNL1        0.1565
     12 C         -27.3737   51.0332   -9.9318 C.ar    1  UNL1        0.0310
     13 C         -26.3026   50.8662   -9.0241 C.ar    1  UNL1        0.0026
     14 C         -24.9772   50.8959   -9.4643 C.ar    1  UNL1        0.0295
     15 C         -24.6923   51.0612  -10.8188 C.ar    1  UNL1        0.1424
     16 F         -23.4049   51.0849  -11.2437 F       1  UNL1       -0.2041
     17 C         -25.7337   51.1781  -11.7391 C.ar    1  UNL1        0.0590
     18 C         -27.0645   51.1489  -11.3094 C.ar    1  UNL1        0.1406
     19 F         -28.0410   51.2076  -12.2498 F       1  UNL1       -0.2044
     20 C         -29.2799   49.1059   -3.8561 C.ar    1  UNL1        0.0793
     21 C         -30.5554   49.2715   -3.2842 C.ar    1  UNL1        0.0179
     22 C         -30.8143   48.8126   -1.9895 C.ar    1  UNL1        0.0128
     23 C         -29.8026   48.1955   -1.2484 C.ar    1  UNL1        0.0600
     24 CL        -30.1294   47.6229    0.3771 Cl      1  UNL1       -0.0822
     25 C         -28.5272   48.0446   -1.8007 C.ar    1  UNL1        0.0423
     26 C         -28.2628   48.5036   -3.0951 C.ar    1  UNL1        0.1543
     27 F         -27.0181   48.3497   -3.6130 F       1  UNL1       -0.2028
     28 O         -31.3852   47.8707   -7.7803 O.2     1  UNL1       -0.2730
     29 C         -30.6448   47.7705   -8.7947 C.2     1  UNL1        0.2454
     30 N         -30.9522   46.7724   -9.7799 N.am    1  UNL1       -0.2680
     31 H         -31.3520   45.8626   -9.4577 H       1  UNL1        0.1563
     32 C         -30.7412   46.9635  -11.1808 C.ar    1  UNL1        0.1346
     33 C         -29.8192   46.1684  -11.8682 C.ar    1  UNL1        0.0406
     34 C         -29.6163   46.3805  -13.2330 C.ar    1  UNL1        0.0736
     35 C         -30.3482   47.3696  -13.9078 C.ar    1  UNL1        0.2466
     36 C         -31.2974   48.1102  -13.1878 C.ar    1  UNL1        0.1691
     37 N         -31.4675   47.8928  -11.8576 N.ar    1  UNL1       -0.2228
     38 N         -30.1359   47.6136  -15.3127 N.am    1  UNL1       -0.0841
     39 C         -30.4429   46.6260  -16.2096 C.2     1  UNL1        0.2905
     40 C         -30.2620   46.8261  -17.5795 C.2     1  UNL1        0.0758
     41 C         -29.7618   48.0438  -18.0332 C.2     1  UNL1        0.0161
     42 C         -29.4440   49.0446  -17.1175 C.2     1  UNL1        0.1156
     43 C         -29.6323   48.8153  -15.7503 C.2     1  UNL1        0.4230
     44 O         -29.3184   49.7210  -14.9295 O.2     1  UNL1       -0.2135
@<TRIPOS>BOND
     1    28    29    2
     2    29    30   am
     3    30    32    1
     4    32    33   ar
     5    33    34   ar
     6    34    35   ar
     7    35    38    1
     8    38    39    1
     9    39    40    2
    10    40    41    1
    11    41    42    2
    12    42    43    1
    13    43    44    2
    14    35    36   ar
    15    36    37   ar
    16    29     1    1
    17     1     2    1
    18     2     3    1
    19     3     4    1
    20     3    12    1
    21    12    13   ar
    22    13    14   ar
    23    14    15   ar
    24    15    16    1
    25    15    17   ar
    26    17    18   ar
    27    18    19    1
    28     3     5    1
    29     5     6    1
    30     6     7   am
    31     7     8    2
    32     7     9   am
    33     9    20    1
    34    20    21   ar
    35    21    22   ar
    36    22    23   ar
    37    23    24    1
    38    23    25   ar
    39    25    26   ar
    40    26    27    1
    41    37    32   ar
    42     6     1    1
    43    26    20   ar
    44    43    38    1
    45    18    12   ar
    46    30    31    1
    47     4    10    1
    48     9    11    1
@<TRIPOS>MOLECULE
*****
 44 48 0 0 0
SMALL
GASTEIGER

@<TRIPOS>ATOM
      1 C         -29.7536   47.7684   -7.2828 C.3     1  UNL1        0.1562
      2 C         -30.2221   48.5633   -8.5080 C.3     1  UNL1        0.0622
      3 C         -30.3576   50.0227   -8.0385 C.3     1  UNL1        0.1294
      4 O         -31.5114   50.5931   -8.6107 O.3     1  UNL1       -0.3808
      5 C         -30.5507   49.9200   -6.5096 C.3     1  UNL1        0.1264
      6 N         -30.0519   48.6069   -6.1296 N.am    1  UNL1       -0.2544
      7 C         -29.7382   48.2358   -4.7741 C.2     1  UNL1        0.3081
      8 O         -29.0222   47.2204   -4.5575 O.2     1  UNL1       -0.2522
      9 N         -30.2363   49.0098   -3.6694 N.am    1  UNL1       -0.2663
     10 H         -31.6056   51.5087   -8.2356 H       1  UNL1        0.2107
     11 H         -30.5146   50.0017   -3.8357 H       1  UNL1        0.1565
     12 C         -29.0935   50.8058   -8.4398 C.ar    1  UNL1        0.0310
     13 C         -28.2361   51.3483   -7.4550 C.ar    1  UNL1        0.0026
     14 C         -27.0621   52.0149   -7.8137 C.ar    1  UNL1        0.0295
     15 C         -26.7024   52.1278   -9.1557 C.ar    1  UNL1        0.1424
     16 F         -25.5598   52.7713   -9.5004 F       1  UNL1       -0.2041
     17 C         -27.5072   51.5573  -10.1415 C.ar    1  UNL1        0.0590
     18 C         -28.6846   50.8870   -9.7936 C.ar    1  UNL1        0.1406
     19 F         -29.4018   50.2991  -10.7843 F       1  UNL1       -0.2044
     20 C         -30.3720   48.4958   -2.3331 C.ar    1  UNL1        0.0793
     21 C         -29.9533   47.1919   -2.0078 C.ar    1  UNL1        0.0179
     22 C         -30.1284   46.6959   -0.7127 C.ar    1  UNL1        0.0128
     23 C         -30.7326   47.4892    0.2667 C.ar    1  UNL1        0.0600
     24 CL        -30.9536   46.8634    1.8904 Cl      1  UNL1       -0.0822
     25 C         -31.1698   48.7781   -0.0524 C.ar    1  UNL1        0.0423
     26 C         -30.9983   49.2782   -1.3473 C.ar    1  UNL1        0.1543
     27 F         -31.4310   50.5310   -1.6380 F       1  UNL1       -0.2028
     28 O         -31.0479   46.1049   -6.1501 O.2     1  UNL1       -0.2730
     29 C         -30.4186   46.4078   -7.1987 C.2     1  UNL1        0.2454
     30 N         -30.2612   45.4140   -8.2228 N.am    1  UNL1       -0.2680
     31 H         -30.1446   44.4169   -7.9339 H       1  UNL1        0.1563
     32 C         -30.2593   45.7214   -9.6188 C.ar    1  UNL1        0.1346
     33 C         -29.0636   45.6962  -10.3431 C.ar    1  UNL1        0.0406
     34 C         -29.0803   46.0141  -11.7024 C.ar    1  UNL1        0.0736
     35 C         -30.2910   46.3349  -12.3352 C.ar    1  UNL1        0.2466
     36 C         -31.4726   46.3000  -11.5799 C.ar    1  UNL1        0.1691
     37 N         -31.4283   45.9992  -10.2558 N.ar    1  UNL1       -0.2228
     38 N         -30.3215   46.6843  -13.7335 N.am    1  UNL1       -0.0841
     39 C         -30.4268   45.6848  -14.6631 C.2     1  UNL1        0.2905
     40 C         -30.4704   45.9816  -16.0266 C.2     1  UNL1        0.0758
     41 C         -30.4034   47.3094  -16.4407 C.2     1  UNL1        0.0161
     42 C         -30.2896   48.3238  -15.4927 C.2     1  UNL1        0.1156
     43 C         -30.2448   47.9971  -14.1330 C.2     1  UNL1        0.4230
     44 O         -30.1177   48.9234  -13.2855 O.2     1  UNL1       -0.2135
@<TRIPOS>BOND
     1    28    29    2
     2    29    30   am
     3    30    32    1
     4    32    33   ar
     5    33    34   ar
     6    34    35   ar
     7    35    38    1
     8    38    39    1
     9    39    40    2
    10    40    41    1
    11    41    42    2
    12    42    43    1
    13    43    44    2
    14    35    36   ar
    15    36    37   ar
    16    29     1    1
    17     1     2    1
    18     2     3    1
    19     3     4    1
    20     3    12    1
    21    12    13   ar
    22    13    14   ar
    23    14    15   ar
    24    15    16    1
    25    15    17   ar
    26    17    18   ar
    27    18    19    1
    28     3     5    1
    29     5     6    1
    30     6     7   am
    31     7     8    2
    32     7     9   am
    33     9    20    1
    34    20    21   ar
    35    21    22   ar
    36    22    23   ar
    37    23    24    1
    38    23    25   ar
    39    25    26   ar
    40    26    27    1
    41    37    32   ar
    42     6     1    1
    43    26    20   ar
    44    43    38    1
    45    18    12   ar
    46    30    31    1
    47     4    10    1
    48     9    11    1
