@<TRIPOS>MOLECULE
*****
 51 57 0 0 0
SMALL
GASTEIGER

@<TRIPOS>ATOM
      1 C         -26.5049   50.1127  -10.0772 C.ar    1  UNL1        0.0360
      2 C         -25.9940   50.5047  -11.3282 C.ar    1  UNL1        0.0043
      3 C         -24.7178   51.0655  -11.4316 C.ar    1  UNL1        0.0148
      4 C         -23.9305   51.2589  -10.2841 C.ar    1  UNL1        0.0516
      5 C         -24.4270   50.8466   -9.0403 C.ar    1  UNL1        0.0148
      6 C         -25.7031   50.2865   -8.9343 C.ar    1  UNL1        0.0043
      7 N         -30.4903   47.9472  -11.8984 N.ar    1  UNL1       -0.2357
      8 N         -31.5796   47.4482  -11.3190 N.ar    1  UNL1       -0.1663
      9 C         -31.5245   47.7274   -9.9918 C.ar    1  UNL1        0.1260
     10 C         -30.3512   48.4118   -9.7423 C.ar    1  UNL1        0.0880
     11 C         -29.7223   48.8841   -8.5946 C.ar    1  UNL1        0.1380
     12 N         -28.4750   49.4248   -8.7409 N.ar    1  UNL1       -0.2117
     13 C         -27.8596   49.5181   -9.9666 C.ar    1  UNL1        0.1653
     14 N         -28.4986   49.0501  -11.0842 N.ar    1  UNL1       -0.2079
     15 C         -29.7345   48.5144  -10.9445 C.ar    1  UNL1        0.1652
     16 C         -30.1965   47.1538  -17.4723 C.2     1  UNL1        0.4050
     17 O         -29.4649   47.9122  -18.1677 O.2     1  UNL1       -0.2262
     18 N         -30.5014   47.5021  -16.1082 N.am    1  UNL1       -0.2459
     19 C         -30.0673   48.8089  -15.5883 C.3     1  UNL1        0.0987
     20 C         -30.4876   49.0076  -14.1277 C.3     1  UNL1        0.0461
     21 C         -30.1321   47.7580  -13.3073 C.3     1  UNL1        0.1102
     22 C         -30.8026   46.4771  -13.8641 C.3     1  UNL1        0.0461
     23 C         -31.3619   46.6346  -15.2891 C.3     1  UNL1        0.0987
     24 C         -29.9187   44.8126  -18.2297 C.3     1  UNL1        0.2573
     25 O         -30.7101   45.9777  -18.0303 O.3     1  UNL1       -0.4304
     26 N         -30.3262   48.7813   -7.2961 N.pl3   1  UNL1       -0.2879
     27 C         -30.2342   47.5248   -6.5478 C.3     1  UNL1        0.1242
     28 C         -30.3976   47.8086   -5.0521 C.3     1  UNL1        0.1636
     29 O         -31.5831   48.5429   -4.8081 O.3     1  UNL1       -0.3501
     30 C         -31.4894   49.8212   -5.4098 C.3     1  UNL1        0.1636
     31 C         -31.4053   49.7025   -6.9352 C.3     1  UNL1        0.1242
     32 N         -22.6054   51.8113  -10.3667 N.am    1  UNL1       -0.2681
     33 C         -22.1860   53.0068   -9.6912 C.2     1  UNL1        0.3082
     34 O         -22.9236   53.5348   -8.8150 O.2     1  UNL1       -0.2522
     35 N         -20.9191   53.5956  -10.0225 N.am    1  UNL1       -0.2681
     36 H         -21.8748   51.2629  -10.8744 H       1  UNL1        0.1564
     37 H         -20.4672   53.2965  -10.9162 H       1  UNL1        0.1564
     38 C         -20.3021   54.6579   -9.2752 C.ar    1  UNL1        0.0516
     39 C         -19.5536   54.3483   -8.1304 C.ar    1  UNL1        0.0144
     40 C         -18.9583   55.3629   -7.3760 C.ar    1  UNL1       -0.0029
     41 C         -19.1227   56.7075   -7.7430 C.ar    1  UNL1       -0.0207
     42 C         -19.8826   57.0215   -8.8798 C.ar    1  UNL1       -0.0029
     43 C         -20.4774   56.0062   -9.6345 C.ar    1  UNL1        0.0144
     44 C         -18.4431   57.7996   -6.9581 C.3     1  UNL1        0.0437
     45 C         -18.4698   59.1330   -7.7182 C.3     1  UNL1        0.0769
     46 N         -19.3929   60.0960   -7.0789 N.3     1  UNL1       -0.2681
     47 C         -19.4618   59.8655   -5.6218 C.3     1  UNL1        0.1046
     48 C         -20.2079   61.0139   -4.9133 C.3     1  UNL1        0.1595
     49 O         -20.9243   61.7988   -5.8449 O.3     1  UNL1       -0.3508
     50 C         -20.0188   62.4594   -6.7124 C.3     1  UNL1        0.1595
     51 C         -18.9969   61.4914   -7.3463 C.3     1  UNL1        0.1046
@<TRIPOS>BOND
     1    24    25    1
     2    25    16    1
     3    16    17    2
     4    16    18   am
     5    18    19    1
     6    19    20    1
     7    20    21    1
     8    21     7    1
     9     7     8   ar
    10     8     9   ar
    11     9    10   ar
    12    10    11   ar
    13    11    26    1
    14    26    27    1
    15    27    28    1
    16    28    29    1
    17    29    30    1
    18    30    31    1
    19    11    12   ar
    20    12    13   ar
    21    13     1    1
    22     1     2   ar
    23     2     3   ar
    24     3     4   ar
    25     4    32    1
    26    32    33   am
    27    33    34    2
    28    33    35   am
    29    35    38    1
    30    38    39   ar
    31    39    40   ar
    32    40    41   ar
    33    41    44    1
    34    44    45    1
    35    45    46    1
    36    46    47    1
    37    47    48    1
    38    48    49    1
    39    49    50    1
    40    50    51    1
    41    41    42   ar
    42    42    43   ar
    43     4     5   ar
    44     5     6   ar
    45    13    14   ar
    46    14    15   ar
    47    21    22    1
    48    22    23    1
    49    23    18    1
    50    15     7   ar
    51    15    10   ar
    52    31    26    1
    53     6     1   ar
    54    43    38   ar
    55    51    46    1
    56    32    36    1
    57    35    37    1
@<TRIPOS>MOLECULE
*****
 51 57 0 0 0
SMALL
GASTEIGER

@<TRIPOS>ATOM
      1 C         -25.9876   50.0636   -9.8669 C.ar    1  UNL1        0.0360
      2 C         -25.1599   50.2338   -8.7419 C.ar    1  UNL1        0.0043
      3 C         -23.9147   50.8573   -8.8623 C.ar    1  UNL1        0.0148
      4 C         -23.4646   51.3119  -10.1131 C.ar    1  UNL1        0.0516
      5 C         -24.2974   51.1661  -11.2306 C.ar    1  UNL1        0.0148
      6 C         -25.5424   50.5420  -11.1129 C.ar    1  UNL1        0.0043
      7 N         -29.6890   48.1459   -7.3154 N.ar    1  UNL1       -0.2357
      8 N         -30.8799   47.6788   -7.6827 N.ar    1  UNL1       -0.1663
      9 C         -30.9439   47.6885   -9.0384 C.ar    1  UNL1        0.1260
     10 C         -29.7535   48.1931   -9.5239 C.ar    1  UNL1        0.0880
     11 C         -29.2708   48.5060  -10.7906 C.ar    1  UNL1        0.1380
     12 N         -28.0489   49.1154  -10.8628 N.ar    1  UNL1       -0.2117
     13 C         -27.3090   49.4013   -9.7401 C.ar    1  UNL1        0.1653
     14 N         -27.8018   49.0810   -8.5028 N.ar    1  UNL1       -0.2079
     15 C         -29.0112   48.4766   -8.4262 C.ar    1  UNL1        0.1652
     16 C         -28.2576   48.0057   -1.8641 C.2     1  UNL1        0.4050
     17 O         -27.2006   48.5838   -1.4867 O.2     1  UNL1       -0.2262
     18 N         -28.4983   47.7927   -3.2683 N.am    1  UNL1       -0.2459
     19 C         -27.4414   48.1300   -4.2356 C.3     1  UNL1        0.0987
     20 C         -27.8713   47.8279   -5.6755 C.3     1  UNL1        0.0461
     21 C         -29.2784   48.3902   -5.9294 C.3     1  UNL1        0.1102
     22 C         -30.3296   47.8128   -4.9486 C.3     1  UNL1        0.0461
     23 C         -29.7196   47.1102   -3.7228 C.3     1  UNL1        0.0987
     24 C         -29.9064   48.4699   -0.0758 C.3     1  UNL1        0.2573
     25 O         -29.1913   47.5721   -0.9161 O.3     1  UNL1       -0.4304
     26 N         -30.0273   48.2429  -11.9823 N.pl3   1  UNL1       -0.2879
     27 C         -30.6963   49.3453  -12.6783 C.3     1  UNL1        0.1242
     28 C         -30.9118   48.9660  -14.1459 C.3     1  UNL1        0.1636
     29 O         -31.5826   47.7236  -14.2490 O.3     1  UNL1       -0.3501
     30 C         -30.7665   46.6916  -13.7258 C.3     1  UNL1        0.1636
     31 C         -30.5302   46.8895  -12.2247 C.3     1  UNL1        0.1242
     32 N         -22.1985   51.9780  -10.2592 N.am    1  UNL1       -0.2681
     33 C         -21.8363   53.1832   -9.5681 C.2     1  UNL1        0.3082
     34 O         -22.5556   53.6185   -8.6281 O.2     1  UNL1       -0.2522
     35 N         -20.6478   53.8884   -9.9573 N.am    1  UNL1       -0.2681
     36 H         -21.4601   51.5103  -10.8321 H       1  UNL1        0.1564
     37 H         -20.2327   53.6572  -10.8882 H       1  UNL1        0.1564
     38 C         -20.0732   54.9757   -9.2120 C.ar    1  UNL1        0.0516
     39 C         -19.3249   54.6988   -8.0587 C.ar    1  UNL1        0.0144
     40 C         -18.7705   55.7377   -7.3063 C.ar    1  UNL1       -0.0029
     41 C         -18.9766   57.0737   -7.6838 C.ar    1  UNL1       -0.0207
     42 C         -19.7365   57.3545   -8.8292 C.ar    1  UNL1       -0.0029
     43 C         -20.2904   56.3150   -9.5820 C.ar    1  UNL1        0.0144
     44 C         -18.3409   58.1931   -6.9007 C.3     1  UNL1        0.0437
     45 C         -18.6912   59.5625   -7.4992 C.3     1  UNL1        0.0769
     46 N         -18.9851   60.5515   -6.4391 N.3     1  UNL1       -0.2681
     47 C         -19.5123   61.8016   -7.0223 C.3     1  UNL1        0.1046
     48 C         -20.0634   62.7357   -5.9262 C.3     1  UNL1        0.1595
     49 O         -19.6195   62.3281   -4.6480 O.3     1  UNL1       -0.3508
     50 C         -20.1702   61.0614   -4.3302 C.3     1  UNL1        0.1595
     51 C         -19.9391   60.0210   -5.4472 C.3     1  UNL1        0.1046
@<TRIPOS>BOND
     1    24    25    1
     2    25    16    1
     3    16    17    2
     4    16    18   am
     5    18    19    1
     6    19    20    1
     7    20    21    1
     8    21     7    1
     9     7     8   ar
    10     8     9   ar
    11     9    10   ar
    12    10    11   ar
    13    11    26    1
    14    26    27    1
    15    27    28    1
    16    28    29    1
    17    29    30    1
    18    30    31    1
    19    11    12   ar
    20    12    13   ar
    21    13     1    1
    22     1     2   ar
    23     2     3   ar
    24     3     4   ar
    25     4    32    1
    26    32    33   am
    27    33    34    2
    28    33    35   am
    29    35    38    1
    30    38    39   ar
    31    39    40   ar
    32    40    41   ar
    33    41    44    1
    34    44    45    1
    35    45    46    1
    36    46    47    1
    37    47    48    1
    38    48    49    1
    39    49    50    1
    40    50    51    1
    41    41    42   ar
    42    42    43   ar
    43     4     5   ar
    44     5     6   ar
    45    13    14   ar
    46    14    15   ar
    47    21    22    1
    48    22    23    1
    49    23    18    1
    50    15     7   ar
    51    15    10   ar
    52    31    26    1
    53     6     1   ar
    54    43    38   ar
    55    51    46    1
    56    32    36    1
    57    35    37    1
@<TRIPOS>MOLECULE
*****
 51 57 0 0 0
SMALL
GASTEIGER

@<TRIPOS>ATOM
      1 C         -25.8327   50.5301   -9.6227 C.ar    1  UNL1        0.0360
      2 C         -25.1142   50.4459   -8.4159 C.ar    1  UNL1        0.0043
      3 C         -23.8010   50.9181   -8.3352 C.ar    1  UNL1        0.0148
      4 C         -23.1735   51.4722   -9.4635 C.ar    1  UNL1        0.0516
      5 C         -23.8951   51.5799  -10.6598 C.ar    1  UNL1        0.0148
      6 C         -25.2079   51.1075  -10.7432 C.ar    1  UNL1        0.0043
      7 N         -29.7211   48.1092   -7.9174 N.ar    1  UNL1       -0.2357
      8 N         -30.9654   47.9836   -8.3724 N.ar    1  UNL1       -0.1663
      9 C         -31.0419   48.5921   -9.5832 C.ar    1  UNL1        0.1260
     10 C         -29.8021   49.1240   -9.8788 C.ar    1  UNL1        0.0880
     11 C         -29.2968   49.9043  -10.9140 C.ar    1  UNL1        0.1380
     12 N         -28.0081   50.3455  -10.7946 N.ar    1  UNL1       -0.2117
     13 C         -27.2262   50.0285   -9.7093 C.ar    1  UNL1        0.1653
     14 N         -27.7428   49.2558   -8.7032 N.ar    1  UNL1       -0.2079
     15 C         -29.0184   48.8157   -8.8172 C.ar    1  UNL1        0.1652
     16 C         -26.9780   46.6585   -3.2104 C.2     1  UNL1        0.4050
     17 O         -27.3744   47.1085   -2.0993 O.2     1  UNL1       -0.2262
     18 N         -27.4812   47.2242   -4.4359 N.am    1  UNL1       -0.2459
     19 C         -28.3471   48.4128   -4.3737 C.3     1  UNL1        0.0987
     20 C         -28.7756   48.8774   -5.7702 C.3     1  UNL1        0.0461
     21 C         -29.2684   47.6762   -6.5919 C.3     1  UNL1        0.1102
     22 C         -28.1896   46.5725   -6.7273 C.3     1  UNL1        0.0461
     23 C         -27.0200   46.7184   -5.7379 C.3     1  UNL1        0.0987
     24 C         -25.9965   44.5967   -2.2523 C.3     1  UNL1        0.2573
     25 O         -26.0494   45.6122   -3.2471 O.3     1  UNL1       -0.4304
     26 N         -30.0930   50.2734  -12.0503 N.pl3   1  UNL1       -0.2879
     27 C         -30.2779   49.3223  -13.1496 C.3     1  UNL1        0.1242
     28 C         -31.5631   49.6636  -13.9086 C.3     1  UNL1        0.1636
     29 O         -31.5619   51.0210  -14.3109 O.3     1  UNL1       -0.3501
     30 C         -31.5826   51.8603  -13.1708 C.3     1  UNL1        0.1636
     31 C         -30.3029   51.6921  -12.3448 C.3     1  UNL1        0.1242
     32 N         -21.8322   51.9869   -9.4001 N.am    1  UNL1       -0.2681
     33 C         -21.4987   53.3218   -8.9900 C.2     1  UNL1        0.3082
     34 O         -22.3733   54.0636   -8.4655 O.2     1  UNL1       -0.2522
     35 N         -20.1602   53.8043   -9.1828 N.am    1  UNL1       -0.2681
     36 H         -21.0427   51.3246   -9.5746 H       1  UNL1        0.1564
     37 H         -19.5483   53.2771   -9.8461 H       1  UNL1        0.1564
     38 C         -19.6561   55.0310   -8.6273 C.ar    1  UNL1        0.0516
     39 C         -18.8444   54.9857   -7.4845 C.ar    1  UNL1        0.0144
     40 C         -18.3559   56.1642   -6.9141 C.ar    1  UNL1       -0.0029
     41 C         -18.6920   57.4102   -7.4656 C.ar    1  UNL1       -0.0207
     42 C         -19.5151   57.4596   -8.6006 C.ar    1  UNL1       -0.0029
     43 C         -20.0032   56.2806   -9.1713 C.ar    1  UNL1        0.0144
     44 C         -18.1283   58.6791   -6.8802 C.3     1  UNL1        0.0437
     45 C         -18.7499   59.9205   -7.5350 C.3     1  UNL1        0.0769
     46 N         -19.0722   60.9538   -6.5267 N.3     1  UNL1       -0.2681
     47 C         -19.7752   62.0924   -7.1514 C.3     1  UNL1        0.1046
     48 C         -20.3437   63.0472   -6.0825 C.3     1  UNL1        0.1595
     49 O         -19.7650   62.7900   -4.8191 O.3     1  UNL1       -0.3508
     50 C         -20.1480   61.5017   -4.3693 C.3     1  UNL1        0.1595
     51 C         -19.8865   60.4064   -5.4255 C.3     1  UNL1        0.1046
@<TRIPOS>BOND
     1    24    25    1
     2    25    16    1
     3    16    17    2
     4    16    18   am
     5    18    19    1
     6    19    20    1
     7    20    21    1
     8    21     7    1
     9     7     8   ar
    10     8     9   ar
    11     9    10   ar
    12    10    11   ar
    13    11    26    1
    14    26    27    1
    15    27    28    1
    16    28    29    1
    17    29    30    1
    18    30    31    1
    19    11    12   ar
    20    12    13   ar
    21    13     1    1
    22     1     2   ar
    23     2     3   ar
    24     3     4   ar
    25     4    32    1
    26    32    33   am
    27    33    34    2
    28    33    35   am
    29    35    38    1
    30    38    39   ar
    31    39    40   ar
    32    40    41   ar
    33    41    44    1
    34    44    45    1
    35    45    46    1
    36    46    47    1
    37    47    48    1
    38    48    49    1
    39    49    50    1
    40    50    51    1
    41    41    42   ar
    42    42    43   ar
    43     4     5   ar
    44     5     6   ar
    45    13    14   ar
    46    14    15   ar
    47    21    22    1
    48    22    23    1
    49    23    18    1
    50    15     7   ar
    51    15    10   ar
    52    31    26    1
    53     6     1   ar
    54    43    38   ar
    55    51    46    1
    56    32    36    1
    57    35    37    1
@<TRIPOS>MOLECULE
*****
 51 57 0 0 0
SMALL
GASTEIGER

@<TRIPOS>ATOM
      1 C         -26.0275   50.1832   -9.7577 C.ar    1  UNL1        0.0360
      2 C         -25.5674   50.5779  -11.0275 C.ar    1  UNL1        0.0043
      3 C         -24.3304   51.2128  -11.1704 C.ar    1  UNL1        0.0148
      4 C         -23.5329   51.4790  -10.0448 C.ar    1  UNL1        0.0516
      5 C         -23.9774   51.0648   -8.7821 C.ar    1  UNL1        0.0148
      6 C         -25.2145   50.4307   -8.6365 C.ar    1  UNL1        0.0043
      7 N         -30.4289   48.7750  -11.3491 N.ar    1  UNL1       -0.2357
      8 N         -31.3671   47.9990  -10.8116 N.ar    1  UNL1       -0.1663
      9 C         -30.9799   47.6683   -9.5534 C.ar    1  UNL1        0.1260
     10 C         -29.7513   48.2511   -9.3119 C.ar    1  UNL1        0.0880
     11 C         -28.8426   48.2114   -8.2591 C.ar    1  UNL1        0.1380
     12 N         -27.6446   48.8449   -8.4410 N.ar    1  UNL1       -0.2117
     13 C         -27.3406   49.5099   -9.6051 C.ar    1  UNL1        0.1653
     14 N         -28.2517   49.5396  -10.6276 N.ar    1  UNL1       -0.2079
     15 C         -29.4399   48.9143  -10.4518 C.ar    1  UNL1        0.1652
     16 C         -31.3334   49.9774  -16.7824 C.2     1  UNL1        0.4050
     17 O         -31.3122   51.1815  -17.1617 O.2     1  UNL1       -0.2262
     18 N         -31.3803   49.6674  -15.3764 N.am    1  UNL1       -0.2459
     19 C         -31.5425   50.7625  -14.4064 C.3     1  UNL1        0.0987
     20 C         -31.5813   50.2435  -12.9646 C.3     1  UNL1        0.0461
     21 C         -30.4314   49.2504  -12.7359 C.3     1  UNL1        0.1102
     22 C         -30.4856   48.0505  -13.7144 C.3     1  UNL1        0.0461
     23 C         -31.4173   48.2696  -14.9195 C.3     1  UNL1        0.0987
     24 C         -30.1331   48.5719  -18.4305 C.3     1  UNL1        0.2573
     25 O         -31.3128   48.9479  -17.7301 O.3     1  UNL1       -0.4304
     26 N         -29.1183   47.5065   -7.0390 N.pl3   1  UNL1       -0.2879
     27 C         -29.0522   46.0428   -7.0130 C.3     1  UNL1        0.1242
     28 C         -28.7955   45.5692   -5.5798 C.3     1  UNL1        0.1636
     29 O         -29.7487   46.1221   -4.6911 O.3     1  UNL1       -0.3501
     30 C         -29.5978   47.5290   -4.6386 C.3     1  UNL1        0.1636
     31 C         -29.9106   48.1634   -5.9980 C.3     1  UNL1        0.1242
     32 N         -22.2461   52.1090  -10.1678 N.am    1  UNL1       -0.2681
     33 C         -21.9041   53.3691   -9.5706 C.2     1  UNL1        0.3082
     34 O         -22.6738   53.9028   -8.7261 O.2     1  UNL1       -0.2522
     35 N         -20.6780   54.0160   -9.9440 N.am    1  UNL1       -0.2681
     36 H         -21.4820   51.5777  -10.6434 H       1  UNL1        0.1564
     37 H         -20.2081   53.6908  -10.8192 H       1  UNL1        0.1564
     38 C         -20.1302   55.1606   -9.2678 C.ar    1  UNL1        0.0516
     39 C         -19.3429   54.9709   -8.1228 C.ar    1  UNL1        0.0144
     40 C         -18.8131   56.0669   -7.4364 C.ar    1  UNL1       -0.0029
     41 C         -19.0830   57.3733   -7.8724 C.ar    1  UNL1       -0.0207
     42 C         -19.8819   57.5669   -9.0093 C.ar    1  UNL1       -0.0029
     43 C         -20.4111   56.4704   -9.6960 C.ar    1  UNL1        0.0144
     44 C         -18.4745   58.5543   -7.1615 C.3     1  UNL1        0.0437
     45 C         -19.3120   58.9643   -5.9421 C.3     1  UNL1        0.0769
     46 N         -19.8354   60.3400   -6.0893 N.3     1  UNL1       -0.2681
     47 C         -19.7617   61.0674   -4.8062 C.3     1  UNL1        0.1046
     48 C         -20.0561   62.5682   -5.0017 C.3     1  UNL1        0.1595
     49 O         -20.6507   62.8043   -6.2618 O.3     1  UNL1       -0.3508
     50 C         -19.7281   62.4968   -7.2928 C.3     1  UNL1        0.1595
     51 C         -19.1113   61.0907   -7.1321 C.3     1  UNL1        0.1046
@<TRIPOS>BOND
     1    24    25    1
     2    25    16    1
     3    16    17    2
     4    16    18   am
     5    18    19    1
     6    19    20    1
     7    20    21    1
     8    21     7    1
     9     7     8   ar
    10     8     9   ar
    11     9    10   ar
    12    10    11   ar
    13    11    26    1
    14    26    27    1
    15    27    28    1
    16    28    29    1
    17    29    30    1
    18    30    31    1
    19    11    12   ar
    20    12    13   ar
    21    13     1    1
    22     1     2   ar
    23     2     3   ar
    24     3     4   ar
    25     4    32    1
    26    32    33   am
    27    33    34    2
    28    33    35   am
    29    35    38    1
    30    38    39   ar
    31    39    40   ar
    32    40    41   ar
    33    41    44    1
    34    44    45    1
    35    45    46    1
    36    46    47    1
    37    47    48    1
    38    48    49    1
    39    49    50    1
    40    50    51    1
    41    41    42   ar
    42    42    43   ar
    43     4     5   ar
    44     5     6   ar
    45    13    14   ar
    46    14    15   ar
    47    21    22    1
    48    22    23    1
    49    23    18    1
    50    15     7   ar
    51    15    10   ar
    52    31    26    1
    53     6     1   ar
    54    43    38   ar
    55    51    46    1
    56    32    36    1
    57    35    37    1
@<TRIPOS>MOLECULE
*****
 51 57 0 0 0
SMALL
GASTEIGER

@<TRIPOS>ATOM
      1 C         -25.9877   50.3664   -9.9693 C.ar    1  UNL1        0.0360
      2 C         -25.3084   50.4071   -8.7378 C.ar    1  UNL1        0.0043
      3 C         -24.0016   50.8973   -8.6619 C.ar    1  UNL1        0.0148
      4 C         -23.3411   51.3447   -9.8184 C.ar    1  UNL1        0.0516
      5 C         -24.0241   51.3283  -11.0419 C.ar    1  UNL1        0.0148
      6 C         -25.3305   50.8376  -11.1204 C.ar    1  UNL1        0.0043
      7 N         -29.9719   48.2323   -8.1090 N.ar    1  UNL1       -0.2357
      8 N         -31.1879   48.0217   -8.6075 N.ar    1  UNL1       -0.1663
      9 C         -31.1929   48.4182   -9.9056 C.ar    1  UNL1        0.1260
     10 C         -29.9373   48.9036  -10.2143 C.ar    1  UNL1        0.0880
     11 C         -29.3716   49.5037  -11.3347 C.ar    1  UNL1        0.1380
     12 N         -28.0914   49.9697  -11.2170 N.ar    1  UNL1       -0.2117
     13 C         -27.3744   49.8455  -10.0507 C.ar    1  UNL1        0.1653
     14 N         -27.9498   49.2478   -8.9607 N.ar    1  UNL1       -0.2079
     15 C         -29.2171   48.7840   -9.0726 C.ar    1  UNL1        0.1652
     16 C         -29.6124   47.5174   -2.5283 C.2     1  UNL1        0.4050
     17 O         -28.9040   46.5787   -2.0690 O.2     1  UNL1       -0.2262
     18 N         -29.9388   47.5515   -3.9310 N.am    1  UNL1       -0.2459
     19 C         -29.5556   46.4144   -4.7835 C.3     1  UNL1        0.0987
     20 C         -29.9926   46.6220   -6.2380 C.3     1  UNL1        0.0461
     21 C         -29.5978   48.0313   -6.7059 C.3     1  UNL1        0.1102
     22 C         -30.2178   49.1414   -5.8208 C.3     1  UNL1        0.0461
     23 C         -30.7729   48.6322   -4.4788 C.3     1  UNL1        0.0987
     24 C         -29.9994   48.4210   -0.2555 C.3     1  UNL1        0.2573
     25 O         -30.0795   48.5210   -1.6722 O.3     1  UNL1       -0.4304
     26 N         -30.0997   49.6706  -12.5609 N.pl3   1  UNL1       -0.2879
     27 C         -31.2202   50.6131  -12.6197 C.3     1  UNL1        0.1242
     28 C         -31.4409   51.0534  -14.0694 C.3     1  UNL1        0.1636
     29 O         -31.5840   49.9293  -14.9181 O.3     1  UNL1       -0.3501
     30 C         -30.3765   49.1905  -14.9453 C.3     1  UNL1        0.1636
     31 C         -30.0625   48.6053  -13.5643 C.3     1  UNL1        0.1242
     32 N         -22.0059   51.8758   -9.7631 N.am    1  UNL1       -0.2681
     33 C         -21.6735   53.1703   -9.2387 C.2     1  UNL1        0.3082
     34 O         -22.5342   53.8410   -8.6063 O.2     1  UNL1       -0.2522
     35 N         -20.3522   53.6943   -9.4410 N.am    1  UNL1       -0.2681
     36 H         -21.2156   51.2486  -10.0359 H       1  UNL1        0.1564
     37 H         -19.7632   53.2458  -10.1788 H       1  UNL1        0.1564
     38 C         -19.8413   54.8703   -8.7901 C.ar    1  UNL1        0.0516
     39 C         -18.8846   54.7326   -7.7738 C.ar    1  UNL1        0.0144
     40 C         -18.3848   55.8578   -7.1129 C.ar    1  UNL1       -0.0029
     41 C         -18.8527   57.1392   -7.4431 C.ar    1  UNL1       -0.0207
     42 C         -19.8199   57.2791   -8.4496 C.ar    1  UNL1       -0.0029
     43 C         -20.3193   56.1533   -9.1110 C.ar    1  UNL1        0.0144
     44 C         -18.2810   58.3569   -6.7643 C.3     1  UNL1        0.0437
     45 C         -18.6381   59.6405   -7.5267 C.3     1  UNL1        0.0769
     46 N         -18.9776   60.7395   -6.5967 N.3     1  UNL1       -0.2681
     47 C         -19.7091   61.8124   -7.3001 C.3     1  UNL1        0.1046
     48 C         -20.2927   62.8324   -6.3019 C.3     1  UNL1        0.1595
     49 O         -19.7014   62.6837   -5.0270 O.3     1  UNL1       -0.3508
     50 C         -20.0533   61.4249   -4.4789 C.3     1  UNL1        0.1595
     51 C         -19.7735   60.2592   -5.4516 C.3     1  UNL1        0.1046
@<TRIPOS>BOND
     1    24    25    1
     2    25    16    1
     3    16    17    2
     4    16    18   am
     5    18    19    1
     6    19    20    1
     7    20    21    1
     8    21     7    1
     9     7     8   ar
    10     8     9   ar
    11     9    10   ar
    12    10    11   ar
    13    11    26    1
    14    26    27    1
    15    27    28    1
    16    28    29    1
    17    29    30    1
    18    30    31    1
    19    11    12   ar
    20    12    13   ar
    21    13     1    1
    22     1     2   ar
    23     2     3   ar
    24     3     4   ar
    25     4    32    1
    26    32    33   am
    27    33    34    2
    28    33    35   am
    29    35    38    1
    30    38    39   ar
    31    39    40   ar
    32    40    41   ar
    33    41    44    1
    34    44    45    1
    35    45    46    1
    36    46    47    1
    37    47    48    1
    38    48    49    1
    39    49    50    1
    40    50    51    1
    41    41    42   ar
    42    42    43   ar
    43     4     5   ar
    44     5     6   ar
    45    13    14   ar
    46    14    15   ar
    47    21    22    1
    48    22    23    1
    49    23    18    1
    50    15     7   ar
    51    15    10   ar
    52    31    26    1
    53     6     1   ar
    54    43    38   ar
    55    51    46    1
    56    32    36    1
    57    35    37    1
@<TRIPOS>MOLECULE
*****
 51 57 0 0 0
SMALL
GASTEIGER

@<TRIPOS>ATOM
      1 C         -26.3404   49.4138   -9.4823 C.ar    1  UNL1        0.0360
      2 C         -26.1001   49.7281  -10.8326 C.ar    1  UNL1        0.0043
      3 C         -25.0005   50.5107  -11.1962 C.ar    1  UNL1        0.0148
      4 C         -24.1251   51.0071  -10.2158 C.ar    1  UNL1        0.0516
      5 C         -24.3479   50.6749   -8.8729 C.ar    1  UNL1        0.0148
      6 C         -25.4474   49.8935   -8.5067 C.ar    1  UNL1        0.0043
      7 N         -30.5438   47.0899  -10.3878 N.ar    1  UNL1       -0.2357
      8 N         -31.2980   46.2850   -9.6431 N.ar    1  UNL1       -0.1663
      9 C         -30.7732   46.2428   -8.3921 C.ar    1  UNL1        0.1260
     10 C         -29.6461   47.0406   -8.3690 C.ar    1  UNL1        0.0880
     11 C         -28.6718   47.3255   -7.4176 C.ar    1  UNL1        0.1380
     12 N         -27.6130   48.0939   -7.8155 N.ar    1  UNL1       -0.2117
     13 C         -27.5077   48.5839   -9.0956 C.ar    1  UNL1        0.1653
     14 N         -28.4805   48.2941  -10.0154 N.ar    1  UNL1       -0.2079
     15 C         -29.5315   47.5341   -9.6258 C.ar    1  UNL1        0.1652
     16 C         -30.2674   48.4451  -15.8533 C.2     1  UNL1        0.4050
     17 O         -30.4999   47.5598  -16.7230 O.2     1  UNL1       -0.2262
     18 N         -30.0622   48.0660  -14.4788 N.am    1  UNL1       -0.2459
     19 C         -29.9899   46.6371  -14.1329 C.3     1  UNL1        0.0987
     20 C         -29.7584   46.4267  -12.6323 C.3     1  UNL1        0.0461
     21 C         -30.7237   47.3094  -11.8261 C.3     1  UNL1        0.1102
     22 C         -30.5676   48.8135  -12.1630 C.3     1  UNL1        0.0461
     23 C         -29.7788   49.0848  -13.4562 C.3     1  UNL1        0.0987
     24 C         -30.1625   50.2095  -17.5876 C.3     1  UNL1        0.2573
     25 O         -30.2083   49.7919  -16.2285 O.3     1  UNL1       -0.4304
     26 N         -28.7385   46.8109   -6.0789 N.pl3   1  UNL1       -0.2879
     27 C         -29.8871   47.1377   -5.2297 C.3     1  UNL1        0.1242
     28 C         -30.0416   46.0669   -4.1463 C.3     1  UNL1        0.1636
     29 O         -28.8283   45.8922   -3.4379 O.3     1  UNL1       -0.3501
     30 C         -27.8327   45.3848   -4.3074 C.3     1  UNL1        0.1636
     31 C         -27.5037   46.3958   -5.4109 C.3     1  UNL1        0.1242
     32 N         -22.9734   51.7939  -10.5660 N.am    1  UNL1       -0.2681
     33 C         -22.4689   52.8816   -9.7764 C.2     1  UNL1        0.3082
     34 O         -22.9067   53.0780   -8.6101 O.2     1  UNL1       -0.2522
     35 N         -21.4615   53.7438  -10.3269 N.am    1  UNL1       -0.2681
     36 H         -22.4125   51.5013  -11.3980 H       1  UNL1        0.1564
     37 H         -21.3192   53.7199  -11.3621 H       1  UNL1        0.1564
     38 C         -20.7343   54.7244   -9.5670 C.ar    1  UNL1        0.0516
     39 C         -19.8986   54.3032   -8.5224 C.ar    1  UNL1        0.0144
     40 C         -19.1945   55.2364   -7.7569 C.ar    1  UNL1       -0.0029
     41 C         -19.3342   56.6098   -8.0099 C.ar    1  UNL1       -0.0207
     42 C         -20.1803   57.0351   -9.0451 C.ar    1  UNL1       -0.0029
     43 C         -20.8840   56.1012   -9.8111 C.ar    1  UNL1        0.0144
     44 C         -18.5401   57.6150   -7.2164 C.3     1  UNL1        0.0437
     45 C         -18.7008   59.0304   -7.7882 C.3     1  UNL1        0.0769
     46 N         -18.9454   60.0178   -6.7142 N.3     1  UNL1       -0.2681
     47 C         -19.3684   61.3137   -7.2821 C.3     1  UNL1        0.1046
     48 C         -19.8741   62.2643   -6.1784 C.3     1  UNL1        0.1595
     49 O         -19.4885   61.8014   -4.9001 O.3     1  UNL1       -0.3508
     50 C         -20.1358   60.5721   -4.6195 C.3     1  UNL1        0.1595
     51 C         -19.9563   59.5392   -5.7528 C.3     1  UNL1        0.1046
@<TRIPOS>BOND
     1    24    25    1
     2    25    16    1
     3    16    17    2
     4    16    18   am
     5    18    19    1
     6    19    20    1
     7    20    21    1
     8    21     7    1
     9     7     8   ar
    10     8     9   ar
    11     9    10   ar
    12    10    11   ar
    13    11    26    1
    14    26    27    1
    15    27    28    1
    16    28    29    1
    17    29    30    1
    18    30    31    1
    19    11    12   ar
    20    12    13   ar
    21    13     1    1
    22     1     2   ar
    23     2     3   ar
    24     3     4   ar
    25     4    32    1
    26    32    33   am
    27    33    34    2
    28    33    35   am
    29    35    38    1
    30    38    39   ar
    31    39    40   ar
    32    40    41   ar
    33    41    44    1
    34    44    45    1
    35    45    46    1
    36    46    47    1
    37    47    48    1
    38    48    49    1
    39    49    50    1
    40    50    51    1
    41    41    42   ar
    42    42    43   ar
    43     4     5   ar
    44     5     6   ar
    45    13    14   ar
    46    14    15   ar
    47    21    22    1
    48    22    23    1
    49    23    18    1
    50    15     7   ar
    51    15    10   ar
    52    31    26    1
    53     6     1   ar
    54    43    38   ar
    55    51    46    1
    56    32    36    1
    57    35    37    1
