@<TRIPOS>MOLECULE
*****
 46 51 0 0 0
SMALL
GASTEIGER

@<TRIPOS>ATOM
      1 C          60.5674   86.4843    8.3779 C.ar    1  UNL1        0.0702
      2 C          59.8367   86.5692    9.5726 C.ar    1  UNL1        0.0191
      3 C          60.2728   85.8914   10.7123 C.ar    1  UNL1        0.0356
      4 C          61.4558   85.1312   10.6625 C.ar    1  UNL1        0.1318
      5 N          62.1543   85.0829    9.4931 N.ar    1  UNL1       -0.2279
      6 C          61.7490   85.7342    8.3717 C.ar    1  UNL1        0.1149
      7 N          61.9484   84.4232   11.8252 N.pl3   1  UNL1       -0.2924
      8 C          63.0962   83.5050   11.7175 C.3     1  UNL1        0.0923
      9 C          63.2449   82.6254   12.9679 C.3     1  UNL1        0.0261
     10 C          61.8725   82.0716   13.3951 C.3     1  UNL1        0.0568
     11 C          60.8544   83.2180   13.6961 C.3     1  UNL1        0.0672
     12 S          59.1943   82.7888   13.0549 S.3     1  UNL1       -0.1670
     13 C          61.2963   84.5841   13.1342 C.3     1  UNL1        0.1027
     14 H          59.6053   82.7772   11.7079 H       1  UNL1        0.1023
     15 C          62.0367   81.1279   14.6040 C.3     1  UNL1        0.2062
     16 O          61.5484   79.8183   14.3084 O.3     1  UNL1       -0.4754
     17 C          60.6989   79.4842   13.2408 C.ar    1  UNL1        0.1388
     18 C          59.3416   79.1591   13.4203 C.ar    1  UNL1        0.0369
     19 C          58.5475   78.8314   12.3201 C.ar    1  UNL1        0.0033
     20 C          59.0927   78.8216   11.0344 C.ar    1  UNL1        0.0066
     21 C          60.4475   79.1390   10.8344 C.ar    1  UNL1        0.0785
     22 C          61.2370   79.4806   11.9480 C.ar    1  UNL1        0.0433
     23 C          61.0433   79.1396    9.4759 C.2     1  UNL1        0.3381
     24 O          60.4883   79.7895    8.5503 O.2     1  UNL1       -0.2451
     25 O          62.2203   78.4486    9.1894 O.3     1  UNL1       -0.4771
     26 H          62.7731   77.9928    9.9035 H       1  UNL1        0.2954
     27 C          60.0362   88.6167    7.1154 C.2     1  UNL1        0.2839
     28 O          59.7980   89.2842    8.1577 O.2     1  UNL1       -0.2665
     29 N          60.1636   87.1890    7.1914 N.am    1  UNL1       -0.2766
     30 H          59.8411   86.6274    6.3718 H       1  UNL1        0.1553
     31 C          57.5550   89.6566    5.3202 C.3     1  UNL1        0.0345
     32 C          59.0238   89.7784    5.0467 C.ar    1  UNL1        0.0202
     33 C          60.0964   89.3199    5.8219 C.ar    1  UNL1        0.1946
     34 O          61.2397   89.5956    5.2188 O.2     1  UNL1       -0.4492
     35 C          60.9651   90.2285    4.1045 C.ar    1  UNL1        0.1452
     36 C          61.8666   90.7143    3.1639 C.ar    1  UNL1        0.0375
     37 C          61.3506   91.3723    2.0336 C.ar    1  UNL1        0.0031
     38 C          59.9490   91.5339    1.8610 C.ar    1  UNL1        0.0002
     39 C          59.0660   91.0223    2.8421 C.ar    1  UNL1        0.0028
     40 C          59.6135   90.3749    3.9501 C.ar    1  UNL1        0.0337
     41 C          59.4153   92.2317    0.6638 C.ar    1  UNL1        0.0000
     42 C          58.1238   91.9430    0.1834 C.ar    1  UNL1        0.0000
     43 C          57.6243   92.6008   -0.9448 C.ar    1  UNL1        0.0000
     44 C          58.4052   93.5523   -1.6046 C.ar    1  UNL1        0.0000
     45 C          59.6879   93.8478   -1.1378 C.ar    1  UNL1        0.0000
     46 C          60.1928   93.1924   -0.0106 C.ar    1  UNL1        0.0000
@<TRIPOS>BOND
     1    31    32    1
     2    32    33   ar
     3    33    27    1
     4    27    28    2
     5    27    29   am
     6    29     1    1
     7     1     2   ar
     8     2     3   ar
     9     3     4   ar
    10     4     7    1
    11     7     8    1
    12     8     9    1
    13     9    10    1
    14    10    15    1
    15    15    16    1
    16    16    17    1
    17    17    18   ar
    18    18    19   ar
    19    19    20   ar
    20    20    21   ar
    21    21    23    1
    22    23    24    2
    23    23    25    1
    24    21    22   ar
    25    10    11    1
    26    11    12    1
    27    11    13    1
    28     4     5   ar
    29     5     6   ar
    30    33    34   ar
    31    34    35   ar
    32    35    36   ar
    33    36    37   ar
    34    37    38   ar
    35    38    41    1
    36    41    42   ar
    37    42    43   ar
    38    43    44   ar
    39    44    45   ar
    40    45    46   ar
    41    38    39   ar
    42    39    40   ar
    43    40    32   ar
    44     6     1   ar
    45    40    35   ar
    46    13     7    1
    47    46    41   ar
    48    22    17   ar
    49    29    30    1
    50    25    26    1
    51    12    14    1
@<TRIPOS>MOLECULE
*****
 46 51 0 0 0
SMALL
GASTEIGER

@<TRIPOS>ATOM
      1 C          61.7717   86.3546    9.0100 C.ar    1  UNL1        0.0702
      2 C          60.6493   86.5390    8.1887 C.ar    1  UNL1        0.0191
      3 C          59.8023   85.4663    7.9057 C.ar    1  UNL1        0.0356
      4 C          60.0714   84.2000    8.4571 C.ar    1  UNL1        0.1318
      5 N          61.1585   84.0559    9.2665 N.ar    1  UNL1       -0.2279
      6 C          61.9965   85.0856    9.5557 C.ar    1  UNL1        0.1149
      7 N          59.2114   83.0647    8.1978 N.pl3   1  UNL1       -0.2924
      8 C          57.8370   83.0242    8.7283 C.3     1  UNL1        0.0923
      9 C          57.2228   81.6205    8.6204 C.3     1  UNL1        0.0261
     10 C          58.2402   80.5580    9.0772 C.3     1  UNL1        0.0568
     11 C          59.5503   80.6083    8.2272 C.3     1  UNL1        0.0672
     12 S          61.0183   80.3621    9.2927 S.3     1  UNL1       -0.1670
     13 C          59.7004   81.9144    7.4216 C.3     1  UNL1        0.1027
     14 H          60.8106   81.5455   10.0275 H       1  UNL1        0.1023
     15 C          57.5944   79.1578    9.0403 C.3     1  UNL1        0.2062
     16 O          57.4147   78.6358   10.3580 O.3     1  UNL1       -0.4754
     17 C          58.1849   78.9732   11.4831 C.ar    1  UNL1        0.1388
     18 C          58.4514   78.0647   12.5242 C.ar    1  UNL1        0.0369
     19 C          59.2209   78.4596   13.6198 C.ar    1  UNL1        0.0033
     20 C          59.7305   79.7578   13.6928 C.ar    1  UNL1        0.0066
     21 C          59.4719   80.6817   12.6654 C.ar    1  UNL1        0.0785
     22 C          58.7061   80.2708   11.5588 C.ar    1  UNL1        0.0433
     23 C          60.0091   82.0633   12.7223 C.2     1  UNL1        0.3381
     24 O          60.6958   82.4265   13.7141 O.2     1  UNL1       -0.2451
     25 O          59.7894   82.9801   11.6947 O.3     1  UNL1       -0.4771
     26 H          59.3373   82.7278   10.8257 H       1  UNL1        0.2954
     27 C          62.3890   88.3886   10.3903 C.2     1  UNL1        0.2839
     28 O          61.2019   88.6255   10.7416 O.2     1  UNL1       -0.2665
     29 N          62.6521   87.4412    9.3446 N.am    1  UNL1       -0.2766
     30 H          63.4743   87.6166    8.7247 H       1  UNL1        0.1553
     31 C          63.5346   88.1030   13.4014 C.3     1  UNL1        0.0345
     32 C          63.9829   89.0321   12.3137 C.ar    1  UNL1        0.0202
     33 C          63.4796   89.1595   11.0129 C.ar    1  UNL1        0.1946
     34 O          64.1253   90.1172   10.3708 O.2     1  UNL1       -0.4492
     35 C          65.0357   90.6018   11.1796 C.ar    1  UNL1        0.1452
     36 C          65.9479   91.6172   10.9145 C.ar    1  UNL1        0.0375
     37 C          66.8466   91.9795   11.9333 C.ar    1  UNL1        0.0031
     38 C          66.8202   91.3254   13.1949 C.ar    1  UNL1        0.0002
     39 C          65.8737   90.2979   13.4235 C.ar    1  UNL1        0.0028
     40 C          64.9975   89.9652   12.3901 C.ar    1  UNL1        0.0337
     41 C          67.7750   91.7155   14.2632 C.ar    1  UNL1        0.0000
     42 C          67.6014   92.9182   14.9743 C.ar    1  UNL1        0.0000
     43 C          68.5027   93.2835   15.9789 C.ar    1  UNL1        0.0000
     44 C          69.5843   92.4549   16.2856 C.ar    1  UNL1        0.0000
     45 C          69.7673   91.2591   15.5876 C.ar    1  UNL1        0.0000
     46 C          68.8697   90.8893   14.5813 C.ar    1  UNL1        0.0000
@<TRIPOS>BOND
     1    31    32    1
     2    32    33   ar
     3    33    27    1
     4    27    28    2
     5    27    29   am
     6    29     1    1
     7     1     2   ar
     8     2     3   ar
     9     3     4   ar
    10     4     7    1
    11     7     8    1
    12     8     9    1
    13     9    10    1
    14    10    15    1
    15    15    16    1
    16    16    17    1
    17    17    18   ar
    18    18    19   ar
    19    19    20   ar
    20    20    21   ar
    21    21    23    1
    22    23    24    2
    23    23    25    1
    24    21    22   ar
    25    10    11    1
    26    11    12    1
    27    11    13    1
    28     4     5   ar
    29     5     6   ar
    30    33    34   ar
    31    34    35   ar
    32    35    36   ar
    33    36    37   ar
    34    37    38   ar
    35    38    41    1
    36    41    42   ar
    37    42    43   ar
    38    43    44   ar
    39    44    45   ar
    40    45    46   ar
    41    38    39   ar
    42    39    40   ar
    43    40    32   ar
    44     6     1   ar
    45    40    35   ar
    46    13     7    1
    47    46    41   ar
    48    22    17   ar
    49    29    30    1
    50    25    26    1
    51    12    14    1
@<TRIPOS>MOLECULE
*****
 46 51 0 0 0
SMALL
GASTEIGER

@<TRIPOS>ATOM
      1 C          59.8318   87.4581    7.5970 C.ar    1  UNL1        0.0702
      2 C          59.3189   86.1714    7.8200 C.ar    1  UNL1        0.0191
      3 C          59.1855   85.6842    9.1213 C.ar    1  UNL1        0.0356
      4 C          59.5564   86.4934   10.2110 C.ar    1  UNL1        0.1318
      5 N          60.0337   87.7459    9.9639 N.ar    1  UNL1       -0.2279
      6 C          60.1722   88.2409    8.7062 C.ar    1  UNL1        0.1149
      7 N          59.4228   86.0302   11.5761 N.pl3   1  UNL1       -0.2924
      8 C          59.0460   86.9618   12.6541 C.3     1  UNL1        0.0923
      9 C          59.2773   86.3519   14.0447 C.3     1  UNL1        0.0261
     10 C          60.6480   85.6511   14.0970 C.3     1  UNL1        0.0568
     11 C          60.7634   84.5247   13.0203 C.3     1  UNL1        0.0672
     12 S          62.4295   84.5278   12.2620 S.3     1  UNL1       -0.1670
     13 C          59.6869   84.6245   11.9210 C.3     1  UNL1        0.1027
     14 H          62.2775   85.8046   11.6874 H       1  UNL1        0.1023
     15 C          60.9093   85.1070   15.5164 C.3     1  UNL1        0.2062
     16 O          61.8881   85.8921   16.1996 O.3     1  UNL1       -0.4754
     17 C          62.6437   86.9315   15.6324 C.ar    1  UNL1        0.1388
     18 C          63.5101   86.7355   14.5409 C.ar    1  UNL1        0.0369
     19 C          64.2385   87.8074   14.0225 C.ar    1  UNL1        0.0033
     20 C          64.1154   89.0808   14.5826 C.ar    1  UNL1        0.0066
     21 C          63.2586   89.2964   15.6761 C.ar    1  UNL1        0.0785
     22 C          62.5186   88.2126   16.1837 C.ar    1  UNL1        0.0433
     23 C          63.1101   90.6427   16.2811 C.2     1  UNL1        0.3381
     24 O          64.1280   91.3634   16.4597 O.2     1  UNL1       -0.2451
     25 O          61.8642   91.1496   16.6492 O.3     1  UNL1       -0.4771
     26 H          60.9974   90.6713   16.4414 H       1  UNL1        0.2954
     27 C          59.2269   89.1463    5.8061 C.2     1  UNL1        0.2839
     28 O          58.1152   89.4365    6.3245 O.2     1  UNL1       -0.2665
     29 N          59.9595   88.0036    6.2727 N.am    1  UNL1       -0.2766
     30 H          60.5344   87.4771    5.5775 H       1  UNL1        0.1553
     31 C          62.2722   89.4515    4.7603 C.3     1  UNL1        0.0345
     32 C          61.0262   90.0761    4.2086 C.ar    1  UNL1        0.0202
     33 C          59.7093   89.9489    4.6684 C.ar    1  UNL1        0.1946
     34 O          58.8994   90.6853    3.9279 O.2     1  UNL1       -0.4492
     35 C          59.6189   91.2653    2.9986 C.ar    1  UNL1        0.1452
     36 C          59.1749   92.1211    1.9966 C.ar    1  UNL1        0.0375
     37 C          60.1254   92.6302    1.0944 C.ar    1  UNL1        0.0031
     38 C          61.4980   92.2786    1.2064 C.ar    1  UNL1        0.0002
     39 C          61.9078   91.4055    2.2428 C.ar    1  UNL1        0.0028
     40 C          60.9373   90.9201    3.1197 C.ar    1  UNL1        0.0337
     41 C          62.4931   92.8213    0.2471 C.ar    1  UNL1        0.0000
     42 C          62.1458   93.0346   -1.1005 C.ar    1  UNL1        0.0000
     43 C          63.0853   93.5447   -2.0018 C.ar    1  UNL1        0.0000
     44 C          64.3783   93.8479   -1.5701 C.ar    1  UNL1        0.0000
     45 C          64.7352   93.6410   -0.2357 C.ar    1  UNL1        0.0000
     46 C          63.8001   93.1303    0.6698 C.ar    1  UNL1        0.0000
@<TRIPOS>BOND
     1    31    32    1
     2    32    33   ar
     3    33    27    1
     4    27    28    2
     5    27    29   am
     6    29     1    1
     7     1     2   ar
     8     2     3   ar
     9     3     4   ar
    10     4     7    1
    11     7     8    1
    12     8     9    1
    13     9    10    1
    14    10    15    1
    15    15    16    1
    16    16    17    1
    17    17    18   ar
    18    18    19   ar
    19    19    20   ar
    20    20    21   ar
    21    21    23    1
    22    23    24    2
    23    23    25    1
    24    21    22   ar
    25    10    11    1
    26    11    12    1
    27    11    13    1
    28     4     5   ar
    29     5     6   ar
    30    33    34   ar
    31    34    35   ar
    32    35    36   ar
    33    36    37   ar
    34    37    38   ar
    35    38    41    1
    36    41    42   ar
    37    42    43   ar
    38    43    44   ar
    39    44    45   ar
    40    45    46   ar
    41    38    39   ar
    42    39    40   ar
    43    40    32   ar
    44     6     1   ar
    45    40    35   ar
    46    13     7    1
    47    46    41   ar
    48    22    17   ar
    49    29    30    1
    50    25    26    1
    51    12    14    1
