@<TRIPOS>MOLECULE
*****
 47 52 0 0 0
SMALL
GASTEIGER

@<TRIPOS>ATOM
      1 O          -8.5613  -10.0757   30.2458 O.2     1  UNL1       -0.2701
      2 C          -8.1772  -11.2135   30.6304 C.2     1  UNL1        0.2483
      3 N          -7.7059  -11.4014   31.9783 N.am    1  UNL1       -0.2945
      4 H          -7.1835  -12.2785   32.2012 H       1  UNL1        0.1501
      5 C          -8.1815  -12.3374   29.6673 C.ar    1  UNL1        0.0808
      6 C          -6.9754  -12.7486   29.0758 C.ar    1  UNL1        0.0080
      7 C          -6.9549  -13.8091   28.1663 C.ar    1  UNL1        0.0148
      8 C          -8.1425  -14.4693   27.8182 C.ar    1  UNL1        0.0502
      9 C          -9.3512  -14.0526   28.3976 C.ar    1  UNL1        0.0443
     10 C          -9.3757  -12.9931   29.3100 C.ar    1  UNL1        0.1457
     11 F         -10.5724  -12.5861   29.8043 F       1  UNL1       -0.2040
     12 N          -8.1206  -15.5689   26.8890 N.pl3   1  UNL1       -0.3040
     13 C          -7.3818  -15.4648   25.6250 C.3     1  UNL1        0.1122
     14 C          -8.3109  -15.8154   24.4612 C.3     1  UNL1        0.1123
     15 N          -9.0502  -17.0617   24.7234 N.pl3   1  UNL1       -0.3023
     16 C          -8.8838  -17.7661   26.0033 C.3     1  UNL1        0.1123
     17 C          -8.9158  -16.7734   27.1733 C.3     1  UNL1        0.1122
     18 C          -9.7348  -17.7131   23.6369 C.ar    1  UNL1        0.0759
     19 C          -9.3404  -18.9983   23.2246 C.ar    1  UNL1        0.0191
     20 C          -9.9941  -19.6331   22.1647 C.ar    1  UNL1        0.0311
     21 C         -11.0488  -18.9938   21.5087 C.ar    1  UNL1        0.1425
     22 F         -11.6827  -19.6115   20.4817 F       1  UNL1       -0.2041
     23 C         -11.4532  -17.7193   21.9146 C.ar    1  UNL1        0.0605
     24 C         -10.8024  -17.0781   22.9741 C.ar    1  UNL1        0.1556
     25 F         -11.2395  -15.8581   23.3737 F       1  UNL1       -0.2028
     26 C          -7.8840  -10.4361   33.0729 C.3     1  UNL1        0.1535
     27 C          -7.5062   -9.0347   32.6457 C.2     1  UNL1        0.2443
     28 O          -6.2942   -8.6934   32.5824 O.2     1  UNL1       -0.2730
     29 N          -8.5409   -8.0857   32.3373 N.am    1  UNL1       -0.2825
     30 H          -9.4978   -8.2763   32.7127 H       1  UNL1        0.1549
     31 C          -8.3542   -6.8870   31.5626 C.ar    1  UNL1        0.0535
     32 C          -7.1253   -6.2032   31.5332 C.ar    1  UNL1        0.0353
     33 C          -6.9840   -5.0725   30.7252 C.ar    1  UNL1        0.1002
     34 N          -8.0246   -4.6420   29.9647 N.ar    1  UNL1       -0.2422
     35 C          -9.2188   -5.2901   29.9613 C.ar    1  UNL1        0.1002
     36 C          -9.4017   -6.4265   30.7523 C.ar    1  UNL1        0.0353
     37 C          -9.3116  -10.5082   33.6552 C.3     1  UNL1        0.0569
     38 C          -9.6300  -11.8801   34.1802 C.ar    1  UNL1       -0.0017
     39 C          -9.0128  -12.5155   35.2539 C.ar    1  UNL1        0.0681
     40 N          -9.6350  -13.6833   35.5333 N.ar    1  UNL1       -0.3523
     41 C         -10.6457  -13.7862   34.6530 C.ar    1  UNL1        0.0563
     42 C         -11.5987  -14.8010   34.5769 C.ar    1  UNL1        0.0170
     43 C         -12.6026  -14.6884   33.5979 C.ar    1  UNL1        0.0015
     44 C         -12.6315  -13.5770   32.7272 C.ar    1  UNL1        0.0001
     45 C         -11.6571  -12.5676   32.8275 C.ar    1  UNL1        0.0012
     46 C         -10.6747  -12.7056   33.8089 C.ar    1  UNL1        0.0131
     47 H          -9.3935  -14.3526   36.2977 H       1  UNL1        0.1660
@<TRIPOS>BOND
     1     1     2    2
     2     2     3   am
     3     3    26    1
     4    26    37    1
     5    37    38    1
     6    38    39   ar
     7    39    40   ar
     8    40    41   ar
     9    41    42   ar
    10    42    43   ar
    11    43    44   ar
    12    44    45   ar
    13    45    46   ar
    14    26    27    1
    15    27    28    2
    16    27    29   am
    17    29    31    1
    18    31    32   ar
    19    32    33   ar
    20    33    34   ar
    21    34    35   ar
    22    35    36   ar
    23     2     5    1
    24     5     6   ar
    25     6     7   ar
    26     7     8   ar
    27     8    12    1
    28    12    13    1
    29    13    14    1
    30    14    15    1
    31    15    18    1
    32    18    19   ar
    33    19    20   ar
    34    20    21   ar
    35    21    22    1
    36    21    23   ar
    37    23    24   ar
    38    24    25    1
    39    15    16    1
    40    16    17    1
    41     8     9   ar
    42     9    10   ar
    43    10    11    1
    44    46    38   ar
    45    36    31   ar
    46    10     5   ar
    47    46    41   ar
    48    17    12    1
    49    24    18   ar
    50     3     4    1
    51    40    47    1
    52    29    30    1
@<TRIPOS>MOLECULE
*****
 47 52 0 0 0
SMALL
GASTEIGER

@<TRIPOS>ATOM
      1 O          -9.1270  -10.1652   30.4374 O.2     1  UNL1       -0.2701
      2 C          -8.4935  -11.2106   30.7470 C.2     1  UNL1        0.2483
      3 N          -7.8458  -11.3118   32.0295 N.am    1  UNL1       -0.2945
      4 H          -7.1450  -12.0740   32.1701 H       1  UNL1        0.1501
      5 C          -8.3940  -12.3097   29.7608 C.ar    1  UNL1        0.0808
      6 C          -9.5472  -13.0287   29.4046 C.ar    1  UNL1        0.0080
      7 C          -9.4777  -14.0681   28.4735 C.ar    1  UNL1        0.0148
      8 C          -8.2507  -14.4196   27.8917 C.ar    1  UNL1        0.0502
      9 C          -7.0943  -13.7118   28.2550 C.ar    1  UNL1        0.0443
     10 C          -7.1599  -12.6693   29.1847 C.ar    1  UNL1        0.1457
     11 F          -6.0099  -12.0477   29.5493 F       1  UNL1       -0.2040
     12 N          -8.1801  -15.4838   26.9245 N.pl3   1  UNL1       -0.3040
     13 C          -7.5298  -15.2715   25.6258 C.3     1  UNL1        0.1122
     14 C          -8.4885  -15.6746   24.5037 C.3     1  UNL1        0.1123
     15 N          -9.0907  -16.9933   24.7623 N.pl3   1  UNL1       -0.3023
     16 C          -8.7841  -17.7165   26.0054 C.3     1  UNL1        0.1123
     17 C          -8.8405  -16.7669   27.2097 C.3     1  UNL1        0.1122
     18 C          -9.7736  -17.6746   23.6932 C.ar    1  UNL1        0.0759
     19 C          -9.4064  -18.9865   23.3451 C.ar    1  UNL1        0.0191
     20 C         -10.0584  -19.6508   22.3023 C.ar    1  UNL1        0.0311
     21 C         -11.0843  -19.0143   21.5997 C.ar    1  UNL1        0.1425
     22 F         -11.7166  -19.6606   20.5894 F       1  UNL1       -0.2041
     23 C         -11.4616  -17.7131   21.9416 C.ar    1  UNL1        0.0605
     24 C         -10.8124  -17.0423   22.9836 C.ar    1  UNL1        0.1556
     25 F         -11.2238  -15.7949   23.3211 F       1  UNL1       -0.2028
     26 C          -8.0784  -10.4038   33.1622 C.3     1  UNL1        0.1535
     27 C          -7.7232   -8.9753   32.8123 C.2     1  UNL1        0.2443
     28 O          -6.5734   -8.5249   33.0662 O.2     1  UNL1       -0.2730
     29 N          -8.7151   -8.1263   32.2113 N.am    1  UNL1       -0.2825
     30 H          -9.7173   -8.4021   32.3219 H       1  UNL1        0.1549
     31 C          -8.4318   -6.9185   31.4812 C.ar    1  UNL1        0.0535
     32 C          -7.1284   -6.4002   31.3762 C.ar    1  UNL1        0.0353
     33 C          -6.9018   -5.2518   30.6137 C.ar    1  UNL1        0.1002
     34 N          -7.9330   -4.6452   29.9694 N.ar    1  UNL1       -0.2422
     35 C          -9.2001   -5.1307   30.0405 C.ar    1  UNL1        0.1002
     36 C          -9.4698   -6.2783   30.7894 C.ar    1  UNL1        0.0353
     37 C          -9.5198  -10.5364   33.6981 C.3     1  UNL1        0.0569
     38 C          -9.8142  -11.9349   34.1635 C.ar    1  UNL1       -0.0017
     39 C          -9.2235  -12.5860   35.2427 C.ar    1  UNL1        0.0681
     40 N          -9.8174  -13.7823   35.4558 N.ar    1  UNL1       -0.3523
     41 C         -10.7843  -13.8879   34.5280 C.ar    1  UNL1        0.0563
     42 C         -11.6981  -14.9300   34.3761 C.ar    1  UNL1        0.0170
     43 C         -12.6613  -14.8170   33.3571 C.ar    1  UNL1        0.0015
     44 C         -12.6896  -13.6782   32.5225 C.ar    1  UNL1        0.0001
     45 C         -11.7554  -12.6416   32.6993 C.ar    1  UNL1        0.0012
     46 C         -10.8130  -12.7809   33.7189 C.ar    1  UNL1        0.0131
     47 H          -9.5872  -14.4689   36.2081 H       1  UNL1        0.1660
@<TRIPOS>BOND
     1     1     2    2
     2     2     3   am
     3     3    26    1
     4    26    37    1
     5    37    38    1
     6    38    39   ar
     7    39    40   ar
     8    40    41   ar
     9    41    42   ar
    10    42    43   ar
    11    43    44   ar
    12    44    45   ar
    13    45    46   ar
    14    26    27    1
    15    27    28    2
    16    27    29   am
    17    29    31    1
    18    31    32   ar
    19    32    33   ar
    20    33    34   ar
    21    34    35   ar
    22    35    36   ar
    23     2     5    1
    24     5     6   ar
    25     6     7   ar
    26     7     8   ar
    27     8    12    1
    28    12    13    1
    29    13    14    1
    30    14    15    1
    31    15    18    1
    32    18    19   ar
    33    19    20   ar
    34    20    21   ar
    35    21    22    1
    36    21    23   ar
    37    23    24   ar
    38    24    25    1
    39    15    16    1
    40    16    17    1
    41     8     9   ar
    42     9    10   ar
    43    10    11    1
    44    46    38   ar
    45    36    31   ar
    46    10     5   ar
    47    46    41   ar
    48    17    12    1
    49    24    18   ar
    50     3     4    1
    51    40    47    1
    52    29    30    1
@<TRIPOS>MOLECULE
*****
 47 52 0 0 0
SMALL
GASTEIGER

@<TRIPOS>ATOM
      1 O          -8.0043  -10.2543   31.3801 O.2     1  UNL1       -0.2701
      2 C          -8.8555  -11.1273   31.0585 C.2     1  UNL1        0.2483
      3 N         -10.1311  -11.1752   31.7257 N.am    1  UNL1       -0.2945
      4 H         -10.7168  -12.0328   31.6105 H       1  UNL1        0.1501
      5 C          -8.5087  -12.1208   30.0177 C.ar    1  UNL1        0.0808
      6 C          -7.1922  -12.1853   29.5317 C.ar    1  UNL1        0.0080
      7 C          -6.8411  -13.1172   28.5515 C.ar    1  UNL1        0.0148
      8 C          -7.8032  -13.9925   28.0266 C.ar    1  UNL1        0.0502
      9 C          -9.1225  -13.9220   28.5008 C.ar    1  UNL1        0.0443
     10 C          -9.4775  -12.9924   29.4832 C.ar    1  UNL1        0.1457
     11 F         -10.7753  -12.9201   29.8737 F       1  UNL1       -0.2040
     12 N          -7.4398  -14.9599   27.0241 N.pl3   1  UNL1       -0.3040
     13 C          -6.1476  -15.6533   27.0881 C.3     1  UNL1        0.1122
     14 C          -5.4158  -15.4916   25.7543 C.3     1  UNL1        0.1123
     15 N          -6.3017  -15.7946   24.6178 N.pl3   1  UNL1       -0.3023
     16 C          -7.7121  -16.1397   24.8496 C.3     1  UNL1        0.1123
     17 C          -8.3369  -15.1908   25.8814 C.3     1  UNL1        0.1122
     18 C          -5.7257  -15.9950   23.3132 C.ar    1  UNL1        0.0759
     19 C          -4.5808  -16.7974   23.1638 C.ar    1  UNL1        0.0191
     20 C          -4.0106  -16.9891   21.9021 C.ar    1  UNL1        0.0311
     21 C          -4.5788  -16.3852   20.7779 C.ar    1  UNL1        0.1425
     22 F          -4.0253  -16.5731   19.5546 F       1  UNL1       -0.2041
     23 C          -5.7205  -15.5911   20.9141 C.ar    1  UNL1        0.0605
     24 C          -6.2954  -15.3946   22.1743 C.ar    1  UNL1        0.1556
     25 F          -7.4255  -14.6516   22.2739 F       1  UNL1       -0.2028
     26 C         -10.6710  -10.1105   32.5839 C.3     1  UNL1        0.1535
     27 C         -10.9526   -8.8499   31.7960 C.2     1  UNL1        0.2443
     28 O         -12.1213   -8.3803   31.7429 O.2     1  UNL1       -0.2730
     29 N          -9.8820   -8.2051   31.0860 N.am    1  UNL1       -0.2825
     30 H          -9.0335   -8.7762   30.8702 H       1  UNL1        0.1549
     31 C          -9.8975   -6.8371   30.6386 C.ar    1  UNL1        0.0535
     32 C          -8.7181   -6.1537   30.2914 C.ar    1  UNL1        0.0353
     33 C          -8.7949   -4.8425   29.8157 C.ar    1  UNL1        0.1002
     34 N         -10.0026   -4.2348   29.6799 N.ar    1  UNL1       -0.2422
     35 C         -11.1597   -4.8742   29.9935 C.ar    1  UNL1        0.1002
     36 C         -11.1282   -6.1869   30.4697 C.ar    1  UNL1        0.0353
     37 C         -11.9050  -10.5993   33.3716 C.3     1  UNL1        0.0569
     38 C         -12.5346  -11.8034   32.7291 C.ar    1  UNL1       -0.0017
     39 C         -13.1944  -11.8335   31.5039 C.ar    1  UNL1        0.0681
     40 N         -13.5195  -13.1040   31.1732 N.ar    1  UNL1       -0.3523
     41 C         -13.0620  -13.8772   32.1730 C.ar    1  UNL1        0.0563
     42 C         -13.1210  -15.2675   32.2595 C.ar    1  UNL1        0.0170
     43 C         -12.5377  -15.8820   33.3826 C.ar    1  UNL1        0.0015
     44 C         -11.9157  -15.1024   34.3823 C.ar    1  UNL1        0.0001
     45 C         -11.8705  -13.7013   34.2682 C.ar    1  UNL1        0.0012
     46 C         -12.4560  -13.1200   33.1428 C.ar    1  UNL1        0.0131
     47 H         -14.0027  -13.4188   30.3026 H       1  UNL1        0.1660
@<TRIPOS>BOND
     1     1     2    2
     2     2     3   am
     3     3    26    1
     4    26    37    1
     5    37    38    1
     6    38    39   ar
     7    39    40   ar
     8    40    41   ar
     9    41    42   ar
    10    42    43   ar
    11    43    44   ar
    12    44    45   ar
    13    45    46   ar
    14    26    27    1
    15    27    28    2
    16    27    29   am
    17    29    31    1
    18    31    32   ar
    19    32    33   ar
    20    33    34   ar
    21    34    35   ar
    22    35    36   ar
    23     2     5    1
    24     5     6   ar
    25     6     7   ar
    26     7     8   ar
    27     8    12    1
    28    12    13    1
    29    13    14    1
    30    14    15    1
    31    15    18    1
    32    18    19   ar
    33    19    20   ar
    34    20    21   ar
    35    21    22    1
    36    21    23   ar
    37    23    24   ar
    38    24    25    1
    39    15    16    1
    40    16    17    1
    41     8     9   ar
    42     9    10   ar
    43    10    11    1
    44    46    38   ar
    45    36    31   ar
    46    10     5   ar
    47    46    41   ar
    48    17    12    1
    49    24    18   ar
    50     3     4    1
    51    40    47    1
    52    29    30    1
@<TRIPOS>MOLECULE
*****
 47 52 0 0 0
SMALL
GASTEIGER

@<TRIPOS>ATOM
      1 O          -9.4122  -15.2495   29.0724 O.2     1  UNL1       -0.2701
      2 C          -8.9337  -14.3782   28.2966 C.2     1  UNL1        0.2483
      3 N          -9.0596  -12.9789   28.6135 N.am    1  UNL1       -0.2945
      4 H          -8.8680  -12.2822   27.8586 H       1  UNL1        0.1501
      5 C          -8.2792  -14.8136   27.0426 C.ar    1  UNL1        0.0808
      6 C          -9.0673  -15.2401   25.9606 C.ar    1  UNL1        0.0080
      7 C          -8.4715  -15.6526   24.7660 C.ar    1  UNL1        0.0148
      8 C          -7.0750  -15.6616   24.6350 C.ar    1  UNL1        0.0502
      9 C          -6.2841  -15.2483   25.7185 C.ar    1  UNL1        0.0443
     10 C          -6.8766  -14.8326   26.9150 C.ar    1  UNL1        0.1457
     11 F          -6.0746  -14.4939   27.9563 F       1  UNL1       -0.2040
     12 N          -6.4606  -16.0766   23.4008 N.pl3   1  UNL1       -0.3040
     13 C          -6.4957  -17.4837   22.9845 C.3     1  UNL1        0.1122
     14 C          -5.0743  -17.9609   22.6804 C.3     1  UNL1        0.1123
     15 N          -4.3633  -17.0062   21.8134 N.pl3   1  UNL1       -0.3023
     16 C          -5.0139  -15.7535   21.4015 C.3     1  UNL1        0.1123
     17 C          -5.7193  -15.0945   22.5946 C.3     1  UNL1        0.1122
     18 C          -3.1398  -17.4159   21.1739 C.ar    1  UNL1        0.0759
     19 C          -3.1070  -18.5905   20.4017 C.ar    1  UNL1        0.0191
     20 C          -1.9209  -18.9995   19.7856 C.ar    1  UNL1        0.0311
     21 C          -0.7580  -18.2393   19.9311 C.ar    1  UNL1        0.1425
     22 F           0.3914  -18.6366   19.3318 F       1  UNL1       -0.2041
     23 C          -0.7811  -17.0667   20.6909 C.ar    1  UNL1        0.0605
     24 C          -1.9648  -16.6525   21.3109 C.ar    1  UNL1        0.1556
     25 F          -1.9701  -15.4906   22.0102 F       1  UNL1       -0.2028
     26 C          -9.4627  -12.4470   29.9236 C.3     1  UNL1        0.1535
     27 C          -9.3948  -10.9359   29.9555 C.2     1  UNL1        0.2443
     28 O          -8.4226  -10.3312   29.4278 O.2     1  UNL1       -0.2730
     29 N         -10.4345  -10.1945   30.6153 N.am    1  UNL1       -0.2825
     30 H         -11.0228  -10.7048   31.3127 H       1  UNL1        0.1549
     31 C         -10.7164   -8.7999   30.3973 C.ar    1  UNL1        0.0535
     32 C          -9.8550   -7.9735   29.6531 C.ar    1  UNL1        0.0353
     33 C         -10.2015   -6.6388   29.4300 C.ar    1  UNL1        0.1002
     34 N         -11.3685   -6.1448   29.9205 N.ar    1  UNL1       -0.2422
     35 C         -12.2272   -6.9224   30.6305 C.ar    1  UNL1        0.1002
     36 C         -11.9208   -8.2631   30.8739 C.ar    1  UNL1        0.0353
     37 C         -10.8489  -12.9819   30.3416 C.3     1  UNL1        0.0569
     38 C         -10.9283  -13.2255   31.8226 C.ar    1  UNL1       -0.0017
     39 C         -10.2588  -12.5118   32.8124 C.ar    1  UNL1        0.0681
     40 N         -10.6620  -12.9133   34.0394 N.ar    1  UNL1       -0.3523
     41 C         -11.5872  -13.8664   33.8334 C.ar    1  UNL1        0.0563
     42 C         -12.3250  -14.5492   34.7994 C.ar    1  UNL1        0.0170
     43 C         -13.2794  -15.4842   34.3590 C.ar    1  UNL1        0.0015
     44 C         -13.4730  -15.7130   32.9790 C.ar    1  UNL1        0.0001
     45 C         -12.7145  -15.0087   32.0266 C.ar    1  UNL1        0.0012
     46 C         -11.7765  -14.0869   32.4930 C.ar    1  UNL1        0.0131
     47 H         -10.3382  -12.5362   34.9578 H       1  UNL1        0.1660
@<TRIPOS>BOND
     1     1     2    2
     2     2     3   am
     3     3    26    1
     4    26    37    1
     5    37    38    1
     6    38    39   ar
     7    39    40   ar
     8    40    41   ar
     9    41    42   ar
    10    42    43   ar
    11    43    44   ar
    12    44    45   ar
    13    45    46   ar
    14    26    27    1
    15    27    28    2
    16    27    29   am
    17    29    31    1
    18    31    32   ar
    19    32    33   ar
    20    33    34   ar
    21    34    35   ar
    22    35    36   ar
    23     2     5    1
    24     5     6   ar
    25     6     7   ar
    26     7     8   ar
    27     8    12    1
    28    12    13    1
    29    13    14    1
    30    14    15    1
    31    15    18    1
    32    18    19   ar
    33    19    20   ar
    34    20    21   ar
    35    21    22    1
    36    21    23   ar
    37    23    24   ar
    38    24    25    1
    39    15    16    1
    40    16    17    1
    41     8     9   ar
    42     9    10   ar
    43    10    11    1
    44    46    38   ar
    45    36    31   ar
    46    10     5   ar
    47    46    41   ar
    48    17    12    1
    49    24    18   ar
    50     3     4    1
    51    40    47    1
    52    29    30    1
@<TRIPOS>MOLECULE
*****
 47 52 0 0 0
SMALL
GASTEIGER

@<TRIPOS>ATOM
      1 O          -8.2500  -10.0988   30.3762 O.2     1  UNL1       -0.2701
      2 C          -8.5416  -11.2745   30.7267 C.2     1  UNL1        0.2483
      3 N          -8.9367  -11.5484   32.0844 N.am    1  UNL1       -0.2945
      4 H          -8.9462  -12.5429   32.4050 H       1  UNL1        0.1501
      5 C          -8.4336  -12.3682   29.7354 C.ar    1  UNL1        0.0808
      6 C          -9.5815  -13.0934   29.3747 C.ar    1  UNL1        0.0080
      7 C          -9.5040  -14.1279   28.4387 C.ar    1  UNL1        0.0148
      8 C          -8.2742  -14.4682   27.8565 C.ar    1  UNL1        0.0502
      9 C          -7.1230  -13.7542   28.2242 C.ar    1  UNL1        0.0443
     10 C          -7.1966  -12.7166   29.1588 C.ar    1  UNL1        0.1457
     11 F          -6.0512  -12.0888   29.5275 F       1  UNL1       -0.2040
     12 N          -8.1954  -15.5272   26.8843 N.pl3   1  UNL1       -0.3040
     13 C          -7.5213  -15.3126   25.5981 C.3     1  UNL1        0.1122
     14 C          -8.4638  -15.7015   24.4575 C.3     1  UNL1        0.1123
     15 N          -9.0806  -17.0169   24.6980 N.pl3   1  UNL1       -0.3023
     16 C          -8.8010  -17.7497   25.9417 C.3     1  UNL1        0.1123
     17 C          -8.8706  -16.8067   27.1505 C.3     1  UNL1        0.1122
     18 C          -9.7504  -17.6865   23.6132 C.ar    1  UNL1        0.0759
     19 C          -9.3409  -18.9723   23.2182 C.ar    1  UNL1        0.0191
     20 C          -9.9801  -19.6248   22.1602 C.ar    1  UNL1        0.0311
     21 C         -11.0353  -19.0025   21.4889 C.ar    1  UNL1        0.1425
     22 F         -11.6552  -19.6372   20.4637 F       1  UNL1       -0.2041
     23 C         -11.4548  -17.7275   21.8776 C.ar    1  UNL1        0.0605
     24 C         -10.8185  -17.0687   22.9351 C.ar    1  UNL1        0.1556
     25 F         -11.2700  -15.8486   23.3179 F       1  UNL1       -0.2028
     26 C          -9.3103  -10.5264   33.0732 C.3     1  UNL1        0.1535
     27 C          -8.5131   -9.2541   32.8866 C.2     1  UNL1        0.2443
     28 O          -7.3877   -9.1213   33.4391 O.2     1  UNL1       -0.2730
     29 N          -9.0600   -8.1859   32.0954 N.am    1  UNL1       -0.2825
     30 H         -10.0937   -8.1810   31.9401 H       1  UNL1        0.1549
     31 C          -8.2923   -7.1164   31.5134 C.ar    1  UNL1        0.0535
     32 C          -6.8860   -7.1096   31.5389 C.ar    1  UNL1        0.0353
     33 C          -6.1895   -6.0716   30.9152 C.ar    1  UNL1        0.1002
     34 N          -6.8667   -5.0800   30.2792 N.ar    1  UNL1       -0.2422
     35 C          -8.2244   -5.0672   30.2255 C.ar    1  UNL1        0.1002
     36 C          -8.9594   -6.0875   30.8334 C.ar    1  UNL1        0.0353
     37 C         -10.8327  -10.2723   33.0666 C.3     1  UNL1        0.0569
     38 C         -11.5944  -11.4675   32.5660 C.ar    1  UNL1       -0.0017
     39 C         -12.2243  -11.5851   31.3304 C.ar    1  UNL1        0.0681
     40 N         -12.6997  -12.8397   31.1597 N.ar    1  UNL1       -0.3523
     41 C         -12.3667  -13.5180   32.2714 C.ar    1  UNL1        0.0563
     42 C         -12.6030  -14.8655   32.5405 C.ar    1  UNL1        0.0170
     43 C         -12.1281  -15.3862   33.7580 C.ar    1  UNL1        0.0015
     44 C         -11.4357  -14.5583   34.6687 C.ar    1  UNL1        0.0001
     45 C         -11.2112  -13.2023   34.3703 C.ar    1  UNL1        0.0012
     46 C         -11.6925  -12.7143   33.1548 C.ar    1  UNL1        0.0131
     47 H         -13.1985  -13.2099   30.3203 H       1  UNL1        0.1660
@<TRIPOS>BOND
     1     1     2    2
     2     2     3   am
     3     3    26    1
     4    26    37    1
     5    37    38    1
     6    38    39   ar
     7    39    40   ar
     8    40    41   ar
     9    41    42   ar
    10    42    43   ar
    11    43    44   ar
    12    44    45   ar
    13    45    46   ar
    14    26    27    1
    15    27    28    2
    16    27    29   am
    17    29    31    1
    18    31    32   ar
    19    32    33   ar
    20    33    34   ar
    21    34    35   ar
    22    35    36   ar
    23     2     5    1
    24     5     6   ar
    25     6     7   ar
    26     7     8   ar
    27     8    12    1
    28    12    13    1
    29    13    14    1
    30    14    15    1
    31    15    18    1
    32    18    19   ar
    33    19    20   ar
    34    20    21   ar
    35    21    22    1
    36    21    23   ar
    37    23    24   ar
    38    24    25    1
    39    15    16    1
    40    16    17    1
    41     8     9   ar
    42     9    10   ar
    43    10    11    1
    44    46    38   ar
    45    36    31   ar
    46    10     5   ar
    47    46    41   ar
    48    17    12    1
    49    24    18   ar
    50     3     4    1
    51    40    47    1
    52    29    30    1
@<TRIPOS>MOLECULE
*****
 47 52 0 0 0
SMALL
GASTEIGER

@<TRIPOS>ATOM
      1 O          -9.6092  -10.4907   30.2885 O.2     1  UNL1       -0.2701
      2 C          -8.7800  -11.3870   30.6032 C.2     1  UNL1        0.2483
      3 N          -8.1664  -11.3808   31.9063 N.am    1  UNL1       -0.2945
      4 H          -7.3257  -11.9821   32.0593 H       1  UNL1        0.1501
      5 C          -8.4200  -12.4168   29.6029 C.ar    1  UNL1        0.0808
      6 C          -9.4012  -13.3120   29.1451 C.ar    1  UNL1        0.0080
      7 C          -9.0851  -14.2902   28.1988 C.ar    1  UNL1        0.0148
      8 C          -7.7778  -14.4028   27.7032 C.ar    1  UNL1        0.0502
      9 C          -6.7920  -13.5182   28.1680 C.ar    1  UNL1        0.0443
     10 C          -7.1047  -12.5364   29.1133 C.ar    1  UNL1        0.1457
     11 F          -6.1102  -11.7378   29.5772 F       1  UNL1       -0.2040
     12 N          -7.4537  -15.4039   26.7204 N.pl3   1  UNL1       -0.3040
     13 C          -6.2053  -16.1697   26.8170 C.3     1  UNL1        0.1122
     14 C          -5.4423  -16.0697   25.4948 C.3     1  UNL1        0.1123
     15 N          -6.3243  -16.3372   24.3464 N.pl3   1  UNL1       -0.3023
     16 C          -7.7562  -16.5969   24.5571 C.3     1  UNL1        0.1123
     17 C          -8.3427  -15.5988   25.5647 C.3     1  UNL1        0.1122
     18 C          -5.7383  -16.5892   23.0553 C.ar    1  UNL1        0.0759
     19 C          -5.9301  -17.8310   22.4244 C.ar    1  UNL1        0.0191
     20 C          -5.3567  -18.0863   21.1754 C.ar    1  UNL1        0.0311
     21 C          -4.5900  -17.1047   20.5431 C.ar    1  UNL1        0.1425
     22 F          -4.0356  -17.3533   19.3311 F       1  UNL1       -0.2041
     23 C          -4.3985  -15.8647   21.1582 C.ar    1  UNL1        0.0605
     24 C          -4.9689  -15.6032   22.4087 C.ar    1  UNL1        0.1556
     25 F          -4.8005  -14.3785   22.9662 F       1  UNL1       -0.2028
     26 C          -8.6208  -10.5692   33.0450 C.3     1  UNL1        0.1535
     27 C          -8.3104   -9.1024   32.8418 C.2     1  UNL1        0.2443
     28 O          -7.4322   -8.5342   33.5455 O.2     1  UNL1       -0.2730
     29 N          -9.0429   -8.3537   31.8574 N.am    1  UNL1       -0.2825
     30 H          -9.9613   -8.7409   31.5419 H       1  UNL1        0.1549
     31 C          -8.6127   -7.1051   31.2849 C.ar    1  UNL1        0.0535
     32 C          -9.5031   -6.2475   30.6138 C.ar    1  UNL1        0.0353
     33 C          -9.0431   -5.0242   30.1205 C.ar    1  UNL1        0.1002
     34 N          -7.7457   -4.6609   30.2968 N.ar    1  UNL1       -0.2422
     35 C          -6.8659   -5.4617   30.9533 C.ar    1  UNL1        0.1002
     36 C          -7.2851   -6.6917   31.4650 C.ar    1  UNL1        0.0353
     37 C         -10.1138  -10.8174   33.3479 C.3     1  UNL1        0.0569
     38 C         -10.3462  -12.1902   33.9141 C.ar    1  UNL1       -0.0017
     39 C          -9.6899  -12.7541   35.0043 C.ar    1  UNL1        0.0681
     40 N         -10.2385  -13.9495   35.3198 N.ar    1  UNL1       -0.3523
     41 C         -11.2415  -14.1406   34.4455 C.ar    1  UNL1        0.0563
     42 C         -12.1299  -15.2143   34.4019 C.ar    1  UNL1        0.0170
     43 C         -13.1396  -15.1931   33.4226 C.ar    1  UNL1        0.0015
     44 C         -13.2380  -14.1119   32.5196 C.ar    1  UNL1        0.0001
     45 C         -12.3279  -13.0416   32.5875 C.ar    1  UNL1        0.0012
     46 C         -11.3381  -13.0894   33.5699 C.ar    1  UNL1        0.0131
     47 H          -9.9554  -14.5795   36.1029 H       1  UNL1        0.1660
@<TRIPOS>BOND
     1     1     2    2
     2     2     3   am
     3     3    26    1
     4    26    37    1
     5    37    38    1
     6    38    39   ar
     7    39    40   ar
     8    40    41   ar
     9    41    42   ar
    10    42    43   ar
    11    43    44   ar
    12    44    45   ar
    13    45    46   ar
    14    26    27    1
    15    27    28    2
    16    27    29   am
    17    29    31    1
    18    31    32   ar
    19    32    33   ar
    20    33    34   ar
    21    34    35   ar
    22    35    36   ar
    23     2     5    1
    24     5     6   ar
    25     6     7   ar
    26     7     8   ar
    27     8    12    1
    28    12    13    1
    29    13    14    1
    30    14    15    1
    31    15    18    1
    32    18    19   ar
    33    19    20   ar
    34    20    21   ar
    35    21    22    1
    36    21    23   ar
    37    23    24   ar
    38    24    25    1
    39    15    16    1
    40    16    17    1
    41     8     9   ar
    42     9    10   ar
    43    10    11    1
    44    46    38   ar
    45    36    31   ar
    46    10     5   ar
    47    46    41   ar
    48    17    12    1
    49    24    18   ar
    50     3     4    1
    51    40    47    1
    52    29    30    1
@<TRIPOS>MOLECULE
*****
 47 52 0 0 0
SMALL
GASTEIGER

@<TRIPOS>ATOM
      1 O          -8.6599  -10.4040   30.3997 O.2     1  UNL1       -0.2701
      2 C          -8.2808  -11.5734   30.6809 C.2     1  UNL1        0.2483
      3 N          -7.8565  -11.8949   32.0192 N.am    1  UNL1       -0.2945
      4 H          -7.3354  -12.7878   32.1711 H       1  UNL1        0.1501
      5 C          -8.2417  -12.5938   29.6095 C.ar    1  UNL1        0.0808
      6 C          -7.0104  -12.9473   29.0328 C.ar    1  UNL1        0.0080
      7 C          -6.9489  -13.9102   28.0223 C.ar    1  UNL1        0.0148
      8 C          -8.1195  -14.5276   27.5574 C.ar    1  UNL1        0.0502
      9 C          -9.3529  -14.1674   28.1224 C.ar    1  UNL1        0.0443
     10 C          -9.4185  -13.2058   29.1356 C.ar    1  UNL1        0.1457
     11 F         -10.6361  -12.8467   29.6157 F       1  UNL1       -0.2040
     12 N          -8.0558  -15.5274   26.5233 N.pl3   1  UNL1       -0.3040
     13 C          -7.1580  -15.3584   25.3744 C.3     1  UNL1        0.1122
     14 C          -7.9546  -15.5150   24.0777 C.3     1  UNL1        0.1123
     15 N          -8.8045  -16.7169   24.1136 N.pl3   1  UNL1       -0.3023
     16 C          -8.8495  -17.5563   25.3201 C.3     1  UNL1        0.1123
     17 C          -8.9609  -16.6856   26.5790 C.3     1  UNL1        0.1122
     18 C          -9.3895  -17.1994   22.8894 C.ar    1  UNL1        0.0759
     19 C          -8.7375  -18.1954   22.1411 C.ar    1  UNL1        0.0191
     20 C          -9.2945  -18.6620   20.9470 C.ar    1  UNL1        0.0311
     21 C         -10.5080  -18.1422   20.4903 C.ar    1  UNL1        0.1425
     22 F         -11.0477  -18.5968   19.3326 F       1  UNL1       -0.2041
     23 C         -11.1677  -17.1568   21.2295 C.ar    1  UNL1        0.0605
     24 C         -10.6150  -16.6848   22.4249 C.ar    1  UNL1        0.1556
     25 F         -11.2943  -15.7565   23.1431 F       1  UNL1       -0.2028
     26 C          -8.0813  -11.0462   33.1986 C.3     1  UNL1        0.1535
     27 C          -7.4840   -9.6684   33.0145 C.2     1  UNL1        0.2443
     28 O          -7.9830   -8.6739   33.6073 O.2     1  UNL1       -0.2730
     29 N          -6.3582   -9.4965   32.1375 N.am    1  UNL1       -0.2825
     30 H          -6.1860  -10.2392   31.4223 H       1  UNL1        0.1549
     31 C          -5.4599   -8.3721   32.1619 C.ar    1  UNL1        0.0535
     32 C          -5.2802   -7.5380   31.0436 C.ar    1  UNL1        0.0353
     33 C          -4.4336   -6.4308   31.1375 C.ar    1  UNL1        0.1002
     34 N          -3.7954   -6.1559   32.3053 N.ar    1  UNL1       -0.2422
     35 C          -3.9604   -6.9350   33.4062 C.ar    1  UNL1        0.1002
     36 C          -4.8002   -8.0498   33.3564 C.ar    1  UNL1        0.0353
     37 C          -9.5780  -10.9929   33.5718 C.3     1  UNL1        0.0569
     38 C         -10.0822  -12.3281   34.0430 C.ar    1  UNL1       -0.0017
     39 C          -9.6405  -13.0277   35.1623 C.ar    1  UNL1        0.0681
     40 N         -10.4010  -14.1281   35.3625 N.ar    1  UNL1       -0.3523
     41 C         -11.3251  -14.1241   34.3863 C.ar    1  UNL1        0.0563
     42 C         -12.3627  -15.0371   34.2027 C.ar    1  UNL1        0.0170
     43 C         -13.2490  -14.8190   33.1322 C.ar    1  UNL1        0.0015
     44 C         -13.0806  -13.7062   32.2793 C.ar    1  UNL1        0.0001
     45 C         -12.0248  -12.8008   32.4890 C.ar    1  UNL1        0.0012
     46 C         -11.1626  -13.0420   33.5594 C.ar    1  UNL1        0.0131
     47 H         -10.3041  -14.8220   36.1368 H       1  UNL1        0.1660
@<TRIPOS>BOND
     1     1     2    2
     2     2     3   am
     3     3    26    1
     4    26    37    1
     5    37    38    1
     6    38    39   ar
     7    39    40   ar
     8    40    41   ar
     9    41    42   ar
    10    42    43   ar
    11    43    44   ar
    12    44    45   ar
    13    45    46   ar
    14    26    27    1
    15    27    28    2
    16    27    29   am
    17    29    31    1
    18    31    32   ar
    19    32    33   ar
    20    33    34   ar
    21    34    35   ar
    22    35    36   ar
    23     2     5    1
    24     5     6   ar
    25     6     7   ar
    26     7     8   ar
    27     8    12    1
    28    12    13    1
    29    13    14    1
    30    14    15    1
    31    15    18    1
    32    18    19   ar
    33    19    20   ar
    34    20    21   ar
    35    21    22    1
    36    21    23   ar
    37    23    24   ar
    38    24    25    1
    39    15    16    1
    40    16    17    1
    41     8     9   ar
    42     9    10   ar
    43    10    11    1
    44    46    38   ar
    45    36    31   ar
    46    10     5   ar
    47    46    41   ar
    48    17    12    1
    49    24    18   ar
    50     3     4    1
    51    40    47    1
    52    29    30    1
@<TRIPOS>MOLECULE
*****
 47 52 0 0 0
SMALL
GASTEIGER

@<TRIPOS>ATOM
      1 O          -5.6539  -16.6800   26.6986 O.2     1  UNL1       -0.2701
      2 C          -6.2651  -15.6746   26.2449 C.2     1  UNL1        0.2483
      3 N          -6.2599  -15.4012   24.8308 N.am    1  UNL1       -0.2945
      4 H          -6.5674  -14.4558   24.5093 H       1  UNL1        0.1501
      5 C          -6.9507  -14.7636   27.1887 C.ar    1  UNL1        0.0808
      6 C          -6.2377  -13.7014   27.7692 C.ar    1  UNL1        0.0080
      7 C          -6.8650  -12.8270   28.6603 C.ar    1  UNL1        0.0148
      8 C          -8.2138  -13.0068   29.0008 C.ar    1  UNL1        0.0502
      9 C          -8.9257  -14.0748   28.4326 C.ar    1  UNL1        0.0443
     10 C          -8.3022  -14.9508   27.5385 C.ar    1  UNL1        0.1457
     11 F          -9.0110  -16.0024   27.0551 F       1  UNL1       -0.2040
     12 N          -8.8636  -12.1000   29.9110 N.pl3   1  UNL1       -0.3040
     13 C         -10.3275  -11.9976   29.9462 C.3     1  UNL1        0.1122
     14 C         -10.7401  -10.5335   29.7824 C.3     1  UNL1        0.1123
     15 N          -9.9690   -9.6566   30.6795 N.pl3   1  UNL1       -0.3023
     16 C          -8.9161  -10.2180   31.5388 C.3     1  UNL1        0.1123
     17 C          -8.0486  -11.2091   30.7512 C.3     1  UNL1        0.1122
     18 C         -10.4156   -8.3044   30.8933 C.ar    1  UNL1        0.0759
     19 C          -9.5060   -7.2370   30.7911 C.ar    1  UNL1        0.0191
     20 C          -9.9302   -5.9227   31.0064 C.ar    1  UNL1        0.0311
     21 C         -11.2655   -5.6607   31.3221 C.ar    1  UNL1        0.1425
     22 F         -11.6756   -4.3851   31.5293 F       1  UNL1       -0.2041
     23 C         -12.1793   -6.7133   31.4197 C.ar    1  UNL1        0.0605
     24 C         -11.7609   -8.0312   31.2063 C.ar    1  UNL1        0.1556
     25 F         -12.6753   -9.0306   31.2685 F       1  UNL1       -0.2028
     26 C          -5.8301  -16.3501   23.7932 C.3     1  UNL1        0.1535
     27 C          -6.9795  -16.7497   22.8941 C.2     1  UNL1        0.2443
     28 O          -7.7248  -15.8698   22.3847 O.2     1  UNL1       -0.2730
     29 N          -7.2321  -18.1427   22.6453 N.am    1  UNL1       -0.2825
     30 H          -6.8351  -18.8334   23.3221 H       1  UNL1        0.1549
     31 C          -8.0020  -18.6555   21.5425 C.ar    1  UNL1        0.0535
     32 C          -7.3959  -19.0936   20.3511 C.ar    1  UNL1        0.0353
     33 C          -8.1863  -19.6288   19.3311 C.ar    1  UNL1        0.1002
     34 N          -9.5312  -19.7347   19.4933 N.ar    1  UNL1       -0.2422
     35 C         -10.1432  -19.3333   20.6381 C.ar    1  UNL1        0.1002
     36 C          -9.3899  -18.7953   21.6840 C.ar    1  UNL1        0.0353
     37 C          -4.6256  -15.8019   22.9988 C.3     1  UNL1        0.0569
     38 C          -4.4996  -16.4607   21.6537 C.ar    1  UNL1       -0.0017
     39 C          -4.6915  -15.8522   20.4167 C.ar    1  UNL1        0.0681
     40 N          -4.3689  -16.7031   19.4161 N.ar    1  UNL1       -0.3523
     41 C          -3.9651  -17.8394   20.0100 C.ar    1  UNL1        0.0563
     42 C          -3.4894  -18.9934   19.3889 C.ar    1  UNL1        0.0170
     43 C          -3.0768  -20.0593   20.2089 C.ar    1  UNL1        0.0015
     44 C          -3.1478  -19.9494   21.6150 C.ar    1  UNL1        0.0001
     45 C          -3.6316  -18.7724   22.2142 C.ar    1  UNL1        0.0012
     46 C          -4.0322  -17.7315   21.3756 C.ar    1  UNL1        0.0131
     47 H          -4.4010  -16.5036   18.3916 H       1  UNL1        0.1660
@<TRIPOS>BOND
     1     1     2    2
     2     2     3   am
     3     3    26    1
     4    26    37    1
     5    37    38    1
     6    38    39   ar
     7    39    40   ar
     8    40    41   ar
     9    41    42   ar
    10    42    43   ar
    11    43    44   ar
    12    44    45   ar
    13    45    46   ar
    14    26    27    1
    15    27    28    2
    16    27    29   am
    17    29    31    1
    18    31    32   ar
    19    32    33   ar
    20    33    34   ar
    21    34    35   ar
    22    35    36   ar
    23     2     5    1
    24     5     6   ar
    25     6     7   ar
    26     7     8   ar
    27     8    12    1
    28    12    13    1
    29    13    14    1
    30    14    15    1
    31    15    18    1
    32    18    19   ar
    33    19    20   ar
    34    20    21   ar
    35    21    22    1
    36    21    23   ar
    37    23    24   ar
    38    24    25    1
    39    15    16    1
    40    16    17    1
    41     8     9   ar
    42     9    10   ar
    43    10    11    1
    44    46    38   ar
    45    36    31   ar
    46    10     5   ar
    47    46    41   ar
    48    17    12    1
    49    24    18   ar
    50     3     4    1
    51    40    47    1
    52    29    30    1
@<TRIPOS>MOLECULE
*****
 47 52 0 0 0
SMALL
GASTEIGER

@<TRIPOS>ATOM
      1 O          -5.2962  -16.6883   26.4695 O.2     1  UNL1       -0.2701
      2 C          -6.0700  -15.7984   26.0229 C.2     1  UNL1        0.2483
      3 N          -6.2453  -15.6375   24.6024 N.am    1  UNL1       -0.2945
      4 H          -6.6983  -14.7616   24.2567 H       1  UNL1        0.1501
      5 C          -6.7606  -14.9015   26.9765 C.ar    1  UNL1        0.0808
      6 C          -6.0601  -13.8271   27.5498 C.ar    1  UNL1        0.0080
      7 C          -6.6924  -12.9656   28.4499 C.ar    1  UNL1        0.0148
      8 C          -8.0333  -13.1707   28.8068 C.ar    1  UNL1        0.0502
      9 C          -8.7324  -14.2508   28.2457 C.ar    1  UNL1        0.0443
     10 C          -8.1040  -15.1140   27.3427 C.ar    1  UNL1        0.1457
     11 F          -8.7992  -16.1779   26.8664 F       1  UNL1       -0.2040
     12 N          -8.6885  -12.2772   29.7263 N.pl3   1  UNL1       -0.3040
     13 C         -10.1533  -12.1959   29.7740 C.3     1  UNL1        0.1122
     14 C         -10.5881  -10.7372   29.6201 C.3     1  UNL1        0.1123
     15 N          -9.8222   -9.8533   30.5147 N.pl3   1  UNL1       -0.3023
     16 C          -8.7543  -10.4033   31.3629 C.3     1  UNL1        0.1123
     17 C          -7.8793  -11.3784   30.5637 C.3     1  UNL1        0.1122
     18 C         -10.2863   -8.5085   30.7382 C.ar    1  UNL1        0.0759
     19 C          -9.4074   -7.4231   30.5750 C.ar    1  UNL1        0.0191
     20 C          -9.8482   -6.1158   30.7991 C.ar    1  UNL1        0.0311
     21 C         -11.1697   -5.8787   31.1846 C.ar    1  UNL1        0.1425
     22 F         -11.5961   -4.6099   31.4004 F       1  UNL1       -0.2041
     23 C         -12.0534   -6.9496   31.3433 C.ar    1  UNL1        0.0605
     24 C         -11.6182   -8.2606   31.1214 C.ar    1  UNL1        0.1556
     25 F         -12.5056   -9.2786   31.2442 F       1  UNL1       -0.2028
     26 C          -5.8123  -16.6087   23.5870 C.3     1  UNL1        0.1535
     27 C          -6.8713  -16.8140   22.5262 C.2     1  UNL1        0.2443
     28 O          -7.0663  -15.9358   21.6430 O.2     1  UNL1       -0.2730
     29 N          -7.6725  -18.0072   22.5477 N.am    1  UNL1       -0.2825
     30 H          -7.7271  -18.5355   23.4481 H       1  UNL1        0.1549
     31 C          -8.4153  -18.5203   21.4265 C.ar    1  UNL1        0.0535
     32 C          -7.7922  -19.2223   20.3789 C.ar    1  UNL1        0.0353
     33 C          -8.5675  -19.7420   19.3395 C.ar    1  UNL1        0.1002
     34 N          -9.9164  -19.5788   19.3461 N.ar    1  UNL1       -0.2422
     35 C         -10.5479  -18.9180   20.3515 C.ar    1  UNL1        0.1002
     36 C          -9.8108  -18.3853   21.4114 C.ar    1  UNL1        0.0353
     37 C          -4.4460  -16.2167   22.9854 C.3     1  UNL1        0.0569
     38 C          -3.6375  -17.4255   22.6055 C.ar    1  UNL1       -0.0017
     39 C          -3.9887  -18.7543   22.8253 C.ar    1  UNL1        0.0681
     40 N          -3.0940  -19.5827   22.2401 N.ar    1  UNL1       -0.3523
     41 C          -2.1871  -18.7894   21.6441 C.ar    1  UNL1        0.0563
     42 C          -1.0948  -19.1865   20.8740 C.ar    1  UNL1        0.0170
     43 C          -0.2921  -18.1819   20.3037 C.ar    1  UNL1        0.0015
     44 C          -0.5956  -16.8187   20.5131 C.ar    1  UNL1        0.0001
     45 C          -1.7047  -16.4474   21.2943 C.ar    1  UNL1        0.0012
     46 C          -2.4833  -17.4656   21.8459 C.ar    1  UNL1        0.0131
     47 H          -3.1219  -20.6266   22.2313 H       1  UNL1        0.1660
@<TRIPOS>BOND
     1     1     2    2
     2     2     3   am
     3     3    26    1
     4    26    37    1
     5    37    38    1
     6    38    39   ar
     7    39    40   ar
     8    40    41   ar
     9    41    42   ar
    10    42    43   ar
    11    43    44   ar
    12    44    45   ar
    13    45    46   ar
    14    26    27    1
    15    27    28    2
    16    27    29   am
    17    29    31    1
    18    31    32   ar
    19    32    33   ar
    20    33    34   ar
    21    34    35   ar
    22    35    36   ar
    23     2     5    1
    24     5     6   ar
    25     6     7   ar
    26     7     8   ar
    27     8    12    1
    28    12    13    1
    29    13    14    1
    30    14    15    1
    31    15    18    1
    32    18    19   ar
    33    19    20   ar
    34    20    21   ar
    35    21    22    1
    36    21    23   ar
    37    23    24   ar
    38    24    25    1
    39    15    16    1
    40    16    17    1
    41     8     9   ar
    42     9    10   ar
    43    10    11    1
    44    46    38   ar
    45    36    31   ar
    46    10     5   ar
    47    46    41   ar
    48    17    12    1
    49    24    18   ar
    50     3     4    1
    51    40    47    1
    52    29    30    1
