@<TRIPOS>MOLECULE
*****
 51 56 0 0 0
SMALL
GASTEIGER

@<TRIPOS>ATOM
      1 N          59.1122   85.7608    9.9488 N.am    1  UNL1       -0.2945
      2 C          59.5635   87.0379    9.4759 C.2     1  UNL1        0.2483
      3 O          59.1306   87.4937    8.3824 O.2     1  UNL1       -0.2701
      4 H          59.6876   85.2623   10.6639 H       1  UNL1        0.1501
      5 C          60.5490   87.8175   10.2510 C.ar    1  UNL1        0.0808
      6 C          60.4735   89.2190   10.2703 C.ar    1  UNL1        0.0080
      7 C          61.4072   89.9683   10.9909 C.ar    1  UNL1        0.0148
      8 C          62.4246   89.3279   11.7164 C.ar    1  UNL1        0.0502
      9 C          62.4889   87.9262   11.7132 C.ar    1  UNL1        0.0443
     10 C          61.5567   87.1739   10.9926 C.ar    1  UNL1        0.1457
     11 F          61.6112   85.8196   11.0621 F       1  UNL1       -0.2040
     12 N          63.3921   90.0944   12.4579 N.pl3   1  UNL1       -0.3040
     13 C          63.9169   91.3536   11.9172 C.3     1  UNL1        0.1123
     14 C          65.4027   91.4868   12.2530 C.3     1  UNL1        0.1136
     15 N          65.6270   91.2108   13.6786 N.pl3   1  UNL1       -0.2897
     16 C          65.1028   89.9493   14.2154 C.3     1  UNL1        0.1136
     17 C          63.6168   89.8140   13.8809 C.3     1  UNL1        0.1123
     18 C          66.6471   91.9216   14.4047 C.ar    1  UNL1        0.1318
     19 C          66.3503   92.5735   15.6104 C.ar    1  UNL1        0.0343
     20 C          67.3627   93.2449   16.2977 C.ar    1  UNL1        0.0083
     21 C          68.6747   93.2452   15.8002 C.ar    1  UNL1        0.0906
     22 C          68.9266   92.5914   14.5838 C.ar    1  UNL1        0.1041
     23 N          67.9238   91.9468   13.9309 N.ar    1  UNL1       -0.2292
     24 C          69.7666   94.0078   16.5064 C.3     1  UNL1        0.4200
     25 F          69.2285   94.8908   17.4265 F       1  UNL1       -0.1658
     26 F          70.5006   94.7186   15.5755 F       1  UNL1       -0.1658
     27 F          70.6103   93.1414   17.1799 F       1  UNL1       -0.1658
     28 C          57.8740   85.1478    9.4599 C.3     1  UNL1        0.1535
     29 C          58.1864   84.1573    8.3704 C.2     1  UNL1        0.2443
     30 O          58.8418   84.5338    7.3602 O.2     1  UNL1       -0.2730
     31 N          57.7312   82.7989    8.4794 N.am    1  UNL1       -0.2825
     32 H          56.9696   82.5912    9.1643 H       1  UNL1        0.1549
     33 C          58.1773   81.7304    7.6273 C.ar    1  UNL1        0.0535
     34 C          59.5251   81.3467    7.6516 C.ar    1  UNL1        0.0353
     35 C          59.9686   80.3247    6.8088 C.ar    1  UNL1        0.1002
     36 N          59.1002   79.7179    5.9574 N.ar    1  UNL1       -0.2422
     37 C          57.7919   80.0817    5.8964 C.ar    1  UNL1        0.1002
     38 C          57.3068   81.0983    6.7231 C.ar    1  UNL1        0.0353
     39 C          57.1099   84.4447   10.5984 C.3     1  UNL1        0.0565
     40 C          58.6935   84.4547   12.6952 C.ar    1  UNL1        0.0296
     41 N          59.4387   83.5500   13.3757 N.ar    1  UNL1       -0.3567
     42 C          59.2620   82.3735   12.7533 C.ar    1  UNL1        0.0561
     43 C          59.8301   81.1469   13.0951 C.ar    1  UNL1        0.0169
     44 C          59.5189   80.0321   12.2960 C.ar    1  UNL1        0.0015
     45 C          58.6609   80.1680   11.1829 C.ar    1  UNL1        0.0001
     46 C          58.1052   81.4191   10.8601 C.ar    1  UNL1        0.0012
     47 C          58.4255   82.5064   11.6755 C.ar    1  UNL1        0.0127
     48 C          58.0485   83.8363   11.6113 C.ar    1  UNL1       -0.0072
     49 H          60.0439   83.7296   14.2077 H       1  UNL1        0.1656
     50 C          59.8185   86.2852   13.9921 C.3     1  UNL1        0.0066
     51 C          58.6731   85.9192   13.0518 C.3     1  UNL1        0.0432
@<TRIPOS>BOND
     1    50    51    1
     2    51    40    1
     3    40    41   ar
     4    41    42   ar
     5    42    43   ar
     6    43    44   ar
     7    44    45   ar
     8    45    46   ar
     9    46    47   ar
    10    47    48   ar
    11    48    39    1
    12    39    28    1
    13    28     1    1
    14     1     2   am
    15     2     3    2
    16     2     5    1
    17     5     6   ar
    18     6     7   ar
    19     7     8   ar
    20     8    12    1
    21    12    13    1
    22    13    14    1
    23    14    15    1
    24    15    18    1
    25    18    19   ar
    26    19    20   ar
    27    20    21   ar
    28    21    24    1
    29    24    25    1
    30    24    26    1
    31    24    27    1
    32    21    22   ar
    33    22    23   ar
    34    15    16    1
    35    16    17    1
    36     8     9   ar
    37     9    10   ar
    38    10    11    1
    39    28    29    1
    40    29    30    2
    41    29    31   am
    42    31    33    1
    43    33    34   ar
    44    34    35   ar
    45    35    36   ar
    46    36    37   ar
    47    37    38   ar
    48    48    40   ar
    49    10     5   ar
    50    38    33   ar
    51    47    42   ar
    52    17    12    1
    53    23    18   ar
    54    41    49    1
    55     1     4    1
    56    31    32    1
@<TRIPOS>MOLECULE
*****
 51 56 0 0 0
SMALL
GASTEIGER

@<TRIPOS>ATOM
      1 N          59.1451   86.0577    9.7090 N.am    1  UNL1       -0.2945
      2 C          59.4283   87.4258    9.3827 C.2     1  UNL1        0.2483
      3 O          58.8278   87.9819    8.4230 O.2     1  UNL1       -0.2701
      4 H          59.8433   85.5255   10.2748 H       1  UNL1        0.1501
      5 C          60.4347   88.1856   10.1506 C.ar    1  UNL1        0.0808
      6 C          60.4464   89.5881   10.0931 C.ar    1  UNL1        0.0080
      7 C          61.4010   90.3178   10.8064 C.ar    1  UNL1        0.0148
      8 C          62.3520   89.6577   11.6011 C.ar    1  UNL1        0.0502
      9 C          62.3284   88.2566   11.6744 C.ar    1  UNL1        0.0443
     10 C          61.3751   87.5238   10.9613 C.ar    1  UNL1        0.1457
     11 F          61.3425   86.1745   11.1042 F       1  UNL1       -0.2040
     12 N          63.3406   90.4037   12.3355 N.pl3   1  UNL1       -0.3040
     13 C          63.9602   91.5974   11.7486 C.3     1  UNL1        0.1123
     14 C          65.4397   91.6586   12.1302 C.3     1  UNL1        0.1136
     15 N          65.5997   91.4479   13.5754 N.pl3   1  UNL1       -0.2897
     16 C          64.9807   90.2516   14.1585 C.3     1  UNL1        0.1136
     17 C          63.5009   90.1883   13.7785 C.3     1  UNL1        0.1123
     18 C          66.6379   92.1344   14.2993 C.ar    1  UNL1        0.1318
     19 C          66.7468   93.5317   14.2494 C.ar    1  UNL1        0.0343
     20 C          67.7566   94.1700   14.9710 C.ar    1  UNL1        0.0083
     21 C          68.6407   93.4216   15.7629 C.ar    1  UNL1        0.0906
     22 C          68.5052   92.0244   15.7751 C.ar    1  UNL1        0.1041
     23 N          67.5156   91.4249   15.0618 N.ar    1  UNL1       -0.2292
     24 C          69.7660   94.0937   16.5075 C.3     1  UNL1        0.4200
     25 F          70.5075   94.8924   15.6540 F       1  UNL1       -0.1658
     26 F          70.5918   93.1284   17.0524 F       1  UNL1       -0.1658
     27 F          69.2709   94.8906   17.5252 F       1  UNL1       -0.1658
     28 C          57.9105   85.3981    9.2749 C.3     1  UNL1        0.1535
     29 C          58.2271   84.3311    8.2615 C.2     1  UNL1        0.2443
     30 O          58.8401   84.6433    7.2040 O.2     1  UNL1       -0.2730
     31 N          57.8235   82.9722    8.4961 N.am    1  UNL1       -0.2825
     32 H          57.0893   82.7973    9.2190 H       1  UNL1        0.1549
     33 C          58.2832   81.8516    7.7215 C.ar    1  UNL1        0.0535
     34 C          59.5799   81.3597    7.9237 C.ar    1  UNL1        0.0353
     35 C          60.0396   80.2860    7.1574 C.ar    1  UNL1        0.1002
     36 N          59.2387   79.7328    6.2089 N.ar    1  UNL1       -0.2422
     37 C          57.9840   80.2008    5.9756 C.ar    1  UNL1        0.1002
     38 C          57.4847   81.2722    6.7206 C.ar    1  UNL1        0.0353
     39 C          57.1589   84.7760   10.4676 C.3     1  UNL1        0.0565
     40 C          58.7022   83.5466   12.2029 C.ar    1  UNL1        0.0296
     41 N          59.4051   83.8816   13.3122 N.ar    1  UNL1       -0.3567
     42 C          59.2095   85.1968   13.4980 C.ar    1  UNL1        0.0561
     43 C          59.7351   85.9902   14.5170 C.ar    1  UNL1        0.0169
     44 C          59.3920   87.3541   14.5325 C.ar    1  UNL1        0.0015
     45 C          58.5366   87.8870   13.5436 C.ar    1  UNL1        0.0001
     46 C          58.0184   87.0615   12.5295 C.ar    1  UNL1        0.0012
     47 C          58.3824   85.7134   12.5346 C.ar    1  UNL1        0.0127
     48 C          58.0365   84.6726   11.6908 C.ar    1  UNL1       -0.0072
     49 H          59.9730   83.2452   13.9150 H       1  UNL1        0.1656
     50 C          59.9754   81.4327   11.7456 C.3     1  UNL1        0.0066
     51 C          58.6184   82.1300   11.6944 C.3     1  UNL1        0.0432
@<TRIPOS>BOND
     1    50    51    1
     2    51    40    1
     3    40    41   ar
     4    41    42   ar
     5    42    43   ar
     6    43    44   ar
     7    44    45   ar
     8    45    46   ar
     9    46    47   ar
    10    47    48   ar
    11    48    39    1
    12    39    28    1
    13    28     1    1
    14     1     2   am
    15     2     3    2
    16     2     5    1
    17     5     6   ar
    18     6     7   ar
    19     7     8   ar
    20     8    12    1
    21    12    13    1
    22    13    14    1
    23    14    15    1
    24    15    18    1
    25    18    19   ar
    26    19    20   ar
    27    20    21   ar
    28    21    24    1
    29    24    25    1
    30    24    26    1
    31    24    27    1
    32    21    22   ar
    33    22    23   ar
    34    15    16    1
    35    16    17    1
    36     8     9   ar
    37     9    10   ar
    38    10    11    1
    39    28    29    1
    40    29    30    2
    41    29    31   am
    42    31    33    1
    43    33    34   ar
    44    34    35   ar
    45    35    36   ar
    46    36    37   ar
    47    37    38   ar
    48    48    40   ar
    49    10     5   ar
    50    38    33   ar
    51    47    42   ar
    52    17    12    1
    53    23    18   ar
    54    41    49    1
    55     1     4    1
    56    31    32    1
@<TRIPOS>MOLECULE
*****
 51 56 0 0 0
SMALL
GASTEIGER

@<TRIPOS>ATOM
      1 N          60.6114   86.4011   11.7685 N.am    1  UNL1       -0.2945
      2 C          60.0929   87.7266   11.5880 C.2     1  UNL1        0.2483
      3 O          59.6713   88.3789   12.5818 O.2     1  UNL1       -0.2701
      4 H          60.6616   85.7684   10.9390 H       1  UNL1        0.1501
      5 C          60.0298   88.3288   10.2415 C.ar    1  UNL1        0.0808
      6 C          59.4475   87.6152    9.1823 C.ar    1  UNL1        0.0080
      7 C          59.3922   88.1699    7.9010 C.ar    1  UNL1        0.0148
      8 C          59.9058   89.4543    7.6599 C.ar    1  UNL1        0.0502
      9 C          60.4705   90.1759    8.7226 C.ar    1  UNL1        0.0443
     10 C          60.5280   89.6233   10.0054 C.ar    1  UNL1        0.1457
     11 F          61.0243   90.3734   11.0218 F       1  UNL1       -0.2040
     12 N          59.8552   90.0301    6.3411 N.pl3   1  UNL1       -0.3040
     13 C          60.9973   89.9021    5.4286 C.3     1  UNL1        0.1123
     14 C          61.1741   91.1938    4.6295 C.3     1  UNL1        0.1136
     15 N          59.8882   91.6161    4.0575 N.pl3   1  UNL1       -0.2897
     16 C          58.7488   91.7453    4.9736 C.3     1  UNL1        0.1136
     17 C          58.5699   90.4546    5.7738 C.3     1  UNL1        0.1123
     18 C          59.8421   92.2625    2.7718 C.ar    1  UNL1        0.1318
     19 C          59.9460   93.6568    2.6631 C.ar    1  UNL1        0.0343
     20 C          59.9095   94.2540    1.4022 C.ar    1  UNL1        0.0083
     21 C          59.7967   93.4632    0.2486 C.ar    1  UNL1        0.0906
     22 C          59.6826   92.0725    0.4021 C.ar    1  UNL1        0.1041
     23 N          59.7177   91.5139    1.6407 N.ar    1  UNL1       -0.2292
     24 C          59.7062   94.0985   -1.1155 C.3     1  UNL1        0.4200
     25 F          58.5756   94.8913   -1.2106 F       1  UNL1       -0.1658
     26 F          59.6432   93.1066   -2.0762 F       1  UNL1       -0.1658
     27 F          60.8136   94.8925   -1.3589 F       1  UNL1       -0.1658
     28 C          61.0708   85.9209   13.0747 C.3     1  UNL1        0.1535
     29 C          61.4935   87.0848   13.9304 C.2     1  UNL1        0.2443
     30 O          60.9790   87.2330   15.0728 O.2     1  UNL1       -0.2730
     31 N          62.4669   88.0220   13.4420 N.am    1  UNL1       -0.2825
     32 H          62.6575   88.0394   12.4146 H       1  UNL1        0.1549
     33 C          63.1110   89.0127   14.2609 C.ar    1  UNL1        0.0535
     34 C          62.7915   89.0944   15.6231 C.ar    1  UNL1        0.0353
     35 C          63.3971   90.0703   16.4182 C.ar    1  UNL1        0.1002
     36 N          64.2788   90.9468   15.8690 N.ar    1  UNL1       -0.2422
     37 C          64.5934   90.9056   14.5472 C.ar    1  UNL1        0.1002
     38 C          64.0115   89.9445   13.7168 C.ar    1  UNL1        0.0353
     39 C          59.9700   85.1185   13.7950 C.3     1  UNL1        0.0565
     40 C          57.9299   84.7730   12.1753 C.ar    1  UNL1        0.0296
     41 N          57.4678   83.7916   11.3627 N.ar    1  UNL1       -0.3567
     42 C          58.3364   82.7736   11.4715 C.ar    1  UNL1        0.0561
     43 C          58.2768   81.5430   10.8187 C.ar    1  UNL1        0.0169
     44 C          59.2913   80.6063   11.0864 C.ar    1  UNL1        0.0015
     45 C          60.3275   80.9152   11.9943 C.ar    1  UNL1        0.0001
     46 C          60.3598   82.1638   12.6410 C.ar    1  UNL1        0.0012
     47 C          59.3441   83.0768   12.3500 C.ar    1  UNL1        0.0127
     48 C          59.1050   84.3555   12.8220 C.ar    1  UNL1       -0.0072
     49 H          56.6016   83.8115   10.7795 H       1  UNL1        0.1656
     50 C          56.5172   86.1280   13.7459 C.3     1  UNL1        0.0066
     51 C          57.1915   86.0715   12.3776 C.3     1  UNL1        0.0432
@<TRIPOS>BOND
     1    50    51    1
     2    51    40    1
     3    40    41   ar
     4    41    42   ar
     5    42    43   ar
     6    43    44   ar
     7    44    45   ar
     8    45    46   ar
     9    46    47   ar
    10    47    48   ar
    11    48    39    1
    12    39    28    1
    13    28     1    1
    14     1     2   am
    15     2     3    2
    16     2     5    1
    17     5     6   ar
    18     6     7   ar
    19     7     8   ar
    20     8    12    1
    21    12    13    1
    22    13    14    1
    23    14    15    1
    24    15    18    1
    25    18    19   ar
    26    19    20   ar
    27    20    21   ar
    28    21    24    1
    29    24    25    1
    30    24    26    1
    31    24    27    1
    32    21    22   ar
    33    22    23   ar
    34    15    16    1
    35    16    17    1
    36     8     9   ar
    37     9    10   ar
    38    10    11    1
    39    28    29    1
    40    29    30    2
    41    29    31   am
    42    31    33    1
    43    33    34   ar
    44    34    35   ar
    45    35    36   ar
    46    36    37   ar
    47    37    38   ar
    48    48    40   ar
    49    10     5   ar
    50    38    33   ar
    51    47    42   ar
    52    17    12    1
    53    23    18   ar
    54    41    49    1
    55     1     4    1
    56    31    32    1
@<TRIPOS>MOLECULE
*****
 51 56 0 0 0
SMALL
GASTEIGER

@<TRIPOS>ATOM
      1 N          61.6155   87.0333   11.9222 N.am    1  UNL1       -0.2945
      2 C          60.5742   87.9814   11.6482 C.2     1  UNL1        0.2483
      3 O          59.7707   88.3160   12.5611 O.2     1  UNL1       -0.2701
      4 H          62.0622   86.5375   11.1187 H       1  UNL1        0.1501
      5 C          60.4218   88.5562   10.2969 C.ar    1  UNL1        0.0808
      6 C          59.7686   87.8228    9.2940 C.ar    1  UNL1        0.0080
      7 C          59.6283   88.3515    8.0081 C.ar    1  UNL1        0.0148
      8 C          60.1265   89.6292    7.7069 C.ar    1  UNL1        0.0502
      9 C          60.7623   90.3707    8.7142 C.ar    1  UNL1        0.0443
     10 C          60.9050   89.8442   10.0014 C.ar    1  UNL1        0.1457
     11 F          61.4695   90.6134   10.9666 F       1  UNL1       -0.2040
     12 N          59.9884   90.1781    6.3828 N.pl3   1  UNL1       -0.3040
     13 C          61.1171   90.1537    5.4453 C.3     1  UNL1        0.1123
     14 C          61.1438   91.4452    4.6270 C.3     1  UNL1        0.1136
     15 N          59.8093   91.7268    4.0805 N.pl3   1  UNL1       -0.2897
     16 C          58.6832   91.7527    5.0215 C.3     1  UNL1        0.1136
     17 C          58.6543   90.4620    5.8409 C.3     1  UNL1        0.1123
     18 C          59.6692   92.3468    2.7887 C.ar    1  UNL1        0.1318
     19 C          59.7154   93.7418    2.6511 C.ar    1  UNL1        0.0343
     20 C          59.5881   94.3135    1.3842 C.ar    1  UNL1        0.0083
     21 C          59.4418   93.4976    0.2520 C.ar    1  UNL1        0.0906
     22 C          59.3878   92.1069    0.4349 C.ar    1  UNL1        0.1041
     23 N          59.5111   91.5732    1.6789 N.ar    1  UNL1       -0.2292
     24 C          59.2535   94.1035   -1.1154 C.3     1  UNL1        0.4200
     25 F          60.3399   94.8917   -1.4538 F       1  UNL1       -0.1658
     26 F          58.1131   94.8846   -1.1141 F       1  UNL1       -0.1658
     27 F          59.1213   93.1138   -2.0741 F       1  UNL1       -0.1658
     28 C          62.0648   86.7503   13.2882 C.3     1  UNL1        0.1535
     29 C          62.4663   88.0295   13.9723 C.2     1  UNL1        0.2443
     30 O          61.9980   88.2954   15.1132 O.2     1  UNL1       -0.2730
     31 N          63.3671   88.9416   13.3233 N.am    1  UNL1       -0.2825
     32 H          63.5091   88.8396   12.2930 H       1  UNL1        0.1549
     33 C          63.9966   90.0545   13.9807 C.ar    1  UNL1        0.0535
     34 C          63.5880   90.4127   15.2726 C.ar    1  UNL1        0.0353
     35 C          64.1802   91.5076   15.9066 C.ar    1  UNL1        0.1002
     36 N          65.1356   92.2317   15.2663 N.ar    1  UNL1       -0.2422
     37 C          65.5384   91.9213   14.0057 C.ar    1  UNL1        0.1002
     38 C          64.9729   90.8333   13.3361 C.ar    1  UNL1        0.0353
     39 C          60.9640   86.0468   14.1052 C.3     1  UNL1        0.0565
     40 C          59.6487   84.2415   12.7213 C.ar    1  UNL1        0.0296
     41 N          59.7538   82.9124   12.4780 N.ar    1  UNL1       -0.3567
     42 C          60.8355   82.4913   13.1527 C.ar    1  UNL1        0.0561
     43 C          61.3427   81.1936   13.2045 C.ar    1  UNL1        0.0169
     44 C          62.4890   80.9658   13.9869 C.ar    1  UNL1        0.0015
     45 C          63.0925   82.0271   14.6962 C.ar    1  UNL1        0.0001
     46 C          62.5563   83.3256   14.6279 C.ar    1  UNL1        0.0012
     47 C          61.4226   83.5237   13.8373 C.ar    1  UNL1        0.0127
     48 C          60.6766   84.6610   13.5819 C.ar    1  UNL1       -0.0072
     49 H          59.1150   82.3253   11.8965 H       1  UNL1        0.1656
     50 C          58.0109   84.5449   10.8440 C.3     1  UNL1        0.0066
     51 C          58.5141   85.0759   12.1837 C.3     1  UNL1        0.0432
@<TRIPOS>BOND
     1    50    51    1
     2    51    40    1
     3    40    41   ar
     4    41    42   ar
     5    42    43   ar
     6    43    44   ar
     7    44    45   ar
     8    45    46   ar
     9    46    47   ar
    10    47    48   ar
    11    48    39    1
    12    39    28    1
    13    28     1    1
    14     1     2   am
    15     2     3    2
    16     2     5    1
    17     5     6   ar
    18     6     7   ar
    19     7     8   ar
    20     8    12    1
    21    12    13    1
    22    13    14    1
    23    14    15    1
    24    15    18    1
    25    18    19   ar
    26    19    20   ar
    27    20    21   ar
    28    21    24    1
    29    24    25    1
    30    24    26    1
    31    24    27    1
    32    21    22   ar
    33    22    23   ar
    34    15    16    1
    35    16    17    1
    36     8     9   ar
    37     9    10   ar
    38    10    11    1
    39    28    29    1
    40    29    30    2
    41    29    31   am
    42    31    33    1
    43    33    34   ar
    44    34    35   ar
    45    35    36   ar
    46    36    37   ar
    47    37    38   ar
    48    48    40   ar
    49    10     5   ar
    50    38    33   ar
    51    47    42   ar
    52    17    12    1
    53    23    18   ar
    54    41    49    1
    55     1     4    1
    56    31    32    1
@<TRIPOS>MOLECULE
*****
 51 56 0 0 0
SMALL
GASTEIGER

@<TRIPOS>ATOM
      1 N          61.6518   87.0516   11.9283 N.am    1  UNL1       -0.2945
      2 C          60.5930   87.9772   11.6448 C.2     1  UNL1        0.2483
      3 O          59.7717   88.2913   12.5492 O.2     1  UNL1       -0.2701
      4 H          62.1186   86.5681   11.1288 H       1  UNL1        0.1501
      5 C          60.4435   88.5524   10.2933 C.ar    1  UNL1        0.0808
      6 C          59.8154   87.8089    9.2818 C.ar    1  UNL1        0.0080
      7 C          59.6783   88.3381    7.9958 C.ar    1  UNL1        0.0148
      8 C          60.1544   89.6261    7.7029 C.ar    1  UNL1        0.0502
      9 C          60.7649   90.3773    8.7187 C.ar    1  UNL1        0.0443
     10 C          60.9044   89.8504   10.0060 C.ar    1  UNL1        0.1457
     11 F          61.4435   90.6280   10.9789 F       1  UNL1       -0.2040
     12 N          60.0194   90.1756    6.3788 N.pl3   1  UNL1       -0.3040
     13 C          61.1573   90.1732    5.4522 C.3     1  UNL1        0.1123
     14 C          61.1692   91.4669    4.6370 C.3     1  UNL1        0.1136
     15 N          59.8354   91.7264    4.0782 N.pl3   1  UNL1       -0.2897
     16 C          58.7000   91.7304    5.0084 C.3     1  UNL1        0.1136
     17 C          58.6858   90.4373    5.8246 C.3     1  UNL1        0.1123
     18 C          59.6968   92.3469    2.7864 C.ar    1  UNL1        0.1318
     19 C          59.7309   93.7424    2.6510 C.ar    1  UNL1        0.0343
     20 C          59.6055   94.3146    1.3842 C.ar    1  UNL1        0.0083
     21 C          59.4731   93.4991    0.2501 C.ar    1  UNL1        0.0906
     22 C          59.4309   92.1076    0.4308 C.ar    1  UNL1        0.1041
     23 N          59.5521   91.5734    1.6747 N.ar    1  UNL1       -0.2292
     24 C          59.2870   94.1051   -1.1176 C.3     1  UNL1        0.4200
     25 F          60.3769   94.8881   -1.4568 F       1  UNL1       -0.1658
     26 F          58.1502   94.8915   -1.1160 F       1  UNL1       -0.1658
     27 F          59.1498   93.1156   -2.0757 F       1  UNL1       -0.1658
     28 C          62.0915   86.7746   13.2987 C.3     1  UNL1        0.1535
     29 C          62.4111   88.0642   14.0062 C.2     1  UNL1        0.2443
     30 O          61.5600   88.5688   14.7890 O.2     1  UNL1       -0.2730
     31 N          63.6713   88.7164   13.7809 N.am    1  UNL1       -0.2825
     32 H          64.2222   88.4392   12.9371 H       1  UNL1        0.1549
     33 C          64.1680   89.8040   14.5792 C.ar    1  UNL1        0.0535
     34 C          63.4367   90.2285   15.6969 C.ar    1  UNL1        0.0353
     35 C          63.9030   91.3000   16.4624 C.ar    1  UNL1        0.1002
     36 N          65.0513   91.9381   16.1141 N.ar    1  UNL1       -0.2422
     37 C          65.7717   91.5627   15.0242 C.ar    1  UNL1        0.1002
     38 C          65.3415   90.4951   14.2322 C.ar    1  UNL1        0.0353
     39 C          61.0160   86.0018   14.0864 C.3     1  UNL1        0.0565
     40 C          61.4409   83.4391   13.6910 C.ar    1  UNL1        0.0296
     41 N          60.8677   82.4406   12.9759 N.ar    1  UNL1       -0.3567
     42 C          59.8198   82.9880   12.3395 C.ar    1  UNL1        0.0561
     43 C          58.9257   82.3459   11.4837 C.ar    1  UNL1        0.0169
     44 C          57.8974   83.1145   10.9092 C.ar    1  UNL1        0.0015
     45 C          57.7905   84.4929   11.1954 C.ar    1  UNL1        0.0001
     46 C          58.7094   85.1146   12.0599 C.ar    1  UNL1        0.0012
     47 C          59.7149   84.3253   12.6218 C.ar    1  UNL1        0.0127
     48 C          60.7484   84.6439   13.4852 C.ar    1  UNL1       -0.0072
     49 H          61.1832   81.4469   12.9154 H       1  UNL1        0.1656
     50 C          63.8141   82.6230   13.6658 C.3     1  UNL1        0.0066
     51 C          62.6949   83.2370   14.5028 C.3     1  UNL1        0.0432
@<TRIPOS>BOND
     1    50    51    1
     2    51    40    1
     3    40    41   ar
     4    41    42   ar
     5    42    43   ar
     6    43    44   ar
     7    44    45   ar
     8    45    46   ar
     9    46    47   ar
    10    47    48   ar
    11    48    39    1
    12    39    28    1
    13    28     1    1
    14     1     2   am
    15     2     3    2
    16     2     5    1
    17     5     6   ar
    18     6     7   ar
    19     7     8   ar
    20     8    12    1
    21    12    13    1
    22    13    14    1
    23    14    15    1
    24    15    18    1
    25    18    19   ar
    26    19    20   ar
    27    20    21   ar
    28    21    24    1
    29    24    25    1
    30    24    26    1
    31    24    27    1
    32    21    22   ar
    33    22    23   ar
    34    15    16    1
    35    16    17    1
    36     8     9   ar
    37     9    10   ar
    38    10    11    1
    39    28    29    1
    40    29    30    2
    41    29    31   am
    42    31    33    1
    43    33    34   ar
    44    34    35   ar
    45    35    36   ar
    46    36    37   ar
    47    37    38   ar
    48    48    40   ar
    49    10     5   ar
    50    38    33   ar
    51    47    42   ar
    52    17    12    1
    53    23    18   ar
    54    41    49    1
    55     1     4    1
    56    31    32    1
@<TRIPOS>MOLECULE
*****
 51 56 0 0 0
SMALL
GASTEIGER

@<TRIPOS>ATOM
      1 N          59.4538   82.8720   12.1950 N.am    1  UNL1       -0.2945
      2 C          58.9690   84.1129   12.7274 C.2     1  UNL1        0.2483
      3 O          57.7316   84.2821   12.9038 O.2     1  UNL1       -0.2701
      4 H          60.4070   82.8511   11.7686 H       1  UNL1        0.1501
      5 C          59.9074   85.2051   13.0533 C.ar    1  UNL1        0.0808
      6 C          60.3628   85.3665   14.3712 C.ar    1  UNL1        0.0080
      7 C          61.2421   86.4034   14.6943 C.ar    1  UNL1        0.0148
      8 C          61.6923   87.2885   13.7016 C.ar    1  UNL1        0.0502
      9 C          61.2526   87.1157   12.3803 C.ar    1  UNL1        0.0443
     10 C          60.3723   86.0799   12.0542 C.ar    1  UNL1        0.1457
     11 F          60.0167   85.9046   10.7562 F       1  UNL1       -0.2040
     12 N          62.5955   88.3612   14.0287 N.pl3   1  UNL1       -0.3040
     13 C          63.2841   89.1044   12.9672 C.3     1  UNL1        0.1123
     14 C          64.7112   89.4370   13.4045 C.3     1  UNL1        0.1136
     15 N          64.7052   90.0215   14.7525 N.pl3   1  UNL1       -0.2897
     16 C          64.0174   89.2742   15.8121 C.3     1  UNL1        0.1136
     17 C          62.5899   88.9406   15.3771 C.3     1  UNL1        0.1123
     18 C          65.6583   91.0407   15.1068 C.ar    1  UNL1        0.1318
     19 C          65.3382   92.0292   16.0487 C.ar    1  UNL1        0.0343
     20 C          66.2870   92.9976   16.3804 C.ar    1  UNL1        0.0083
     21 C          67.5623   92.9670   15.7959 C.ar    1  UNL1        0.0906
     22 C          67.8378   91.9684   14.8486 C.ar    1  UNL1        0.1041
     23 N          66.8966   91.0377   14.5394 N.ar    1  UNL1       -0.2292
     24 C          68.5789   94.0354   16.1080 C.3     1  UNL1        0.4200
     25 F          69.8078   93.4693   16.4001 F       1  UNL1       -0.1658
     26 F          68.1494   94.7676   17.1989 F       1  UNL1       -0.1658
     27 F          68.7400   94.8867   15.0284 F       1  UNL1       -0.1658
     28 C          58.6529   81.6454   12.2386 C.3     1  UNL1        0.1535
     29 C          58.3639   81.1705   10.8398 C.2     1  UNL1        0.2443
     30 O          57.4955   80.2738   10.6570 O.2     1  UNL1       -0.2730
     31 N          59.0808   81.7290    9.7269 N.am    1  UNL1       -0.2825
     32 H          59.9679   82.2449    9.9249 H       1  UNL1        0.1549
     33 C          58.7153   81.5260    8.3514 C.ar    1  UNL1        0.0535
     34 C          57.6012   82.1966    7.8283 C.ar    1  UNL1        0.0353
     35 C          57.2280   81.9850    6.4988 C.ar    1  UNL1        0.1002
     36 N          57.9320   81.1198    5.7223 N.ar    1  UNL1       -0.2422
     37 C          59.0045   80.4396    6.2068 C.ar    1  UNL1        0.1002
     38 C          59.4124   80.6230    7.5305 C.ar    1  UNL1        0.0353
     39 C          59.3729   80.5343   13.0268 C.3     1  UNL1        0.0565
     40 C          61.6921   79.9970   11.9146 C.ar    1  UNL1        0.0296
     41 N          62.9869   80.3468   12.1097 N.ar    1  UNL1       -0.3567
     42 C          62.9954   81.1873   13.1567 C.ar    1  UNL1        0.0561
     43 C          64.1048   81.8106   13.7266 C.ar    1  UNL1        0.0169
     44 C          63.8908   82.6509   14.8340 C.ar    1  UNL1        0.0015
     45 C          62.5883   82.8427   15.3442 C.ar    1  UNL1        0.0001
     46 C          61.4883   82.1977   14.7508 C.ar    1  UNL1        0.0012
     47 C          61.7297   81.3758   13.6481 C.ar    1  UNL1        0.0127
     48 C          60.8715   80.6177   12.8710 C.ar    1  UNL1       -0.0072
     49 H          63.8173   80.0185   11.5679 H       1  UNL1        0.1656
     50 C          61.9539   79.2884    9.5213 C.3     1  UNL1        0.0066
     51 C          61.2708   79.0085   10.8573 C.3     1  UNL1        0.0432
@<TRIPOS>BOND
     1    50    51    1
     2    51    40    1
     3    40    41   ar
     4    41    42   ar
     5    42    43   ar
     6    43    44   ar
     7    44    45   ar
     8    45    46   ar
     9    46    47   ar
    10    47    48   ar
    11    48    39    1
    12    39    28    1
    13    28     1    1
    14     1     2   am
    15     2     3    2
    16     2     5    1
    17     5     6   ar
    18     6     7   ar
    19     7     8   ar
    20     8    12    1
    21    12    13    1
    22    13    14    1
    23    14    15    1
    24    15    18    1
    25    18    19   ar
    26    19    20   ar
    27    20    21   ar
    28    21    24    1
    29    24    25    1
    30    24    26    1
    31    24    27    1
    32    21    22   ar
    33    22    23   ar
    34    15    16    1
    35    16    17    1
    36     8     9   ar
    37     9    10   ar
    38    10    11    1
    39    28    29    1
    40    29    30    2
    41    29    31   am
    42    31    33    1
    43    33    34   ar
    44    34    35   ar
    45    35    36   ar
    46    36    37   ar
    47    37    38   ar
    48    48    40   ar
    49    10     5   ar
    50    38    33   ar
    51    47    42   ar
    52    17    12    1
    53    23    18   ar
    54    41    49    1
    55     1     4    1
    56    31    32    1
@<TRIPOS>MOLECULE
*****
 51 56 0 0 0
SMALL
GASTEIGER

@<TRIPOS>ATOM
      1 N          60.5493   83.9420   13.0676 N.am    1  UNL1       -0.2945
      2 C          60.0450   85.2764   13.2209 C.2     1  UNL1        0.2483
      3 O          59.6385   85.6707   14.3480 O.2     1  UNL1       -0.2701
      4 H          60.5859   83.5302   12.1085 H       1  UNL1        0.1501
      5 C          59.9791   86.1894   12.0625 C.ar    1  UNL1        0.0808
      6 C          59.5930   85.6983   10.8055 C.ar    1  UNL1        0.0080
      7 C          59.5378   86.5502    9.6993 C.ar    1  UNL1        0.0148
      8 C          59.8543   87.9115    9.8342 C.ar    1  UNL1        0.0502
      9 C          60.2215   88.4069   11.0946 C.ar    1  UNL1        0.0443
     10 C          60.2785   87.5570   12.2031 C.ar    1  UNL1        0.1457
     11 F          60.5770   88.0821   13.4184 F       1  UNL1       -0.2040
     12 N          59.8030   88.7938    8.6974 N.pl3   1  UNL1       -0.3040
     13 C          58.8384   88.5600    7.6165 C.3     1  UNL1        0.1123
     14 C          59.4786   88.8849    6.2664 C.3     1  UNL1        0.1136
     15 N          60.1375   90.1970    6.3203 N.pl3   1  UNL1       -0.2897
     16 C          61.1035   90.4264    7.4014 C.3     1  UNL1        0.1136
     17 C          60.4653   90.1023    8.7527 C.3     1  UNL1        0.1123
     18 C          60.1547   91.0498    5.1604 C.ar    1  UNL1        0.1318
     19 C          58.9923   91.7085    4.7341 C.ar    1  UNL1        0.0343
     20 C          59.0425   92.5379    3.6127 C.ar    1  UNL1        0.0083
     21 C          60.2537   92.7331    2.9317 C.ar    1  UNL1        0.0906
     22 C          61.3910   92.0453    3.3834 C.ar    1  UNL1        0.1041
     23 N          61.3169   91.2405    4.4763 N.ar    1  UNL1       -0.2292
     24 C          60.3110   93.5865    1.6904 C.3     1  UNL1        0.4200
     25 F          60.6427   94.8917    2.0104 F       1  UNL1       -0.1658
     26 F          59.0747   93.5744    1.0722 F       1  UNL1       -0.1658
     27 F          61.2613   93.1021    0.8081 F       1  UNL1       -0.1658
     28 C          61.0126   83.1534   14.2127 C.3     1  UNL1        0.1535
     29 C          60.7146   81.6953   13.9866 C.2     1  UNL1        0.2443
     30 O          61.2781   80.8285   14.7096 O.2     1  UNL1       -0.2730
     31 N          59.8039   81.2987   12.9485 N.am    1  UNL1       -0.2825
     32 H          59.5804   81.9942   12.2010 H       1  UNL1        0.1549
     33 C          59.2702   79.9709   12.8110 C.ar    1  UNL1        0.0535
     34 C          59.1469   79.1569   13.9452 C.ar    1  UNL1        0.0353
     35 C          58.6507   77.8577   13.8136 C.ar    1  UNL1        0.1002
     36 N          58.3057   77.3804   12.5887 N.ar    1  UNL1       -0.2422
     37 C          58.4328   78.1386   11.4677 C.ar    1  UNL1        0.1002
     38 C          58.9237   79.4438   11.5551 C.ar    1  UNL1        0.0353
     39 C          62.5230   83.3449   14.4500 C.3     1  UNL1        0.0565
     40 C          63.3947   85.0813   12.6810 C.ar    1  UNL1        0.0296
     41 N          63.7342   86.3934   12.6676 N.ar    1  UNL1       -0.3567
     42 C          63.5432   86.8437   13.9180 C.ar    1  UNL1        0.0561
     43 C          63.7591   88.1384   14.3885 C.ar    1  UNL1        0.0169
     44 C          63.5047   88.3955   15.7476 C.ar    1  UNL1        0.0015
     45 C          63.0507   87.3634   16.5974 C.ar    1  UNL1        0.0001
     46 C          62.8453   86.0656   16.0954 C.ar    1  UNL1        0.0012
     47 C          63.0984   85.8414   14.7407 C.ar    1  UNL1        0.0127
     48 C          62.9987   84.6949   13.9722 C.ar    1  UNL1       -0.0072
     49 H          64.0894   86.9446   11.8547 H       1  UNL1        0.1656
     50 C          64.5820   83.1116   11.6766 C.3     1  UNL1        0.0066
     51 C          63.5298   84.1975   11.4674 C.3     1  UNL1        0.0432
@<TRIPOS>BOND
     1    50    51    1
     2    51    40    1
     3    40    41   ar
     4    41    42   ar
     5    42    43   ar
     6    43    44   ar
     7    44    45   ar
     8    45    46   ar
     9    46    47   ar
    10    47    48   ar
    11    48    39    1
    12    39    28    1
    13    28     1    1
    14     1     2   am
    15     2     3    2
    16     2     5    1
    17     5     6   ar
    18     6     7   ar
    19     7     8   ar
    20     8    12    1
    21    12    13    1
    22    13    14    1
    23    14    15    1
    24    15    18    1
    25    18    19   ar
    26    19    20   ar
    27    20    21   ar
    28    21    24    1
    29    24    25    1
    30    24    26    1
    31    24    27    1
    32    21    22   ar
    33    22    23   ar
    34    15    16    1
    35    16    17    1
    36     8     9   ar
    37     9    10   ar
    38    10    11    1
    39    28    29    1
    40    29    30    2
    41    29    31   am
    42    31    33    1
    43    33    34   ar
    44    34    35   ar
    45    35    36   ar
    46    36    37   ar
    47    37    38   ar
    48    48    40   ar
    49    10     5   ar
    50    38    33   ar
    51    47    42   ar
    52    17    12    1
    53    23    18   ar
    54    41    49    1
    55     1     4    1
    56    31    32    1
