@<TRIPOS>MOLECULE
*****
 51 56 0 0 0
SMALL
GASTEIGER

@<TRIPOS>ATOM
      1 O         -61.7537  -44.9959  -28.1412 O.2     1  UNL1       -0.2701
      2 C         -62.6659  -44.1423  -27.9657 C.2     1  UNL1        0.2484
      3 N         -63.5818  -43.8481  -29.0316 N.am    1  UNL1       -0.2945
      4 H         -64.4741  -43.3534  -28.8040 H       1  UNL1        0.1501
      5 C         -62.7978  -43.4810  -26.6484 C.ar    1  UNL1        0.0839
      6 C         -63.3754  -42.2037  -26.5704 C.ar    1  UNL1        0.0082
      7 C         -63.5059  -41.5583  -25.3399 C.ar    1  UNL1        0.0179
      8 C         -63.0731  -42.1819  -24.1628 C.ar    1  UNL1        0.0844
      9 C         -62.5036  -43.4651  -24.2255 C.ar    1  UNL1        0.1748
     10 O         -62.0638  -44.0815  -23.0534 O.3     1  UNL1       -0.5026
     11 C         -62.3733  -44.1157  -25.4642 C.ar    1  UNL1        0.1791
     12 F         -61.8759  -45.3784  -25.5005 F       1  UNL1       -0.2008
     13 H         -61.6443  -45.0035  -23.0551 H       1  UNL1        0.2923
     14 N         -63.2156  -41.5091  -22.9019 N.pl3   1  UNL1       -0.3017
     15 C         -64.5564  -41.3083  -22.3387 C.3     1  UNL1        0.1124
     16 C         -64.4963  -40.6602  -20.9494 C.3     1  UNL1        0.1136
     17 N         -63.5541  -39.5284  -20.9386 N.pl3   1  UNL1       -0.2897
     18 C         -62.2559  -39.6503  -21.6276 C.3     1  UNL1        0.1136
     19 C         -62.0290  -41.0648  -22.1660 C.3     1  UNL1        0.1124
     20 C         -63.8305  -38.3769  -20.1077 C.ar    1  UNL1        0.1318
     21 C         -64.9198  -38.3579  -19.2182 C.ar    1  UNL1        0.0343
     22 C         -65.1536  -37.2266  -18.4350 C.ar    1  UNL1        0.0083
     23 C         -64.2965  -36.1198  -18.5165 C.ar    1  UNL1        0.0906
     24 C         -63.2346  -36.1665  -19.4318 C.ar    1  UNL1        0.1041
     25 N         -63.0278  -37.2780  -20.1860 N.ar    1  UNL1       -0.2292
     26 C         -64.5678  -34.8735  -17.7128 C.3     1  UNL1        0.4200
     27 F         -65.7048  -34.2332  -18.1746 F       1  UNL1       -0.1658
     28 F         -63.4901  -34.0155  -17.8257 F       1  UNL1       -0.1658
     29 F         -64.7584  -35.1853  -16.3777 F       1  UNL1       -0.1658
     30 C         -63.3830  -44.3621  -30.3904 C.3     1  UNL1        0.1535
     31 C         -64.5599  -45.2074  -30.7952 C.2     1  UNL1        0.2443
     32 O         -65.6337  -44.6415  -31.1371 O.2     1  UNL1       -0.2730
     33 N         -64.4850  -46.6407  -30.7204 N.am    1  UNL1       -0.2825
     34 H         -63.7281  -47.0617  -30.1355 H       1  UNL1        0.1549
     35 C         -65.4364  -47.5287  -31.3312 C.ar    1  UNL1        0.0535
     36 C         -65.8747  -47.3406  -32.6532 C.ar    1  UNL1        0.0353
     37 C         -66.7799  -48.2453  -33.2138 C.ar    1  UNL1        0.1002
     38 N         -67.2214  -49.3071  -32.4892 N.ar    1  UNL1       -0.2422
     39 C         -66.8002  -49.5239  -31.2152 C.ar    1  UNL1        0.1002
     40 C         -65.8946  -48.6443  -30.6173 C.ar    1  UNL1        0.0353
     41 C         -63.1899  -43.2098  -31.3915 C.3     1  UNL1        0.0569
     42 C         -62.0418  -43.4839  -32.3195 C.ar    1  UNL1       -0.0017
     43 C         -62.0095  -43.2485  -33.6909 C.ar    1  UNL1        0.0681
     44 N         -60.7861  -43.5365  -34.1906 N.ar    1  UNL1       -0.3523
     45 C         -60.0441  -43.9425  -33.1457 C.ar    1  UNL1        0.0563
     46 C         -58.7045  -44.3286  -33.1596 C.ar    1  UNL1        0.0170
     47 C         -58.1146  -44.7005  -31.9376 C.ar    1  UNL1        0.0015
     48 C         -58.8675  -44.6752  -30.7423 C.ar    1  UNL1        0.0001
     49 C         -60.2172  -44.2790  -30.7581 C.ar    1  UNL1        0.0012
     50 C         -60.7750  -43.9202  -31.9854 C.ar    1  UNL1        0.0131
     51 H         -60.4797  -43.4447  -35.1847 H       1  UNL1        0.1660
@<TRIPOS>BOND
     1     1     2    2
     2     2     3   am
     3     3    30    1
     4    30    41    1
     5    41    42    1
     6    42    43   ar
     7    43    44   ar
     8    44    45   ar
     9    45    46   ar
    10    46    47   ar
    11    47    48   ar
    12    48    49   ar
    13    49    50   ar
    14    30    31    1
    15    31    32    2
    16    31    33   am
    17    33    35    1
    18    35    36   ar
    19    36    37   ar
    20    37    38   ar
    21    38    39   ar
    22    39    40   ar
    23     2     5    1
    24     5     6   ar
    25     6     7   ar
    26     7     8   ar
    27     8    14    1
    28    14    15    1
    29    15    16    1
    30    16    17    1
    31    17    20    1
    32    20    21   ar
    33    21    22   ar
    34    22    23   ar
    35    23    26    1
    36    26    27    1
    37    26    28    1
    38    26    29    1
    39    23    24   ar
    40    24    25   ar
    41    17    18    1
    42    18    19    1
    43     8     9   ar
    44     9    10    1
    45     9    11   ar
    46    11    12    1
    47    50    42   ar
    48    40    35   ar
    49    11     5   ar
    50    50    45   ar
    51    19    14    1
    52    25    20   ar
    53     3     4    1
    54    44    51    1
    55    33    34    1
    56    10    13    1
@<TRIPOS>MOLECULE
*****
 51 56 0 0 0
SMALL
GASTEIGER

@<TRIPOS>ATOM
      1 O         -61.0492  -42.6708  -19.6811 O.2     1  UNL1       -0.2701
      2 C         -61.8986  -42.3029  -20.5383 C.2     1  UNL1        0.2484
      3 N         -62.9174  -41.3592  -20.1733 N.am    1  UNL1       -0.2945
      4 H         -63.4399  -40.8665  -20.9328 H       1  UNL1        0.1501
      5 C         -61.8097  -42.8264  -21.9196 C.ar    1  UNL1        0.0839
      6 C         -61.4989  -41.9510  -22.9723 C.ar    1  UNL1        0.0082
      7 C         -61.4144  -42.4208  -24.2838 C.ar    1  UNL1        0.0179
      8 C         -61.6265  -43.7761  -24.5665 C.ar    1  UNL1        0.0844
      9 C         -61.9269  -44.6651  -23.5205 C.ar    1  UNL1        0.1748
     10 O         -62.1476  -46.0134  -23.8044 O.3     1  UNL1       -0.5026
     11 C         -62.0109  -44.1926  -22.1998 C.ar    1  UNL1        0.1791
     12 F         -62.2433  -45.0743  -21.1939 F       1  UNL1       -0.2008
     13 H         -62.3706  -46.6862  -23.0807 H       1  UNL1        0.2923
     14 N         -61.5335  -44.2484  -25.9197 N.pl3   1  UNL1       -0.3017
     15 C         -60.2509  -44.7592  -26.4192 C.3     1  UNL1        0.1124
     16 C         -60.3753  -45.3031  -27.8483 C.3     1  UNL1        0.1136
     17 N         -61.1398  -44.3747  -28.6984 N.pl3   1  UNL1       -0.2897
     18 C         -62.3547  -43.7285  -28.1681 C.3     1  UNL1        0.1136
     19 C         -62.7199  -44.2581  -26.7794 C.3     1  UNL1        0.1124
     20 C         -60.7972  -44.2407  -30.0976 C.ar    1  UNL1        0.1318
     21 C         -59.6022  -44.7724  -30.6149 C.ar    1  UNL1        0.0343
     22 C         -59.3074  -44.6203  -31.9706 C.ar    1  UNL1        0.0083
     23 C         -60.2056  -43.9589  -32.8205 C.ar    1  UNL1        0.0906
     24 C         -61.3758  -43.4219  -32.2637 C.ar    1  UNL1        0.1041
     25 N         -61.6407  -43.5802  -30.9403 N.ar    1  UNL1       -0.2292
     26 C         -59.8749  -43.7446  -34.2756 C.3     1  UNL1        0.4200
     27 F         -59.2068  -44.8420  -34.7908 F       1  UNL1       -0.1658
     28 F         -59.0699  -42.6279  -34.3997 F       1  UNL1       -0.1658
     29 F         -61.0289  -43.5535  -35.0156 F       1  UNL1       -0.1658
     30 C         -63.1311  -40.9463  -18.7827 C.3     1  UNL1        0.1535
     31 C         -63.1500  -39.4446  -18.6917 C.2     1  UNL1        0.2443
     32 O         -62.9245  -38.8940  -17.5800 O.2     1  UNL1       -0.2730
     33 N         -63.4951  -38.6515  -19.8395 N.am    1  UNL1       -0.2825
     34 H         -63.9881  -39.1238  -20.6309 H       1  UNL1        0.1549
     35 C         -63.2797  -37.2331  -19.9311 C.ar    1  UNL1        0.0535
     36 C         -62.2219  -36.6969  -20.6852 C.ar    1  UNL1        0.0353
     37 C         -62.0681  -35.3106  -20.7672 C.ar    1  UNL1        0.1002
     38 N         -62.9448  -34.4877  -20.1333 N.ar    1  UNL1       -0.2422
     39 C         -63.9876  -34.9783  -19.4125 C.ar    1  UNL1        0.1002
     40 C         -64.1783  -36.3580  -19.3060 C.ar    1  UNL1        0.0353
     41 C         -64.4457  -41.5262  -18.2327 C.3     1  UNL1        0.0569
     42 C         -65.2850  -42.1076  -19.3336 C.ar    1  UNL1       -0.0017
     43 C         -65.6321  -43.4460  -19.4934 C.ar    1  UNL1        0.0681
     44 N         -66.4660  -43.5948  -20.5478 N.ar    1  UNL1       -0.3523
     45 C         -66.6553  -42.3616  -21.0487 C.ar    1  UNL1        0.0563
     46 C         -67.4562  -42.0034  -22.1323 C.ar    1  UNL1        0.0170
     47 C         -67.5260  -40.6408  -22.4761 C.ar    1  UNL1        0.0015
     48 C         -66.8047  -39.6778  -21.7357 C.ar    1  UNL1        0.0001
     49 C         -66.0061  -40.0683  -20.6454 C.ar    1  UNL1        0.0012
     50 C         -65.9537  -41.4266  -20.3316 C.ar    1  UNL1        0.0131
     51 H         -66.8880  -44.4867  -20.8898 H       1  UNL1        0.1660
@<TRIPOS>BOND
     1     1     2    2
     2     2     3   am
     3     3    30    1
     4    30    41    1
     5    41    42    1
     6    42    43   ar
     7    43    44   ar
     8    44    45   ar
     9    45    46   ar
    10    46    47   ar
    11    47    48   ar
    12    48    49   ar
    13    49    50   ar
    14    30    31    1
    15    31    32    2
    16    31    33   am
    17    33    35    1
    18    35    36   ar
    19    36    37   ar
    20    37    38   ar
    21    38    39   ar
    22    39    40   ar
    23     2     5    1
    24     5     6   ar
    25     6     7   ar
    26     7     8   ar
    27     8    14    1
    28    14    15    1
    29    15    16    1
    30    16    17    1
    31    17    20    1
    32    20    21   ar
    33    21    22   ar
    34    22    23   ar
    35    23    26    1
    36    26    27    1
    37    26    28    1
    38    26    29    1
    39    23    24   ar
    40    24    25   ar
    41    17    18    1
    42    18    19    1
    43     8     9   ar
    44     9    10    1
    45     9    11   ar
    46    11    12    1
    47    50    42   ar
    48    40    35   ar
    49    11     5   ar
    50    50    45   ar
    51    19    14    1
    52    25    20   ar
    53     3     4    1
    54    44    51    1
    55    33    34    1
    56    10    13    1
@<TRIPOS>MOLECULE
*****
 51 56 0 0 0
SMALL
GASTEIGER

@<TRIPOS>ATOM
      1 O         -60.4375  -46.3674  -25.8766 O.2     1  UNL1       -0.2701
      2 C         -61.5521  -45.7861  -25.7695 C.2     1  UNL1        0.2484
      3 N         -62.6116  -46.1012  -26.6860 N.am    1  UNL1       -0.2945
      4 H         -63.5885  -45.8248  -26.4373 H       1  UNL1        0.1501
      5 C         -61.7602  -44.8107  -24.6763 C.ar    1  UNL1        0.0839
      6 C         -62.0250  -43.4678  -24.9887 C.ar    1  UNL1        0.0082
      7 C         -62.2198  -42.5288  -23.9746 C.ar    1  UNL1        0.0179
      8 C         -62.1659  -42.9163  -22.6298 C.ar    1  UNL1        0.0844
      9 C         -61.9131  -44.2595  -22.3034 C.ar    1  UNL1        0.1748
     10 O         -61.8500  -44.6427  -20.9632 O.3     1  UNL1       -0.5026
     11 C         -61.7182  -45.2053  -23.3243 C.ar    1  UNL1        0.1791
     12 F         -61.5340  -46.5091  -22.9935 F       1  UNL1       -0.2008
     13 H         -61.6662  -45.5992  -20.6850 H       1  UNL1        0.2923
     14 N         -62.3713  -41.9416  -21.5951 N.pl3   1  UNL1       -0.3017
     15 C         -63.6228  -41.9565  -20.8278 C.3     1  UNL1        0.1124
     16 C         -63.6150  -40.9055  -19.7101 C.3     1  UNL1        0.1136
     17 N         -63.1125  -39.6138  -20.2079 N.pl3   1  UNL1       -0.2897
     18 C         -61.9425  -39.5803  -21.1050 C.3     1  UNL1        0.1136
     19 C         -61.3220  -40.9681  -21.2817 C.3     1  UNL1        0.1124
     20 C         -63.6556  -38.3831  -19.6755 C.ar    1  UNL1        0.1318
     21 C         -64.8073  -38.3776  -18.8682 C.ar    1  UNL1        0.0343
     22 C         -65.3008  -37.1686  -18.3755 C.ar    1  UNL1        0.0083
     23 C         -64.6424  -35.9648  -18.6648 C.ar    1  UNL1        0.0906
     24 C         -63.5105  -36.0076  -19.4923 C.ar    1  UNL1        0.1041
     25 N         -63.0495  -37.1964  -19.9625 N.ar    1  UNL1       -0.2292
     26 C         -65.1942  -34.6482  -18.1803 C.3     1  UNL1        0.4200
     27 F         -64.2945  -33.6241  -18.4206 F       1  UNL1       -0.1658
     28 F         -65.4341  -34.7277  -16.8214 F       1  UNL1       -0.1658
     29 F         -66.3782  -34.3460  -18.8306 F       1  UNL1       -0.1658
     30 C         -62.3910  -46.9372  -27.8702 C.3     1  UNL1        0.1535
     31 C         -61.3948  -46.2772  -28.7843 C.2     1  UNL1        0.2443
     32 O         -60.1927  -46.6573  -28.7592 O.2     1  UNL1       -0.2730
     33 N         -61.7926  -45.1775  -29.6196 N.am    1  UNL1       -0.2825
     34 H         -62.6808  -44.6797  -29.3840 H       1  UNL1        0.1549
     35 C         -61.0030  -44.6669  -30.7072 C.ar    1  UNL1        0.0535
     36 C         -59.6258  -44.9297  -30.8030 C.ar    1  UNL1        0.0353
     37 C         -58.9045  -44.4352  -31.8926 C.ar    1  UNL1        0.1002
     38 N         -59.5348  -43.7174  -32.8595 N.ar    1  UNL1       -0.2422
     39 C         -60.8689  -43.4638  -32.8021 C.ar    1  UNL1        0.1002
     40 C         -61.6274  -43.9410  -31.7305 C.ar    1  UNL1        0.0353
     41 C         -61.8952  -48.3376  -27.4702 C.3     1  UNL1        0.0569
     42 C         -62.6223  -48.8452  -26.2585 C.ar    1  UNL1       -0.0017
     43 C         -63.9971  -49.0187  -26.1284 C.ar    1  UNL1        0.0681
     44 N         -64.2917  -49.5726  -24.9302 N.ar    1  UNL1       -0.3523
     45 C         -63.1149  -49.7585  -24.3073 C.ar    1  UNL1        0.0563
     46 C         -62.9041  -50.3215  -23.0494 C.ar    1  UNL1        0.0170
     47 C         -61.5775  -50.4396  -22.5958 C.ar    1  UNL1        0.0015
     48 C         -60.5036  -50.0002  -23.4019 C.ar    1  UNL1        0.0001
     49 C         -60.7462  -49.4378  -24.6683 C.ar    1  UNL1        0.0012
     50 C         -62.0722  -49.3302  -25.0884 C.ar    1  UNL1        0.0131
     51 H         -65.2412  -49.8193  -24.5724 H       1  UNL1        0.1660
@<TRIPOS>BOND
     1     1     2    2
     2     2     3   am
     3     3    30    1
     4    30    41    1
     5    41    42    1
     6    42    43   ar
     7    43    44   ar
     8    44    45   ar
     9    45    46   ar
    10    46    47   ar
    11    47    48   ar
    12    48    49   ar
    13    49    50   ar
    14    30    31    1
    15    31    32    2
    16    31    33   am
    17    33    35    1
    18    35    36   ar
    19    36    37   ar
    20    37    38   ar
    21    38    39   ar
    22    39    40   ar
    23     2     5    1
    24     5     6   ar
    25     6     7   ar
    26     7     8   ar
    27     8    14    1
    28    14    15    1
    29    15    16    1
    30    16    17    1
    31    17    20    1
    32    20    21   ar
    33    21    22   ar
    34    22    23   ar
    35    23    26    1
    36    26    27    1
    37    26    28    1
    38    26    29    1
    39    23    24   ar
    40    24    25   ar
    41    17    18    1
    42    18    19    1
    43     8     9   ar
    44     9    10    1
    45     9    11   ar
    46    11    12    1
    47    50    42   ar
    48    40    35   ar
    49    11     5   ar
    50    50    45   ar
    51    19    14    1
    52    25    20   ar
    53     3     4    1
    54    44    51    1
    55    33    34    1
    56    10    13    1
@<TRIPOS>MOLECULE
*****
 51 56 0 0 0
SMALL
GASTEIGER

@<TRIPOS>ATOM
      1 O         -61.2433  -47.3048  -25.4255 O.2     1  UNL1       -0.2701
      2 C         -62.0085  -46.3159  -25.5939 C.2     1  UNL1        0.2484
      3 N         -62.7842  -46.2114  -26.7977 N.am    1  UNL1       -0.2945
      4 H         -63.5940  -45.5507  -26.8167 H       1  UNL1        0.1501
      5 C         -62.1193  -45.2941  -24.5293 C.ar    1  UNL1        0.0839
      6 C         -62.3441  -43.9529  -24.8785 C.ar    1  UNL1        0.0082
      7 C         -62.4473  -42.9710  -23.8921 C.ar    1  UNL1        0.0179
      8 C         -62.3403  -43.3123  -22.5380 C.ar    1  UNL1        0.0844
      9 C         -62.1268  -44.6528  -22.1742 C.ar    1  UNL1        0.1748
     10 O         -62.0106  -44.9904  -20.8253 O.3     1  UNL1       -0.5026
     11 C         -62.0241  -45.6418  -23.1671 C.ar    1  UNL1        0.1791
     12 F         -61.8773  -46.9397  -22.7970 F       1  UNL1       -0.2008
     13 H         -61.8525  -45.9434  -20.5208 H       1  UNL1        0.2923
     14 N         -62.4514  -42.2934  -21.5318 N.pl3   1  UNL1       -0.3017
     15 C         -63.6419  -42.2537  -20.6735 C.3     1  UNL1        0.1124
     16 C         -63.5331  -41.1595  -19.6037 C.3     1  UNL1        0.1136
     17 N         -63.0486  -39.8984  -20.1902 N.pl3   1  UNL1       -0.2897
     18 C         -61.9489  -39.9231  -21.1725 C.3     1  UNL1        0.1136
     19 C         -61.3660  -41.3285  -21.3377 C.3     1  UNL1        0.1124
     20 C         -63.5301  -38.6373  -19.6699 C.ar    1  UNL1        0.1318
     21 C         -64.5408  -38.5840  -18.6933 C.ar    1  UNL1        0.0343
     22 C         -64.9791  -37.3470  -18.2183 C.ar    1  UNL1        0.0083
     23 C         -64.4025  -36.1610  -18.6952 C.ar    1  UNL1        0.0906
     24 C         -63.4137  -36.2533  -19.6858 C.ar    1  UNL1        0.1041
     25 N         -63.0044  -37.4689  -20.1350 N.ar    1  UNL1       -0.2292
     26 C         -64.9022  -34.8180  -18.2269 C.3     1  UNL1        0.4200
     27 F         -65.8408  -34.3119  -19.1095 F       1  UNL1       -0.1658
     28 F         -63.8385  -33.9391  -18.1472 F       1  UNL1       -0.1658
     29 F         -65.4938  -34.9248  -16.9800 F       1  UNL1       -0.1658
     30 C         -62.5797  -47.1151  -27.9342 C.3     1  UNL1        0.1535
     31 C         -63.7948  -47.1047  -28.8214 C.2     1  UNL1        0.2443
     32 O         -64.5469  -46.0926  -28.8207 O.2     1  UNL1       -0.2730
     33 N         -64.1345  -48.2628  -29.6017 N.am    1  UNL1       -0.2825
     34 H         -63.6996  -49.1759  -29.3380 H       1  UNL1        0.1549
     35 C         -65.0986  -48.2595  -30.6681 C.ar    1  UNL1        0.0535
     36 C         -66.1405  -49.2012  -30.7208 C.ar    1  UNL1        0.0353
     37 C         -67.0703  -49.1421  -31.7620 C.ar    1  UNL1        0.1002
     38 N         -66.9746  -48.1712  -32.7084 N.ar    1  UNL1       -0.2422
     39 C         -65.9885  -47.2365  -32.6721 C.ar    1  UNL1        0.1002
     40 C         -65.0392  -47.2588  -31.6475 C.ar    1  UNL1        0.0353
     41 C         -61.3328  -46.7117  -28.7400 C.3     1  UNL1        0.0569
     42 C         -61.2029  -45.2184  -28.8279 C.ar    1  UNL1       -0.0017
     43 C         -60.4222  -44.4043  -28.0124 C.ar    1  UNL1        0.0681
     44 N         -60.4823  -43.1198  -28.4315 N.ar    1  UNL1       -0.3523
     45 C         -61.2862  -43.1177  -29.5091 C.ar    1  UNL1        0.0563
     46 C         -61.6366  -42.0243  -30.3000 C.ar    1  UNL1        0.0170
     47 C         -62.4820  -42.2534  -31.4011 C.ar    1  UNL1        0.0015
     48 C         -62.9501  -43.5557  -31.6855 C.ar    1  UNL1        0.0001
     49 C         -62.5781  -44.6407  -30.8711 C.ar    1  UNL1        0.0012
     50 C         -61.7426  -44.3813  -29.7844 C.ar    1  UNL1        0.0131
     51 H         -59.9892  -42.3014  -28.0102 H       1  UNL1        0.1660
@<TRIPOS>BOND
     1     1     2    2
     2     2     3   am
     3     3    30    1
     4    30    41    1
     5    41    42    1
     6    42    43   ar
     7    43    44   ar
     8    44    45   ar
     9    45    46   ar
    10    46    47   ar
    11    47    48   ar
    12    48    49   ar
    13    49    50   ar
    14    30    31    1
    15    31    32    2
    16    31    33   am
    17    33    35    1
    18    35    36   ar
    19    36    37   ar
    20    37    38   ar
    21    38    39   ar
    22    39    40   ar
    23     2     5    1
    24     5     6   ar
    25     6     7   ar
    26     7     8   ar
    27     8    14    1
    28    14    15    1
    29    15    16    1
    30    16    17    1
    31    17    20    1
    32    20    21   ar
    33    21    22   ar
    34    22    23   ar
    35    23    26    1
    36    26    27    1
    37    26    28    1
    38    26    29    1
    39    23    24   ar
    40    24    25   ar
    41    17    18    1
    42    18    19    1
    43     8     9   ar
    44     9    10    1
    45     9    11   ar
    46    11    12    1
    47    50    42   ar
    48    40    35   ar
    49    11     5   ar
    50    50    45   ar
    51    19    14    1
    52    25    20   ar
    53     3     4    1
    54    44    51    1
    55    33    34    1
    56    10    13    1
@<TRIPOS>MOLECULE
*****
 51 56 0 0 0
SMALL
GASTEIGER

@<TRIPOS>ATOM
      1 O         -60.9901  -46.8413  -25.9175 O.2     1  UNL1       -0.2701
      2 C         -61.9034  -45.9727  -25.9730 C.2     1  UNL1        0.2484
      3 N         -62.7975  -45.9490  -27.0963 N.am    1  UNL1       -0.2945
      4 H         -63.6927  -45.4157  -27.0135 H       1  UNL1        0.1501
      5 C         -62.0594  -45.0109  -24.8592 C.ar    1  UNL1        0.0839
      6 C         -62.3385  -43.6644  -25.1421 C.ar    1  UNL1        0.0082
      7 C         -62.4850  -42.7382  -24.1084 C.ar    1  UNL1        0.0179
      8 C         -62.3676  -43.1422  -22.7725 C.ar    1  UNL1        0.0844
      9 C         -62.0998  -44.4893  -22.4751 C.ar    1  UNL1        0.1748
     10 O         -61.9734  -44.8890  -21.1442 O.3     1  UNL1       -0.5026
     11 C         -61.9536  -45.4223  -23.5157 C.ar    1  UNL1        0.1791
     12 F         -61.7541  -46.7300  -23.2102 F       1  UNL1       -0.2008
     13 H         -61.7768  -45.8488  -20.8869 H       1  UNL1        0.2923
     14 N         -62.5236  -42.1805  -21.7172 N.pl3   1  UNL1       -0.3017
     15 C         -63.7843  -42.1311  -20.9665 C.3     1  UNL1        0.1124
     16 C         -63.7238  -41.1093  -19.8237 C.3     1  UNL1        0.1136
     17 N         -63.1310  -39.8420  -20.2838 N.pl3   1  UNL1       -0.2897
     18 C         -61.9487  -39.8644  -21.1648 C.3     1  UNL1        0.1136
     19 C         -61.4176  -41.2855  -21.3671 C.3     1  UNL1        0.1124
     20 C         -63.6001  -38.5911  -19.7287 C.ar    1  UNL1        0.1318
     21 C         -64.6466  -38.5511  -18.7899 C.ar    1  UNL1        0.0343
     22 C         -65.0715  -37.3234  -18.2795 C.ar    1  UNL1        0.0083
     23 C         -64.4464  -36.1348  -18.6829 C.ar    1  UNL1        0.0906
     24 C         -63.4222  -36.2125  -19.6383 C.ar    1  UNL1        0.1041
     25 N         -63.0269  -37.4189  -20.1231 N.ar    1  UNL1       -0.2292
     26 C         -64.9296  -34.7994  -18.1770 C.3     1  UNL1        0.4200
     27 F         -65.9859  -34.3400  -18.9447 F       1  UNL1       -0.1658
     28 F         -63.8942  -33.8861  -18.2425 F       1  UNL1       -0.1658
     29 F         -65.3596  -34.9007  -16.8652 F       1  UNL1       -0.1658
     30 C         -62.5734  -46.7778  -28.2849 C.3     1  UNL1        0.1535
     31 C         -63.8365  -46.8583  -29.0983 C.2     1  UNL1        0.2443
     32 O         -64.6377  -45.8847  -29.0862 O.2     1  UNL1       -0.2730
     33 N         -64.1614  -48.0587  -29.8188 N.am    1  UNL1       -0.2825
     34 H         -63.6663  -48.9395  -29.5516 H       1  UNL1        0.1549
     35 C         -65.1843  -48.1404  -30.8257 C.ar    1  UNL1        0.0535
     36 C         -65.1930  -47.2800  -31.9369 C.ar    1  UNL1        0.0353
     37 C         -66.1921  -47.4146  -32.9042 C.ar    1  UNL1        0.1002
     38 N         -67.1398  -48.3806  -32.7771 N.ar    1  UNL1       -0.2422
     39 C         -67.1450  -49.2382  -31.7226 C.ar    1  UNL1        0.1002
     40 C         -66.1633  -49.1390  -30.7338 C.ar    1  UNL1        0.0353
     41 C         -61.4275  -46.2122  -29.1417 C.3     1  UNL1        0.0569
     42 C         -61.7817  -44.8642  -29.7002 C.ar    1  UNL1       -0.0017
     43 C         -62.6081  -44.6093  -30.7907 C.ar    1  UNL1        0.0681
     44 N         -62.7700  -43.2771  -30.9592 N.ar    1  UNL1       -0.3523
     45 C         -62.0609  -42.6898  -29.9795 C.ar    1  UNL1        0.0563
     46 C         -61.9371  -41.3241  -29.7280 C.ar    1  UNL1        0.0170
     47 C         -61.1550  -40.9263  -28.6282 C.ar    1  UNL1        0.0015
     48 C         -60.5241  -41.8916  -27.8120 C.ar    1  UNL1        0.0001
     49 C         -60.6684  -43.2633  -28.0885 C.ar    1  UNL1        0.0012
     50 C         -61.4465  -43.6263  -29.1881 C.ar    1  UNL1        0.0131
     51 H         -63.3439  -42.8053  -31.6930 H       1  UNL1        0.1660
@<TRIPOS>BOND
     1     1     2    2
     2     2     3   am
     3     3    30    1
     4    30    41    1
     5    41    42    1
     6    42    43   ar
     7    43    44   ar
     8    44    45   ar
     9    45    46   ar
    10    46    47   ar
    11    47    48   ar
    12    48    49   ar
    13    49    50   ar
    14    30    31    1
    15    31    32    2
    16    31    33   am
    17    33    35    1
    18    35    36   ar
    19    36    37   ar
    20    37    38   ar
    21    38    39   ar
    22    39    40   ar
    23     2     5    1
    24     5     6   ar
    25     6     7   ar
    26     7     8   ar
    27     8    14    1
    28    14    15    1
    29    15    16    1
    30    16    17    1
    31    17    20    1
    32    20    21   ar
    33    21    22   ar
    34    22    23   ar
    35    23    26    1
    36    26    27    1
    37    26    28    1
    38    26    29    1
    39    23    24   ar
    40    24    25   ar
    41    17    18    1
    42    18    19    1
    43     8     9   ar
    44     9    10    1
    45     9    11   ar
    46    11    12    1
    47    50    42   ar
    48    40    35   ar
    49    11     5   ar
    50    50    45   ar
    51    19    14    1
    52    25    20   ar
    53     3     4    1
    54    44    51    1
    55    33    34    1
    56    10    13    1
@<TRIPOS>MOLECULE
*****
 51 56 0 0 0
SMALL
GASTEIGER

@<TRIPOS>ATOM
      1 O         -60.7719  -47.3894  -24.4945 O.2     1  UNL1       -0.2701
      2 C         -61.7874  -46.6472  -24.5928 C.2     1  UNL1        0.2484
      3 N         -62.8386  -46.9945  -25.5070 N.am    1  UNL1       -0.2945
      4 H         -63.7719  -46.5370  -25.3953 H       1  UNL1        0.1501
      5 C         -61.8936  -45.4449  -23.7364 C.ar    1  UNL1        0.0839
      6 C         -61.6574  -45.5553  -22.3569 C.ar    1  UNL1        0.0082
      7 C         -61.7565  -44.4364  -21.5286 C.ar    1  UNL1        0.0179
      8 C         -62.0812  -43.1839  -22.0648 C.ar    1  UNL1        0.0844
      9 C         -62.3088  -43.0573  -23.4457 C.ar    1  UNL1        0.1748
     10 O         -62.6418  -41.8110  -23.9776 O.3     1  UNL1       -0.5026
     11 C         -62.2078  -44.1835  -24.2800 C.ar    1  UNL1        0.1791
     12 F         -62.3723  -44.0331  -25.6192 F       1  UNL1       -0.2008
     13 H         -62.8176  -41.6773  -24.9661 H       1  UNL1        0.2923
     14 N         -62.1770  -42.0391  -21.2029 N.pl3   1  UNL1       -0.3017
     15 C         -63.1237  -42.0577  -20.0809 C.3     1  UNL1        0.1124
     16 C         -63.0120  -40.7901  -19.2239 C.3     1  UNL1        0.1136
     17 N         -62.9522  -39.5872  -20.0716 N.pl3   1  UNL1       -0.2897
     18 C         -62.1231  -39.5918  -21.2911 C.3     1  UNL1        0.1136
     19 C         -61.3068  -40.8801  -21.4185 C.3     1  UNL1        0.1124
     20 C         -63.5613  -38.3583  -19.6115 C.ar    1  UNL1        0.1318
     21 C         -64.7057  -38.3674  -18.7939 C.ar    1  UNL1        0.0343
     22 C         -65.2644  -37.1597  -18.3726 C.ar    1  UNL1        0.0083
     23 C         -64.6781  -35.9411  -18.7436 C.ar    1  UNL1        0.0906
     24 C         -63.5515  -35.9716  -19.5787 C.ar    1  UNL1        0.1041
     25 N         -63.0263  -37.1595  -19.9786 N.ar    1  UNL1       -0.2292
     26 C         -65.3012  -34.6301  -18.3365 C.3     1  UNL1        0.4200
     27 F         -64.4175  -33.5849  -18.5432 F       1  UNL1       -0.1658
     28 F         -65.6334  -34.6809  -16.9957 F       1  UNL1       -0.1658
     29 F         -66.4450  -34.3827  -19.0757 F       1  UNL1       -0.1658
     30 C         -62.6943  -48.0826  -26.4792 C.3     1  UNL1        0.1535
     31 C         -63.0321  -49.3972  -25.8301 C.2     1  UNL1        0.2443
     32 O         -63.7058  -50.2454  -26.4755 O.2     1  UNL1       -0.2730
     33 N         -62.6570  -49.6516  -24.4663 N.am    1  UNL1       -0.2825
     34 H         -62.4044  -48.8335  -23.8669 H       1  UNL1        0.1549
     35 C         -62.6888  -50.9513  -23.8526 C.ar    1  UNL1        0.0535
     36 C         -63.7840  -51.8163  -24.0180 C.ar    1  UNL1        0.0353
     37 C         -63.7585  -53.0810  -23.4247 C.ar    1  UNL1        0.1002
     38 N         -62.6752  -53.4757  -22.7049 N.ar    1  UNL1       -0.2422
     39 C         -61.5945  -52.6672  -22.5439 C.ar    1  UNL1        0.1002
     40 C         -61.5786  -51.3954  -23.1216 C.ar    1  UNL1        0.0353
     41 C         -63.5967  -47.8496  -27.7033 C.3     1  UNL1        0.0569
     42 C         -63.3582  -46.4940  -28.3033 C.ar    1  UNL1       -0.0017
     43 C         -64.3265  -45.5471  -28.6244 C.ar    1  UNL1        0.0681
     44 N         -63.7453  -44.4093  -29.0680 N.ar    1  UNL1       -0.3523
     45 C         -62.4194  -44.6265  -29.0209 C.ar    1  UNL1        0.0563
     46 C         -61.4041  -43.7341  -29.3625 C.ar    1  UNL1        0.0170
     47 C         -60.0729  -44.1656  -29.2165 C.ar    1  UNL1        0.0015
     48 C         -59.7897  -45.4633  -28.7350 C.ar    1  UNL1        0.0001
     49 C         -60.8347  -46.3418  -28.3959 C.ar    1  UNL1        0.0012
     50 C         -62.1439  -45.8868  -28.5555 C.ar    1  UNL1        0.0131
     51 H         -64.2315  -43.5356  -29.3693 H       1  UNL1        0.1660
@<TRIPOS>BOND
     1     1     2    2
     2     2     3   am
     3     3    30    1
     4    30    41    1
     5    41    42    1
     6    42    43   ar
     7    43    44   ar
     8    44    45   ar
     9    45    46   ar
    10    46    47   ar
    11    47    48   ar
    12    48    49   ar
    13    49    50   ar
    14    30    31    1
    15    31    32    2
    16    31    33   am
    17    33    35    1
    18    35    36   ar
    19    36    37   ar
    20    37    38   ar
    21    38    39   ar
    22    39    40   ar
    23     2     5    1
    24     5     6   ar
    25     6     7   ar
    26     7     8   ar
    27     8    14    1
    28    14    15    1
    29    15    16    1
    30    16    17    1
    31    17    20    1
    32    20    21   ar
    33    21    22   ar
    34    22    23   ar
    35    23    26    1
    36    26    27    1
    37    26    28    1
    38    26    29    1
    39    23    24   ar
    40    24    25   ar
    41    17    18    1
    42    18    19    1
    43     8     9   ar
    44     9    10    1
    45     9    11   ar
    46    11    12    1
    47    50    42   ar
    48    40    35   ar
    49    11     5   ar
    50    50    45   ar
    51    19    14    1
    52    25    20   ar
    53     3     4    1
    54    44    51    1
    55    33    34    1
    56    10    13    1
@<TRIPOS>MOLECULE
*****
 51 56 0 0 0
SMALL
GASTEIGER

@<TRIPOS>ATOM
      1 O         -60.4015  -42.0358  -21.3862 O.2     1  UNL1       -0.2701
      2 C         -61.4526  -41.7590  -22.0268 C.2     1  UNL1        0.2484
      3 N         -62.3715  -40.7878  -21.5035 N.am    1  UNL1       -0.2945
      4 H         -63.0855  -40.3757  -22.1462 H       1  UNL1        0.1501
      5 C         -61.7046  -42.4176  -23.3278 C.ar    1  UNL1        0.0839
      6 C         -60.8769  -43.4741  -23.7401 C.ar    1  UNL1        0.0082
      7 C         -61.0922  -44.1072  -24.9651 C.ar    1  UNL1        0.0179
      8 C         -62.1459  -43.7050  -25.7955 C.ar    1  UNL1        0.0844
      9 C         -62.9889  -42.6565  -25.3896 C.ar    1  UNL1        0.1748
     10 O         -64.0325  -42.2500  -26.2220 O.3     1  UNL1       -0.5026
     11 C         -62.7731  -42.0197  -24.1557 C.ar    1  UNL1        0.1791
     12 F         -63.6319  -41.0489  -23.7517 F       1  UNL1       -0.2008
     13 H         -64.6601  -41.4962  -25.9692 H       1  UNL1        0.2923
     14 N         -62.3596  -44.3663  -27.0524 N.pl3   1  UNL1       -0.3017
     15 C         -62.9008  -43.6054  -28.1853 C.3     1  UNL1        0.1124
     16 C         -62.9670  -44.4567  -29.4600 C.3     1  UNL1        0.1136
     17 N         -63.5316  -45.7865  -29.1741 N.pl3   1  UNL1       -0.2897
     18 C         -63.1165  -46.5121  -27.9592 C.3     1  UNL1        0.1136
     19 C         -62.0007  -45.7779  -27.2122 C.3     1  UNL1        0.1124
     20 C         -64.3485  -46.4447  -30.1703 C.ar    1  UNL1        0.1318
     21 C         -64.8972  -45.7364  -31.2545 C.ar    1  UNL1        0.0343
     22 C         -65.6817  -46.4079  -32.1935 C.ar    1  UNL1        0.0083
     23 C         -65.9071  -47.7866  -32.0713 C.ar    1  UNL1        0.0906
     24 C         -65.3630  -48.4543  -30.9641 C.ar    1  UNL1        0.1041
     25 N         -64.6043  -47.7791  -30.0611 N.ar    1  UNL1       -0.2292
     26 C         -66.7936  -48.5127  -33.0508 C.3     1  UNL1        0.4200
     27 F         -66.1609  -48.6472  -34.2745 F       1  UNL1       -0.1658
     28 F         -67.9628  -47.7962  -33.2243 F       1  UNL1       -0.1658
     29 F         -67.1048  -49.7777  -32.5828 F       1  UNL1       -0.1658
     30 C         -62.2344  -40.2389  -20.1508 C.3     1  UNL1        0.1535
     31 C         -62.6744  -38.8002  -20.1352 C.2     1  UNL1        0.2443
     32 O         -62.3369  -38.0446  -21.0866 O.2     1  UNL1       -0.2730
     33 N         -63.4049  -38.2760  -19.0140 N.am    1  UNL1       -0.2825
     34 H         -63.3815  -38.8149  -18.1189 H       1  UNL1        0.1549
     35 C         -64.0956  -37.0151  -19.0227 C.ar    1  UNL1        0.0535
     36 C         -65.3995  -36.8942  -19.5329 C.ar    1  UNL1        0.0353
     37 C         -66.0414  -35.6538  -19.4955 C.ar    1  UNL1        0.1002
     38 N         -65.4131  -34.5759  -18.9562 N.ar    1  UNL1       -0.2422
     39 C         -64.1595  -34.6679  -18.4389 C.ar    1  UNL1        0.1002
     40 C         -63.4827  -35.8898  -18.4551 C.ar    1  UNL1        0.0353
     41 C         -63.0585  -41.0551  -19.1399 C.3     1  UNL1        0.0569
     42 C         -64.1554  -41.8184  -19.8244 C.ar    1  UNL1       -0.0017
     43 C         -64.3544  -43.1955  -19.7892 C.ar    1  UNL1        0.0681
     44 N         -65.4873  -43.5258  -20.4501 N.ar    1  UNL1       -0.3523
     45 C         -66.0094  -42.3691  -20.8937 C.ar    1  UNL1        0.0563
     46 C         -67.1903  -42.1963  -21.6143 C.ar    1  UNL1        0.0170
     47 C         -67.5623  -40.8846  -21.9621 C.ar    1  UNL1        0.0015
     48 C         -66.7565  -39.7877  -21.5833 C.ar    1  UNL1        0.0001
     49 C         -65.5709  -39.9921  -20.8543 C.ar    1  UNL1        0.0012
     50 C         -65.2265  -41.3041  -20.5281 C.ar    1  UNL1        0.0131
     51 H         -65.8815  -44.4849  -20.5738 H       1  UNL1        0.1660
@<TRIPOS>BOND
     1     1     2    2
     2     2     3   am
     3     3    30    1
     4    30    41    1
     5    41    42    1
     6    42    43   ar
     7    43    44   ar
     8    44    45   ar
     9    45    46   ar
    10    46    47   ar
    11    47    48   ar
    12    48    49   ar
    13    49    50   ar
    14    30    31    1
    15    31    32    2
    16    31    33   am
    17    33    35    1
    18    35    36   ar
    19    36    37   ar
    20    37    38   ar
    21    38    39   ar
    22    39    40   ar
    23     2     5    1
    24     5     6   ar
    25     6     7   ar
    26     7     8   ar
    27     8    14    1
    28    14    15    1
    29    15    16    1
    30    16    17    1
    31    17    20    1
    32    20    21   ar
    33    21    22   ar
    34    22    23   ar
    35    23    26    1
    36    26    27    1
    37    26    28    1
    38    26    29    1
    39    23    24   ar
    40    24    25   ar
    41    17    18    1
    42    18    19    1
    43     8     9   ar
    44     9    10    1
    45     9    11   ar
    46    11    12    1
    47    50    42   ar
    48    40    35   ar
    49    11     5   ar
    50    50    45   ar
    51    19    14    1
    52    25    20   ar
    53     3     4    1
    54    44    51    1
    55    33    34    1
    56    10    13    1
@<TRIPOS>MOLECULE
*****
 51 56 0 0 0
SMALL
GASTEIGER

@<TRIPOS>ATOM
      1 O         -63.1168  -54.4284  -22.4218 O.2     1  UNL1       -0.2701
      2 C         -64.0579  -53.6490  -22.7355 C.2     1  UNL1        0.2484
      3 N         -65.4104  -53.9911  -22.3957 N.am    1  UNL1       -0.2945
      4 H         -66.1380  -53.2409  -22.4170 H       1  UNL1        0.1501
      5 C         -63.7474  -52.3747  -23.4208 C.ar    1  UNL1        0.0839
      6 C         -64.6259  -51.8839  -24.3999 C.ar    1  UNL1        0.0082
      7 C         -64.3515  -50.6869  -25.0630 C.ar    1  UNL1        0.0179
      8 C         -63.2009  -49.9515  -24.7517 C.ar    1  UNL1        0.0844
      9 C         -62.3192  -50.4256  -23.7655 C.ar    1  UNL1        0.1748
     10 O         -61.1681  -49.6972  -23.4629 O.3     1  UNL1       -0.5026
     11 C         -62.5958  -51.6301  -23.0968 C.ar    1  UNL1        0.1791
     12 F         -61.7653  -52.0438  -22.1057 F       1  UNL1       -0.2008
     13 H         -60.5048  -50.0055  -22.7621 H       1  UNL1        0.2923
     14 N         -62.9309  -48.7194  -25.4386 N.pl3   1  UNL1       -0.3017
     15 C         -63.1481  -47.4439  -24.7449 C.3     1  UNL1        0.1124
     16 C         -62.7151  -46.2498  -25.6053 C.3     1  UNL1        0.1136
     17 N         -63.2093  -46.3909  -26.9855 N.pl3   1  UNL1       -0.2897
     18 C         -63.1407  -47.7021  -27.6569 C.3     1  UNL1        0.1136
     19 C         -62.4038  -48.7386  -26.8056 C.3     1  UNL1        0.1124
     20 C         -63.5918  -45.2117  -27.7312 C.ar    1  UNL1        0.1318
     21 C         -63.0499  -43.9480  -27.4350 C.ar    1  UNL1        0.0343
     22 C         -63.4464  -42.8343  -28.1769 C.ar    1  UNL1        0.0083
     23 C         -64.3651  -42.9739  -29.2271 C.ar    1  UNL1        0.0906
     24 C         -64.9013  -44.2457  -29.4775 C.ar    1  UNL1        0.1041
     25 N         -64.5022  -45.3153  -28.7403 N.ar    1  UNL1       -0.2292
     26 C         -64.8387  -41.7708  -30.0024 C.3     1  UNL1        0.4200
     27 F         -66.0161  -42.0549  -30.6725 F       1  UNL1       -0.1658
     28 F         -63.8715  -41.4127  -30.9226 F       1  UNL1       -0.1658
     29 F         -65.0708  -40.7029  -29.1529 F       1  UNL1       -0.1658
     30 C         -65.7676  -55.3103  -21.8644 C.3     1  UNL1        0.1535
     31 C         -66.8640  -55.1711  -20.8435 C.2     1  UNL1        0.2443
     32 O         -67.5011  -54.0854  -20.7709 O.2     1  UNL1       -0.2730
     33 N         -67.1300  -56.2341  -19.9136 N.am    1  UNL1       -0.2825
     34 H         -66.3931  -56.9629  -19.7789 H       1  UNL1        0.1549
     35 C         -68.3101  -56.3110  -19.0962 C.ar    1  UNL1        0.0535
     36 C         -68.4724  -55.4993  -17.9605 C.ar    1  UNL1        0.0353
     37 C         -69.6487  -55.5896  -17.2118 C.ar    1  UNL1        0.1002
     38 N         -70.6339  -56.4467  -17.5890 N.ar    1  UNL1       -0.2422
     39 C         -70.5118  -57.2300  -18.6931 C.ar    1  UNL1        0.1002
     40 C         -69.3526  -57.1698  -19.4703 C.ar    1  UNL1        0.0353
     41 C         -66.2130  -56.2557  -22.9935 C.3     1  UNL1        0.0569
     42 C         -67.2366  -55.6022  -23.8765 C.ar    1  UNL1       -0.0017
     43 C         -66.9881  -54.8766  -25.0380 C.ar    1  UNL1        0.0681
     44 N         -68.1508  -54.5057  -25.6208 N.ar    1  UNL1       -0.3523
     45 C         -69.1302  -54.9985  -24.8427 C.ar    1  UNL1        0.0563
     46 C         -70.5054  -54.8916  -25.0457 C.ar    1  UNL1        0.0170
     47 C         -71.3579  -55.5050  -24.1095 C.ar    1  UNL1        0.0015
     48 C         -70.8227  -56.2062  -23.0059 C.ar    1  UNL1        0.0001
     49 C         -69.4305  -56.2996  -22.8276 C.ar    1  UNL1        0.0012
     50 C         -68.6113  -55.6775  -23.7700 C.ar    1  UNL1        0.0131
     51 H         -68.2607  -53.9611  -26.5050 H       1  UNL1        0.1660
@<TRIPOS>BOND
     1     1     2    2
     2     2     3   am
     3     3    30    1
     4    30    41    1
     5    41    42    1
     6    42    43   ar
     7    43    44   ar
     8    44    45   ar
     9    45    46   ar
    10    46    47   ar
    11    47    48   ar
    12    48    49   ar
    13    49    50   ar
    14    30    31    1
    15    31    32    2
    16    31    33   am
    17    33    35    1
    18    35    36   ar
    19    36    37   ar
    20    37    38   ar
    21    38    39   ar
    22    39    40   ar
    23     2     5    1
    24     5     6   ar
    25     6     7   ar
    26     7     8   ar
    27     8    14    1
    28    14    15    1
    29    15    16    1
    30    16    17    1
    31    17    20    1
    32    20    21   ar
    33    21    22   ar
    34    22    23   ar
    35    23    26    1
    36    26    27    1
    37    26    28    1
    38    26    29    1
    39    23    24   ar
    40    24    25   ar
    41    17    18    1
    42    18    19    1
    43     8     9   ar
    44     9    10    1
    45     9    11   ar
    46    11    12    1
    47    50    42   ar
    48    40    35   ar
    49    11     5   ar
    50    50    45   ar
    51    19    14    1
    52    25    20   ar
    53     3     4    1
    54    44    51    1
    55    33    34    1
    56    10    13    1
@<TRIPOS>MOLECULE
*****
 51 56 0 0 0
SMALL
GASTEIGER

@<TRIPOS>ATOM
      1 O         -60.7496  -47.3324  -24.5253 O.2     1  UNL1       -0.2701
      2 C         -61.7627  -46.5891  -24.6389 C.2     1  UNL1        0.2484
      3 N         -62.7881  -46.9214  -25.5873 N.am    1  UNL1       -0.2945
      4 H         -63.7245  -46.4663  -25.4936 H       1  UNL1        0.1501
      5 C         -61.8934  -45.4015  -23.7656 C.ar    1  UNL1        0.0839
      6 C         -61.5979  -45.5130  -22.3976 C.ar    1  UNL1        0.0082
      7 C         -61.7186  -44.4080  -21.5537 C.ar    1  UNL1        0.0179
      8 C         -62.1246  -43.1680  -22.0628 C.ar    1  UNL1        0.0844
      9 C         -62.4123  -43.0399  -23.4323 C.ar    1  UNL1        0.1748
     10 O         -62.8261  -41.8065  -23.9368 O.3     1  UNL1       -0.5026
     11 C         -62.2897  -44.1520  -24.2825 C.ar    1  UNL1        0.1791
     12 F         -62.5138  -43.9974  -25.6125 F       1  UNL1       -0.2008
     13 H         -63.0470  -41.6724  -24.9163 H       1  UNL1        0.2923
     14 N         -62.2420  -42.0373  -21.1850 N.pl3   1  UNL1       -0.3017
     15 C         -63.3079  -42.0148  -20.1758 C.3     1  UNL1        0.1124
     16 C         -63.2110  -40.7755  -19.2765 C.3     1  UNL1        0.1136
     17 N         -62.9781  -39.5623  -20.0783 N.pl3   1  UNL1       -0.2897
     18 C         -62.0192  -39.5980  -21.1981 C.3     1  UNL1        0.1136
     19 C         -61.2795  -40.9358  -21.2704 C.3     1  UNL1        0.1124
     20 C         -63.5537  -38.3046  -19.6542 C.ar    1  UNL1        0.1318
     21 C         -62.9915  -37.0736  -20.0374 C.ar    1  UNL1        0.0343
     22 C         -63.5760  -35.8820  -19.6056 C.ar    1  UNL1        0.0083
     23 C         -64.7305  -35.9075  -18.8102 C.ar    1  UNL1        0.0906
     24 C         -65.2486  -37.1541  -18.4290 C.ar    1  UNL1        0.1041
     25 N         -64.6612  -38.3014  -18.8596 N.ar    1  UNL1       -0.2292
     26 C         -65.3413  -34.6286  -18.2964 C.3     1  UNL1        0.4200
     27 F         -66.5260  -34.3538  -18.9574 F       1  UNL1       -0.1658
     28 F         -64.4573  -33.5865  -18.5038 F       1  UNL1       -0.1658
     29 F         -65.6134  -34.7268  -16.9427 F       1  UNL1       -0.1658
     30 C         -62.6162  -47.9929  -26.5734 C.3     1  UNL1        0.1535
     31 C         -62.9829  -49.3168  -25.9598 C.2     1  UNL1        0.2443
     32 O         -63.6329  -50.1521  -26.6452 O.2     1  UNL1       -0.2730
     33 N         -62.6624  -49.5949  -24.5867 N.am    1  UNL1       -0.2825
     34 H         -62.4314  -48.7875  -23.9645 H       1  UNL1        0.1549
     35 C         -62.7219  -50.9043  -23.9963 C.ar    1  UNL1        0.0535
     36 C         -61.6424  -51.4324  -23.2677 C.ar    1  UNL1        0.0353
     37 C         -61.7561  -52.6989  -22.6887 C.ar    1  UNL1        0.1002
     38 N         -62.9086  -53.4077  -22.8182 N.ar    1  UNL1       -0.2422
     39 C         -63.9749  -52.9141  -23.5014 C.ar    1  UNL1        0.1002
     40 C         -63.9036  -51.6513  -24.0945 C.ar    1  UNL1        0.0353
     41 C         -63.4749  -47.7331  -27.8232 C.3     1  UNL1        0.0569
     42 C         -62.9471  -46.5697  -28.6121 C.ar    1  UNL1       -0.0017
     43 C         -61.6765  -46.0097  -28.5149 C.ar    1  UNL1        0.0681
     44 N         -61.5205  -45.0306  -29.4348 N.ar    1  UNL1       -0.3523
     45 C         -62.6775  -44.9740  -30.1172 C.ar    1  UNL1        0.0563
     46 C         -62.9904  -44.1298  -31.1817 C.ar    1  UNL1        0.0170
     47 C         -64.2637  -44.2544  -31.7673 C.ar    1  UNL1        0.0015
     48 C         -65.1838  -45.2111  -31.2833 C.ar    1  UNL1        0.0001
     49 C         -64.8396  -46.0513  -30.2088 C.ar    1  UNL1        0.0012
     50 C         -63.5718  -45.9011  -29.6464 C.ar    1  UNL1        0.0131
     51 H         -60.6667  -44.4500  -29.5907 H       1  UNL1        0.1660
@<TRIPOS>BOND
     1     1     2    2
     2     2     3   am
     3     3    30    1
     4    30    41    1
     5    41    42    1
     6    42    43   ar
     7    43    44   ar
     8    44    45   ar
     9    45    46   ar
    10    46    47   ar
    11    47    48   ar
    12    48    49   ar
    13    49    50   ar
    14    30    31    1
    15    31    32    2
    16    31    33   am
    17    33    35    1
    18    35    36   ar
    19    36    37   ar
    20    37    38   ar
    21    38    39   ar
    22    39    40   ar
    23     2     5    1
    24     5     6   ar
    25     6     7   ar
    26     7     8   ar
    27     8    14    1
    28    14    15    1
    29    15    16    1
    30    16    17    1
    31    17    20    1
    32    20    21   ar
    33    21    22   ar
    34    22    23   ar
    35    23    26    1
    36    26    27    1
    37    26    28    1
    38    26    29    1
    39    23    24   ar
    40    24    25   ar
    41    17    18    1
    42    18    19    1
    43     8     9   ar
    44     9    10    1
    45     9    11   ar
    46    11    12    1
    47    50    42   ar
    48    40    35   ar
    49    11     5   ar
    50    50    45   ar
    51    19    14    1
    52    25    20   ar
    53     3     4    1
    54    44    51    1
    55    33    34    1
    56    10    13    1
