@<TRIPOS>MOLECULE
*****
 53 59 0 0 0
SMALL
GASTEIGER

@<TRIPOS>ATOM
      1 C          60.8147   85.5166    9.5896 C.ar    1  UNL1        0.0497
      2 C          62.0756   84.9095    9.6749 C.ar    1  UNL1        0.0177
      3 C          62.3332   83.9541   10.6611 C.ar    1  UNL1        0.0382
      4 C          61.3384   83.5915   11.5759 C.ar    1  UNL1        0.1388
      5 C          60.0752   84.2054   11.4985 C.ar    1  UNL1        0.0382
      6 C          59.8155   85.1574   10.5086 C.ar    1  UNL1        0.0177
      7 N          59.9698   88.4524    6.6665 N.pl3   1  UNL1       -0.3021
      8 C          60.5775   88.8702    7.9329 C.3     1  UNL1        0.1124
      9 C          61.3614   87.7081    8.5411 C.3     1  UNL1        0.1143
     10 N          60.5515   86.4823    8.5540 N.pl3   1  UNL1       -0.2831
     11 C          59.8890   86.0756    7.2990 C.3     1  UNL1        0.2091
     12 O          59.0108   84.9970    7.5102 O.3     1  UNL1       -0.3658
     13 C          59.1221   87.2569    6.6858 C.3     1  UNL1        0.1419
     14 H          58.3686   85.2719    8.2162 H       1  UNL1        0.2123
     15 C          59.8925   91.0983    3.3257 C.ar    1  UNL1        0.0699
     16 C          61.0781   90.4368    3.6883 C.ar    1  UNL1        0.0190
     17 C          61.1011   89.5708    4.7849 C.ar    1  UNL1        0.0160
     18 C          59.9383   89.3441    5.5361 C.ar    1  UNL1        0.0481
     19 C          58.7506   89.9986    5.1723 C.ar    1  UNL1        0.0160
     20 C          58.7270   90.8653    4.0760 C.ar    1  UNL1        0.0190
     21 N          59.8440   92.8104    0.1248 N.ar    1  UNL1       -0.2024
     22 N          59.8233   93.8461    0.9505 N.ar    1  UNL1       -0.1442
     23 C          59.8393   93.3382    2.2020 C.ar    1  UNL1        0.2073
     24 N          59.8746   91.9863    2.1912 N.ar    1  UNL1       -0.2398
     25 C          59.8698   91.6919    0.8760 C.ar    1  UNL1        0.3522
     26 O          59.8539   90.5217    0.4075 O.2     1  UNL1       -0.2444
     27 C          59.8161   92.9327   -1.3374 C.3     1  UNL1        0.1099
     28 C          61.1603   92.4896   -1.9312 C.3     1  UNL1        0.0265
     29 C          57.3075   92.4543   -1.2070 C.3     1  UNL1        0.0021
     30 C          58.6252   92.1396   -1.9152 C.3     1  UNL1        0.0245
     31 O          61.6407   82.6143   12.5326 O.3     1  UNL1       -0.4727
     32 C          62.5051   82.8161   13.6496 C.3     1  UNL1        0.2374
     33 C          63.2622   84.1436   13.5079 C.3     1  UNL1        0.1909
     34 C          64.2055   84.4003   14.6569 C.3     1  UNL1        0.1783
     35 O          63.5552   85.3292   15.4643 O.3     1  UNL1       -0.3271
     36 C          62.7045   86.0404   14.5871 C.3     1  UNL1        0.2232
     37 O          62.3562   85.2075   13.4996 O.3     1  UNL1       -0.3258
     38 C          63.4051   87.3066   14.0751 C.ar    1  UNL1        0.0404
     39 C          64.4619   87.8711   14.8231 C.ar    1  UNL1        0.0021
     40 C          65.1057   89.0329   14.3938 C.ar    1  UNL1        0.0113
     41 C          64.6971   89.6687   13.2225 C.ar    1  UNL1        0.0585
     42 CL         65.5068   91.1303   12.6883 Cl      1  UNL1       -0.0822
     43 C          63.6319   89.1504   12.4852 C.ar    1  UNL1        0.0226
     44 C          62.9750   87.9862   12.9032 C.ar    1  UNL1        0.0591
     45 CL         61.5987   87.4541   11.9388 Cl      1  UNL1       -0.0824
     46 C          61.4351   86.4561   15.3645 C.3     1  UNL1        0.1338
     47 N          60.2040   86.1418   14.5987 N.3     1  UNL1       -0.2659
     48 C          59.6395   84.8372   15.0148 C.3     1  UNL1        0.0898
     49 C          58.1911   84.6409   14.5198 C.3     1  UNL1        0.0897
     50 N          57.9073   85.5473   13.3952 N.3     1  UNL1       -0.2691
     51 C          56.5803   85.2669   12.8270 C.3     1  UNL1        0.0897
     52 C          57.9996   86.9616   13.8156 C.3     1  UNL1        0.0897
     53 C          59.1913   87.2051   14.7604 C.3     1  UNL1        0.0898
@<TRIPOS>BOND
     1    29    30    1
     2    30    27    1
     3    27    28    1
     4    27    21    1
     5    21    22   ar
     6    22    23   ar
     7    23    24   ar
     8    24    15    1
     9    15    16   ar
    10    16    17   ar
    11    17    18   ar
    12    18     7    1
    13     7     8    1
    14     8     9    1
    15     9    10    1
    16    10     1    1
    17     1     2   ar
    18     2     3   ar
    19     3     4   ar
    20     4    31    1
    21    31    32    1
    22    32    33    1
    23    33    34    1
    24    34    35    1
    25    35    36    1
    26    36    46    1
    27    46    47    1
    28    47    48    1
    29    48    49    1
    30    49    50    1
    31    50    51    1
    32    50    52    1
    33    52    53    1
    34    36    38    1
    35    38    39   ar
    36    39    40   ar
    37    40    41   ar
    38    41    42    1
    39    41    43   ar
    40    43    44   ar
    41    44    45    1
    42    36    37    1
    43     4     5   ar
    44     5     6   ar
    45    10    11    1
    46    11    12    1
    47    11    13    1
    48    18    19   ar
    49    19    20   ar
    50    24    25   ar
    51    25    26    2
    52    25    21   ar
    53    20    15   ar
    54    13     7    1
    55     6     1   ar
    56    37    33    1
    57    53    47    1
    58    44    38   ar
    59    12    14    1
@<TRIPOS>MOLECULE
*****
 53 59 0 0 0
SMALL
GASTEIGER

@<TRIPOS>ATOM
      1 C          60.8065   86.6366   10.6789 C.ar    1  UNL1        0.0497
      2 C          59.7239   86.2627   11.4874 C.ar    1  UNL1        0.0177
      3 C          59.9446   85.6359   12.7163 C.ar    1  UNL1        0.0382
      4 C          61.2469   85.3726   13.1556 C.ar    1  UNL1        0.1388
      5 C          62.3348   85.7385   12.3425 C.ar    1  UNL1        0.0382
      6 C          62.1144   86.3704   11.1154 C.ar    1  UNL1        0.0177
      7 N          59.9471   88.6184    7.0441 N.pl3   1  UNL1       -0.3021
      8 C          59.4819   89.2126    8.3003 C.3     1  UNL1        0.1124
      9 C          60.3789   88.7610    9.4520 C.3     1  UNL1        0.1143
     10 N          60.5691   87.3043    9.4250 N.pl3   1  UNL1       -0.2831
     11 C          60.9868   86.6829    8.1527 C.3     1  UNL1        0.2091
     12 O          60.9502   85.2789    8.2327 O.3     1  UNL1       -0.3658
     13 C          60.0920   87.1605    6.9991 C.3     1  UNL1        0.1419
     14 H          60.0308   85.0217    8.5063 H       1  UNL1        0.2123
     15 C          59.9701   90.8913    3.4385 C.ar    1  UNL1        0.0699
     16 C          61.1274   90.2213    3.8702 C.ar    1  UNL1        0.0190
     17 C          61.1176   89.4779    5.0536 C.ar    1  UNL1        0.0160
     18 C          59.9494   89.3841    5.8245 C.ar    1  UNL1        0.0481
     19 C          58.7897   90.0471    5.3923 C.ar    1  UNL1        0.0160
     20 C          58.7989   90.7914    4.2092 C.ar    1  UNL1        0.0190
     21 N          59.9987   92.2501    0.0721 N.ar    1  UNL1       -0.2024
     22 N          59.9911   93.3687    0.7815 N.ar    1  UNL1       -0.1442
     23 C          59.9806   92.9980    2.0804 C.ar    1  UNL1        0.2073
     24 N          59.9858   91.6524    2.2151 N.ar    1  UNL1       -0.2398
     25 C          59.9904   91.2185    0.9392 C.ar    1  UNL1        0.3522
     26 O          59.9540   90.0052    0.5986 O.2     1  UNL1       -0.2444
     27 C          59.9912   92.2149   -1.3951 C.3     1  UNL1        0.1099
     28 C          58.6794   92.8038   -1.9319 C.3     1  UNL1        0.0265
     29 C          62.5398   92.2231   -1.6036 C.3     1  UNL1        0.0021
     30 C          61.2349   92.9396   -1.9511 C.3     1  UNL1        0.0245
     31 O          61.4152   84.7606   14.4040 O.3     1  UNL1       -0.4727
     32 C          62.3425   83.7095   14.6710 C.3     1  UNL1        0.2374
     33 C          61.7700   82.3611   14.2132 C.3     1  UNL1        0.1909
     34 C          62.8123   81.4707   13.5833 C.3     1  UNL1        0.1783
     35 O          62.5940   81.5646   12.2118 O.3     1  UNL1       -0.3271
     36 C          61.2210   81.8765   12.0832 C.3     1  UNL1        0.2232
     37 O          60.7907   82.5684   13.2381 O.3     1  UNL1       -0.3258
     38 C          60.3975   80.5938   11.9025 C.ar    1  UNL1        0.0404
     39 C          59.2148   80.4115   12.6528 C.ar    1  UNL1        0.0021
     40 C          58.4548   79.2476   12.5251 C.ar    1  UNL1        0.0113
     41 C          58.8674   78.2320   11.6640 C.ar    1  UNL1        0.0585
     42 CL         57.9110   76.7697   11.5090 Cl      1  UNL1       -0.0822
     43 C          60.0511   78.3733   10.9390 C.ar    1  UNL1        0.0226
     44 C          60.8253   79.5345   11.0569 C.ar    1  UNL1        0.0591
     45 CL         62.3368   79.5836   10.1512 Cl      1  UNL1       -0.0824
     46 C          61.0350   82.7653   10.8325 C.3     1  UNL1        0.1338
     47 N          60.1493   82.1170    9.8344 N.3     1  UNL1       -0.2659
     48 C          58.7816   82.6824    9.8931 C.3     1  UNL1        0.0898
     49 C          57.9394   82.3081    8.6553 C.3     1  UNL1        0.0897
     50 N          58.5140   81.1320    7.9819 N.3     1  UNL1       -0.2691
     51 C          57.6395   80.6838    6.8879 C.3     1  UNL1        0.0897
     52 C          59.8708   81.4213    7.4716 C.3     1  UNL1        0.0897
     53 C          60.6955   82.2564    8.4690 C.3     1  UNL1        0.0898
@<TRIPOS>BOND
     1    29    30    1
     2    30    27    1
     3    27    28    1
     4    27    21    1
     5    21    22   ar
     6    22    23   ar
     7    23    24   ar
     8    24    15    1
     9    15    16   ar
    10    16    17   ar
    11    17    18   ar
    12    18     7    1
    13     7     8    1
    14     8     9    1
    15     9    10    1
    16    10     1    1
    17     1     2   ar
    18     2     3   ar
    19     3     4   ar
    20     4    31    1
    21    31    32    1
    22    32    33    1
    23    33    34    1
    24    34    35    1
    25    35    36    1
    26    36    46    1
    27    46    47    1
    28    47    48    1
    29    48    49    1
    30    49    50    1
    31    50    51    1
    32    50    52    1
    33    52    53    1
    34    36    38    1
    35    38    39   ar
    36    39    40   ar
    37    40    41   ar
    38    41    42    1
    39    41    43   ar
    40    43    44   ar
    41    44    45    1
    42    36    37    1
    43     4     5   ar
    44     5     6   ar
    45    10    11    1
    46    11    12    1
    47    11    13    1
    48    18    19   ar
    49    19    20   ar
    50    24    25   ar
    51    25    26    2
    52    25    21   ar
    53    20    15   ar
    54    13     7    1
    55     6     1   ar
    56    37    33    1
    57    53    47    1
    58    44    38   ar
    59    12    14    1
@<TRIPOS>MOLECULE
*****
 53 59 0 0 0
SMALL
GASTEIGER

@<TRIPOS>ATOM
      1 C          60.2656   86.1762   10.1415 C.ar    1  UNL1        0.0497
      2 C          59.2361   86.1920   11.0931 C.ar    1  UNL1        0.0177
      3 C          59.3249   85.4015   12.2415 C.ar    1  UNL1        0.0382
      4 C          60.4402   84.5842   12.4568 C.ar    1  UNL1        0.1388
      5 C          61.4705   84.5594   11.4995 C.ar    1  UNL1        0.0382
      6 C          61.3844   85.3542   10.3530 C.ar    1  UNL1        0.0177
      7 N          59.9211   88.7502    6.8047 N.pl3   1  UNL1       -0.3021
      8 C          60.3866   89.3037    8.0794 C.3     1  UNL1        0.1124
      9 C          61.0361   88.2031    8.9171 C.3     1  UNL1        0.1143
     10 N          60.1759   87.0133    8.9729 N.pl3   1  UNL1       -0.2831
     11 C          59.6552   86.4738    7.7011 C.3     1  UNL1        0.2091
     12 O          58.7096   85.4567    7.9258 O.3     1  UNL1       -0.3658
     13 C          59.0241   87.5922    6.8583 C.3     1  UNL1        0.1419
     14 H          57.9986   85.8363    8.5060 H       1  UNL1        0.2123
     15 C          60.3432   90.9508    3.1790 C.ar    1  UNL1        0.0699
     16 C          59.1702   91.0524    3.9461 C.ar    1  UNL1        0.0190
     17 C          59.0338   90.3287    5.1339 C.ar    1  UNL1        0.0160
     18 C          60.0695   89.4950    5.5812 C.ar    1  UNL1        0.0481
     19 C          61.2453   89.3965    4.8202 C.ar    1  UNL1        0.0160
     20 C          61.3822   90.1195    3.6319 C.ar    1  UNL1        0.0190
     21 N          61.2998   92.8388    0.2294 N.ar    1  UNL1       -0.2024
     22 N          59.9894   92.7639    0.0509 N.ar    1  UNL1       -0.1442
     23 C          59.4990   92.0712    1.1019 C.ar    1  UNL1        0.2073
     24 N          60.4792   91.7032    1.9577 N.ar    1  UNL1       -0.2398
     25 C          61.5915   92.1944    1.3765 C.ar    1  UNL1        0.3522
     26 O          62.7589   92.0401    1.8268 O.2     1  UNL1       -0.2444
     27 C          62.2141   93.4999   -0.7092 C.3     1  UNL1        0.1099
     28 C          63.5335   93.8477   -0.0064 C.3     1  UNL1        0.0265
     29 C          63.4413   91.4998   -1.7253 C.3     1  UNL1        0.0021
     30 C          62.4247   92.6177   -1.9575 C.3     1  UNL1        0.0245
     31 O          60.4905   83.8264   13.6335 O.3     1  UNL1       -0.4727
     32 C          59.6701   82.6896   13.8990 C.3     1  UNL1        0.2374
     33 C          59.0477   82.1629   12.5987 C.3     1  UNL1        0.1909
     34 C          58.5747   80.7352   12.7173 C.3     1  UNL1        0.1783
     35 O          59.5483   79.9724   12.0787 O.3     1  UNL1       -0.3271
     36 C          60.1235   80.8428   11.1244 C.3     1  UNL1        0.2232
     37 O          60.0014   82.1761   11.5774 O.3     1  UNL1       -0.3258
     38 C          59.4239   80.6834    9.7674 C.ar    1  UNL1        0.0404
     39 C          58.3151   79.8163    9.6508 C.ar    1  UNL1        0.0021
     40 C          57.6700   79.6353    8.4262 C.ar    1  UNL1        0.0113
     41 C          58.1281   80.2969    7.2880 C.ar    1  UNL1        0.0585
     42 CL         57.3164   80.0641    5.7505 Cl      1  UNL1       -0.0822
     43 C          59.2437   81.1309    7.3703 C.ar    1  UNL1        0.0226
     44 C          59.9025   81.3221    8.5913 C.ar    1  UNL1        0.0591
     45 CL         61.3415   82.3402    8.5731 Cl      1  UNL1       -0.0824
     46 C          61.6151   80.4732   10.9596 C.3     1  UNL1        0.1338
     47 N          62.4778   81.2978   11.8409 N.3     1  UNL1       -0.2659
     48 C          62.6236   80.6724   13.1755 C.3     1  UNL1        0.0898
     49 C          63.7810   81.2897   13.9885 C.3     1  UNL1        0.0897
     50 N          64.1298   82.6168   13.4557 N.3     1  UNL1       -0.2691
     51 C          65.1319   83.2704   14.3107 C.3     1  UNL1        0.0897
     52 C          64.6231   82.5191   12.0657 C.3     1  UNL1        0.0897
     53 C          63.8080   81.5106   11.2346 C.3     1  UNL1        0.0898
@<TRIPOS>BOND
     1    29    30    1
     2    30    27    1
     3    27    28    1
     4    27    21    1
     5    21    22   ar
     6    22    23   ar
     7    23    24   ar
     8    24    15    1
     9    15    16   ar
    10    16    17   ar
    11    17    18   ar
    12    18     7    1
    13     7     8    1
    14     8     9    1
    15     9    10    1
    16    10     1    1
    17     1     2   ar
    18     2     3   ar
    19     3     4   ar
    20     4    31    1
    21    31    32    1
    22    32    33    1
    23    33    34    1
    24    34    35    1
    25    35    36    1
    26    36    46    1
    27    46    47    1
    28    47    48    1
    29    48    49    1
    30    49    50    1
    31    50    51    1
    32    50    52    1
    33    52    53    1
    34    36    38    1
    35    38    39   ar
    36    39    40   ar
    37    40    41   ar
    38    41    42    1
    39    41    43   ar
    40    43    44   ar
    41    44    45    1
    42    36    37    1
    43     4     5   ar
    44     5     6   ar
    45    10    11    1
    46    11    12    1
    47    11    13    1
    48    18    19   ar
    49    19    20   ar
    50    24    25   ar
    51    25    26    2
    52    25    21   ar
    53    20    15   ar
    54    13     7    1
    55     6     1   ar
    56    37    33    1
    57    53    47    1
    58    44    38   ar
    59    12    14    1
