@<TRIPOS>MOLECULE
*****
 25 28 0 0 0
SMALL
GASTEIGER

@<TRIPOS>ATOM
      1 C         -24.2567  -13.2844  -15.3604 C.3     1  UNL1        0.1432
      2 O         -24.6076  -13.3218  -16.7235 O.3     1  UNL1       -0.3752
      3 C         -23.0672  -14.2526  -15.0935 C.3     1  UNL1        0.0557
      4 C         -22.1578  -13.5906  -14.0295 C.3     1  UNL1        0.0833
      5 CL        -20.4971  -13.3107  -14.6492 Cl      1  UNL1       -0.1149
      6 C         -22.9106  -12.3115  -13.6521 C.3     1  UNL1        0.0186
      7 C         -22.2240  -11.1014  -13.0064 C.3     1  UNL1        0.0057
      8 C         -21.2510  -11.4007  -11.8536 C.3     1  UNL1        0.0050
      9 C         -20.6623  -10.0867  -11.2579 C.3     1  UNL1        0.0261
     10 C         -21.3941   -8.7934  -11.6269 C.ar    1  UNL1       -0.0231
     11 C         -20.7636   -7.5671  -11.3673 C.ar    1  UNL1        0.0320
     12 C         -21.3607   -6.3639  -11.7508 C.ar    1  UNL1        0.1333
     13 O         -20.7119   -5.1600  -11.4855 O.3     1  UNL1       -0.5055
     14 C         -22.5976   -6.3775  -12.4042 C.ar    1  UNL1        0.0363
     15 C         -23.2486   -7.5864  -12.6600 C.ar    1  UNL1       -0.0015
     16 C         -22.6692   -8.8035  -12.2536 C.ar    1  UNL1       -0.0263
     17 C         -23.3193  -10.1558  -12.4412 C.3     1  UNL1        0.0221
     18 C         -24.7315  -10.2725  -13.1189 C.3     1  UNL1        0.0045
     19 C         -24.7538  -10.7731  -14.5803 C.3     1  UNL1        0.0036
     20 C         -23.7022  -11.8927  -14.9173 C.3     1  UNL1        0.0345
     21 C         -22.7959  -11.3274  -16.0643 C.3     1  UNL1        0.0034
     22 H         -25.3285  -12.6528  -16.8640 H       1  UNL1        0.2114
     23 H         -21.1162   -4.2701  -11.7528 H       1  UNL1        0.2922
     24 C         -26.3725  -14.0584  -13.8890 C.1     1  UNL1       -0.0119
     25 C         -25.4250  -13.7124  -14.5495 C.1     1  UNL1       -0.0525
@<TRIPOS>BOND
     1    24    25    3
     2     1    25    1
     3     1     2    1
     4     1     3    1
     5     3     4    1
     6     4     5    1
     7     4     6    1
     8     6     7    1
     9     7     8    1
    10     8     9    1
    11     9    10    1
    12    10    11   ar
    13    11    12   ar
    14    12    13    1
    15    12    14   ar
    16    14    15   ar
    17    15    16   ar
    18    16    17    1
    19    17    18    1
    20    18    19    1
    21    19    20    1
    22    20    21    1
    23    20     1    1
    24    20     6    1
    25    17     7    1
    26    16    10   ar
    27     2    22    1
    28    13    23    1
@<TRIPOS>MOLECULE
*****
 25 28 0 0 0
SMALL
GASTEIGER

@<TRIPOS>ATOM
      1 C         -23.4352  -11.5395  -16.2995 C.3     1  UNL1        0.1432
      2 O         -24.6216  -12.0548  -16.8557 O.3     1  UNL1       -0.3752
      3 C         -22.9838  -10.2779  -17.0921 C.3     1  UNL1        0.0557
      4 C         -22.3832   -9.2783  -16.0735 C.3     1  UNL1        0.0833
      5 CL        -23.2802   -7.7242  -16.0523 Cl      1  UNL1       -0.1149
      6 C         -22.4214  -10.0431  -14.7472 C.3     1  UNL1        0.0186
      7 C         -22.3816   -9.3445  -13.3822 C.3     1  UNL1        0.0057
      8 C         -21.3437   -8.2216  -13.2178 C.3     1  UNL1        0.0050
      9 C         -21.3758   -7.6316  -11.7759 C.3     1  UNL1        0.0261
     10 C         -22.1056   -8.4690  -10.7222 C.ar    1  UNL1       -0.0231
     11 C         -22.4178   -7.8750   -9.4899 C.ar    1  UNL1        0.0320
     12 C         -23.1447   -8.5762   -8.5251 C.ar    1  UNL1        0.1333
     13 O         -23.4457   -7.9621   -7.3113 O.3     1  UNL1       -0.5055
     14 C         -23.5713   -9.8824   -8.7874 C.ar    1  UNL1        0.0363
     15 C         -23.2594  -10.4972  -10.0021 C.ar    1  UNL1       -0.0015
     16 C         -22.5038   -9.8100  -10.9711 C.ar    1  UNL1       -0.0263
     17 C         -22.0753  -10.4081  -12.2922 C.3     1  UNL1        0.0221
     18 C         -22.4613  -11.8858  -12.6591 C.3     1  UNL1        0.0045
     19 C         -23.6064  -12.0640  -13.6808 C.3     1  UNL1        0.0036
     20 C         -23.6319  -11.0063  -14.8444 C.3     1  UNL1        0.0345
     21 C         -25.0183  -10.2801  -14.7611 C.3     1  UNL1        0.0034
     22 H         -24.9069  -12.8211  -16.2913 H       1  UNL1        0.2114
     23 H         -23.9735   -8.4417   -6.5914 H       1  UNL1        0.2922
     24 C         -21.5129  -13.4162  -16.4532 C.1     1  UNL1       -0.0119
     25 C         -22.3732  -12.5742  -16.3845 C.1     1  UNL1       -0.0525
@<TRIPOS>BOND
     1    24    25    3
     2     1    25    1
     3     1     2    1
     4     1     3    1
     5     3     4    1
     6     4     5    1
     7     4     6    1
     8     6     7    1
     9     7     8    1
    10     8     9    1
    11     9    10    1
    12    10    11   ar
    13    11    12   ar
    14    12    13    1
    15    12    14   ar
    16    14    15   ar
    17    15    16   ar
    18    16    17    1
    19    17    18    1
    20    18    19    1
    21    19    20    1
    22    20    21    1
    23    20     1    1
    24    20     6    1
    25    17     7    1
    26    16    10   ar
    27     2    22    1
    28    13    23    1
@<TRIPOS>MOLECULE
*****
 25 28 0 0 0
SMALL
GASTEIGER

@<TRIPOS>ATOM
      1 C         -23.9093  -12.3355  -16.2696 C.3     1  UNL1        0.1432
      2 O         -24.7126  -11.8128  -17.3010 O.3     1  UNL1       -0.3752
      3 C         -22.4080  -12.2476  -16.6722 C.3     1  UNL1        0.0557
      4 C         -21.6015  -11.9159  -15.3928 C.3     1  UNL1        0.0833
      5 CL        -20.7086  -10.3670  -15.5473 Cl      1  UNL1       -0.1149
      6 C         -22.6582  -11.9231  -14.2843 C.3     1  UNL1        0.0186
      7 C         -22.4620  -11.2058  -12.9427 C.3     1  UNL1        0.0057
      8 C         -21.0982  -11.3959  -12.2578 C.3     1  UNL1        0.0050
      9 C         -21.0489  -10.6572  -10.8865 C.3     1  UNL1        0.0261
     10 C         -22.3981  -10.2247  -10.3061 C.ar    1  UNL1       -0.0231
     11 C         -22.4093   -9.3177   -9.2356 C.ar    1  UNL1        0.0320
     12 C         -23.6162   -8.8398   -8.7196 C.ar    1  UNL1        0.1333
     13 O         -23.6000   -7.9363   -7.6593 O.3     1  UNL1       -0.5055
     14 C         -24.8278   -9.2639   -9.2755 C.ar    1  UNL1        0.0363
     15 C         -24.8395  -10.1768  -10.3325 C.ar    1  UNL1       -0.0015
     16 C         -23.6301  -10.6862  -10.8426 C.ar    1  UNL1       -0.0263
     17 C         -23.5431  -11.7131  -11.9491 C.3     1  UNL1        0.0221
     18 C         -24.8491  -12.2896  -12.6041 C.3     1  UNL1        0.0045
     19 C         -25.2113  -11.7503  -14.0059 C.3     1  UNL1        0.0036
     20 C         -23.9861  -11.4915  -14.9573 C.3     1  UNL1        0.0345
     21 C         -24.0286   -9.9726  -15.3414 C.3     1  UNL1        0.0034
     22 H         -25.6544  -11.8343  -16.9850 H       1  UNL1        0.2114
     23 H         -24.4572   -7.5683   -7.2636 H       1  UNL1        0.2922
     24 C         -24.5665  -14.9146  -15.8731 C.1     1  UNL1       -0.0119
     25 C         -24.2722  -13.7587  -16.0493 C.1     1  UNL1       -0.0525
@<TRIPOS>BOND
     1    24    25    3
     2     1    25    1
     3     1     2    1
     4     1     3    1
     5     3     4    1
     6     4     5    1
     7     4     6    1
     8     6     7    1
     9     7     8    1
    10     8     9    1
    11     9    10    1
    12    10    11   ar
    13    11    12   ar
    14    12    13    1
    15    12    14   ar
    16    14    15   ar
    17    15    16   ar
    18    16    17    1
    19    17    18    1
    20    18    19    1
    21    19    20    1
    22    20    21    1
    23    20     1    1
    24    20     6    1
    25    17     7    1
    26    16    10   ar
    27     2    22    1
    28    13    23    1
@<TRIPOS>MOLECULE
*****
 25 28 0 0 0
SMALL
GASTEIGER

@<TRIPOS>ATOM
      1 C         -21.8177   -6.8615  -11.6258 C.3     1  UNL1        0.1432
      2 O         -20.8384   -5.9313  -12.0233 O.3     1  UNL1       -0.3752
      3 C         -23.2371   -6.2943  -11.9216 C.3     1  UNL1        0.0557
      4 C         -24.1271   -7.4786  -12.3720 C.3     1  UNL1        0.0833
      5 CL        -24.7703   -7.2395  -14.0302 Cl      1  UNL1       -0.1149
      6 C         -23.2129   -8.6982  -12.2234 C.3     1  UNL1        0.0186
      7 C         -23.4552  -10.0159  -12.9700 C.3     1  UNL1        0.0057
      8 C         -24.9002  -10.5423  -12.9784 C.3     1  UNL1        0.0050
      9 C         -24.9985  -11.9062  -13.7258 C.3     1  UNL1        0.0261
     10 C         -23.6755  -12.6379  -13.9678 C.ar    1  UNL1       -0.0231
     11 C         -23.6568  -13.7113  -14.8712 C.ar    1  UNL1        0.0320
     12 C         -22.4601  -14.3634  -15.1778 C.ar    1  UNL1        0.1333
     13 O         -22.4678  -15.4236  -16.0815 O.3     1  UNL1       -0.5055
     14 C         -21.2656  -13.9426  -14.5837 C.ar    1  UNL1        0.0363
     15 C         -21.2642  -12.8852  -13.6713 C.ar    1  UNL1       -0.0015
     16 C         -22.4683  -12.2383  -13.3339 C.ar    1  UNL1       -0.0263
     17 C         -22.5745  -11.1195  -12.3221 C.3     1  UNL1        0.0221
     18 C         -21.2975  -10.6094  -11.5631 C.3     1  UNL1        0.0045
     19 C         -20.7083   -9.2620  -12.0367 C.3     1  UNL1        0.0036
     20 C         -21.7705   -8.1820  -12.4592 C.3     1  UNL1        0.0345
     21 C         -21.4720   -7.8191  -13.9545 C.3     1  UNL1        0.0034
     22 H         -19.9504   -6.3504  -11.8715 H       1  UNL1        0.2114
     23 H         -21.6171  -15.9161  -16.3278 H       1  UNL1        0.2922
     24 C         -21.5778   -7.3051   -8.9826 C.1     1  UNL1       -0.0119
     25 C         -21.6856   -7.1078  -10.1672 C.1     1  UNL1       -0.0525
@<TRIPOS>BOND
     1    24    25    3
     2     1    25    1
     3     1     2    1
     4     1     3    1
     5     3     4    1
     6     4     5    1
     7     4     6    1
     8     6     7    1
     9     7     8    1
    10     8     9    1
    11     9    10    1
    12    10    11   ar
    13    11    12   ar
    14    12    13    1
    15    12    14   ar
    16    14    15   ar
    17    15    16   ar
    18    16    17    1
    19    17    18    1
    20    18    19    1
    21    19    20    1
    22    20    21    1
    23    20     1    1
    24    20     6    1
    25    17     7    1
    26    16    10   ar
    27     2    22    1
    28    13    23    1
@<TRIPOS>MOLECULE
*****
 25 28 0 0 0
SMALL
GASTEIGER

@<TRIPOS>ATOM
      1 C         -22.0704   -8.3134  -12.4475 C.3     1  UNL1        0.1432
      2 O         -21.6644   -7.1663  -13.1558 O.3     1  UNL1       -0.3752
      3 C         -23.2845   -7.9700  -11.5356 C.3     1  UNL1        0.0557
      4 C         -24.2268   -9.1986  -11.5325 C.3     1  UNL1        0.0833
      5 CL        -25.8561   -8.7940  -12.1665 Cl      1  UNL1       -0.1149
      6 C         -23.4707  -10.2393  -12.3636 C.3     1  UNL1        0.0186
      7 C         -24.1649  -11.4280  -13.0402 C.3     1  UNL1        0.0057
      8 C         -25.1889  -12.1978  -12.1893 C.3     1  UNL1        0.0050
      9 C         -25.7815  -13.4049  -12.9765 C.3     1  UNL1        0.0261
     10 C         -25.0156  -13.8311  -14.2319 C.ar    1  UNL1       -0.0231
     11 C         -25.6375  -14.7086  -15.1330 C.ar    1  UNL1        0.0320
     12 C         -25.0068  -15.0694  -16.3260 C.ar    1  UNL1        0.1333
     13 O         -25.6476  -15.9389  -17.2059 O.3     1  UNL1       -0.5055
     14 C         -23.7445  -14.5496  -16.6313 C.ar    1  UNL1        0.0363
     15 C         -23.1020  -13.6854  -15.7419 C.ar    1  UNL1       -0.0015
     16 C         -23.7161  -13.3365  -14.5240 C.ar    1  UNL1       -0.0263
     17 C         -23.0794  -12.4498  -13.4776 C.3     1  UNL1        0.0221
     18 C         -21.6425  -11.8573  -13.7041 C.3     1  UNL1        0.0045
     19 C         -21.5677  -10.3638  -14.0923 C.3     1  UNL1        0.0036
     20 C         -22.6215   -9.4372  -13.3824 C.3     1  UNL1        0.0345
     21 C         -23.4711   -8.7706  -14.5184 C.3     1  UNL1        0.0034
     22 H         -20.9281   -7.4376  -13.7653 H       1  UNL1        0.2114
     23 H         -25.2191  -16.2184  -18.0806 H       1  UNL1        0.2922
     24 C         -20.0263   -9.1633  -10.9177 C.1     1  UNL1       -0.0119
     25 C         -20.9432   -8.7828  -11.6021 C.1     1  UNL1       -0.0525
@<TRIPOS>BOND
     1    24    25    3
     2     1    25    1
     3     1     2    1
     4     1     3    1
     5     3     4    1
     6     4     5    1
     7     4     6    1
     8     6     7    1
     9     7     8    1
    10     8     9    1
    11     9    10    1
    12    10    11   ar
    13    11    12   ar
    14    12    13    1
    15    12    14   ar
    16    14    15   ar
    17    15    16   ar
    18    16    17    1
    19    17    18    1
    20    18    19    1
    21    19    20    1
    22    20    21    1
    23    20     1    1
    24    20     6    1
    25    17     7    1
    26    16    10   ar
    27     2    22    1
    28    13    23    1
@<TRIPOS>MOLECULE
*****
 25 28 0 0 0
SMALL
GASTEIGER

@<TRIPOS>ATOM
      1 C         -22.2320   -7.7782   -9.1549 C.3     1  UNL1        0.1432
      2 O         -22.6516   -6.5533   -8.6017 O.3     1  UNL1       -0.3752
      3 C         -23.0353   -8.9494   -8.5173 C.3     1  UNL1        0.0557
      4 C         -23.2874   -9.9995   -9.6269 C.3     1  UNL1        0.0833
      5 CL        -25.0392  -10.2662   -9.9103 Cl      1  UNL1       -0.1149
      6 C         -22.5343   -9.4386  -10.8367 C.3     1  UNL1        0.0186
      7 C         -22.8543   -9.8488  -12.2796 C.3     1  UNL1        0.0057
      8 C         -23.0505  -11.3523  -12.5365 C.3     1  UNL1        0.0050
      9 C         -23.3207  -11.6355  -14.0448 C.3     1  UNL1        0.0261
     10 C         -22.9803  -10.5004  -15.0142 C.ar    1  UNL1       -0.0231
     11 C         -23.4575  -10.5760  -16.3316 C.ar    1  UNL1        0.0320
     12 C         -23.2328   -9.5316  -17.2315 C.ar    1  UNL1        0.1333
     13 O         -23.7210   -9.6292  -18.5326 O.3     1  UNL1       -0.5055
     14 C         -22.5291   -8.3954  -16.8183 C.ar    1  UNL1        0.0363
     15 C         -22.0336   -8.3058  -15.5155 C.ar    1  UNL1       -0.0015
     16 C         -22.2303   -9.3641  -14.6079 C.ar    1  UNL1       -0.0263
     17 C         -21.6902   -9.3805  -13.1956 C.3     1  UNL1        0.0221
     18 C         -20.8441   -8.1734  -12.6533 C.3     1  UNL1        0.0045
     19 C         -21.5636   -7.2099  -11.6832 C.3     1  UNL1        0.0036
     20 C         -22.5589   -7.8969  -10.6779 C.3     1  UNL1        0.0345
     21 C         -23.9686   -7.2631  -10.9376 C.3     1  UNL1        0.0034
     22 H         -22.1589   -5.8298   -9.0718 H       1  UNL1        0.2114
     23 H         -23.5778   -8.8885  -19.2092 H       1  UNL1        0.2922
     24 C         -19.6139   -8.1206   -8.6362 C.1     1  UNL1       -0.0119
     25 C         -20.7867   -7.9665   -8.8699 C.1     1  UNL1       -0.0525
@<TRIPOS>BOND
     1    24    25    3
     2     1    25    1
     3     1     2    1
     4     1     3    1
     5     3     4    1
     6     4     5    1
     7     4     6    1
     8     6     7    1
     9     7     8    1
    10     8     9    1
    11     9    10    1
    12    10    11   ar
    13    11    12   ar
    14    12    13    1
    15    12    14   ar
    16    14    15   ar
    17    15    16   ar
    18    16    17    1
    19    17    18    1
    20    18    19    1
    21    19    20    1
    22    20    21    1
    23    20     1    1
    24    20     6    1
    25    17     7    1
    26    16    10   ar
    27     2    22    1
    28    13    23    1
@<TRIPOS>MOLECULE
*****
 25 28 0 0 0
SMALL
GASTEIGER

@<TRIPOS>ATOM
      1 C         -22.8641  -12.6489  -16.3476 C.3     1  UNL1        0.1432
      2 O         -21.8823  -13.6549  -16.4280 O.3     1  UNL1       -0.3752
      3 C         -24.2106  -13.2613  -15.8624 C.3     1  UNL1        0.0557
      4 C         -24.8932  -12.2173  -14.9451 C.3     1  UNL1        0.0833
      5 CL        -25.1501  -12.8507  -13.2858 Cl      1  UNL1       -0.1149
      6 C         -23.9604  -11.0048  -15.0164 C.3     1  UNL1        0.0186
      7 C         -23.9371   -9.9084  -13.9440 C.3     1  UNL1        0.0057
      8 C         -25.3035   -9.3901  -13.4651 C.3     1  UNL1        0.0050
      9 C         -25.1372   -8.2501  -12.4157 C.3     1  UNL1        0.0261
     10 C         -23.7492   -7.6092  -12.3325 C.ar    1  UNL1       -0.0231
     11 C         -23.4522   -6.7899  -11.2328 C.ar    1  UNL1        0.0320
     12 C         -22.1771   -6.2410  -11.0773 C.ar    1  UNL1        0.1333
     13 O         -21.9066   -5.4345   -9.9742 O.3     1  UNL1       -0.5055
     14 C         -21.1823   -6.5118  -12.0228 C.ar    1  UNL1        0.0363
     15 C         -21.4607   -7.3136  -13.1320 C.ar    1  UNL1       -0.0015
     16 C         -22.7499   -7.8497  -13.3135 C.ar    1  UNL1       -0.0263
     17 C         -23.1597   -8.6859  -14.5049 C.3     1  UNL1        0.0221
     18 C         -22.1287   -9.0035  -15.6465 C.3     1  UNL1        0.0045
     19 C         -21.5353  -10.4299  -15.6600 C.3     1  UNL1        0.0036
     20 C         -22.5394  -11.5731  -15.2624 C.3     1  UNL1        0.0345
     21 C         -21.9279  -12.2932  -14.0117 C.3     1  UNL1        0.0034
     22 H         -21.0280  -13.2176  -16.6850 H       1  UNL1        0.2114
     23 H         -20.9917   -5.0232   -9.8302 H       1  UNL1        0.2922
     24 C         -23.2124  -11.5730  -18.7893 C.1     1  UNL1       -0.0119
     25 C         -23.0567  -12.0538  -17.6946 C.1     1  UNL1       -0.0525
@<TRIPOS>BOND
     1    24    25    3
     2     1    25    1
     3     1     2    1
     4     1     3    1
     5     3     4    1
     6     4     5    1
     7     4     6    1
     8     6     7    1
     9     7     8    1
    10     8     9    1
    11     9    10    1
    12    10    11   ar
    13    11    12   ar
    14    12    13    1
    15    12    14   ar
    16    14    15   ar
    17    15    16   ar
    18    16    17    1
    19    17    18    1
    20    18    19    1
    21    19    20    1
    22    20    21    1
    23    20     1    1
    24    20     6    1
    25    17     7    1
    26    16    10   ar
    27     2    22    1
    28    13    23    1
@<TRIPOS>MOLECULE
*****
 25 28 0 0 0
SMALL
GASTEIGER

@<TRIPOS>ATOM
      1 C         -23.8866   -7.3784  -11.5760 C.3     1  UNL1        0.1432
      2 O         -24.0398   -7.2993  -10.1786 O.3     1  UNL1       -0.3752
      3 C         -22.5378   -6.7256  -11.9981 C.3     1  UNL1        0.0557
      4 C         -21.9654   -7.5570  -13.1722 C.3     1  UNL1        0.0833
      5 CL        -20.3614   -8.2578  -12.7767 Cl      1  UNL1       -0.1149
      6 C         -23.0547   -8.5980  -13.4461 C.3     1  UNL1        0.0186
      7 C         -22.7791   -9.9188  -14.1758 C.3     1  UNL1        0.0057
      8 C         -21.9179   -9.8319  -15.4470 C.3     1  UNL1        0.0050
      9 C         -21.7559  -11.2308  -16.1142 C.3     1  UNL1        0.0261
     10 C         -22.7330  -12.3147  -15.6509 C.ar    1  UNL1       -0.0231
     11 C         -22.4661  -13.6497  -15.9905 C.ar    1  UNL1        0.0320
     12 C         -23.2897  -14.6799  -15.5307 C.ar    1  UNL1        0.1333
     13 O         -23.0002  -15.9975  -15.8784 O.3     1  UNL1       -0.5055
     14 C         -24.3902  -14.3826  -14.7200 C.ar    1  UNL1        0.0363
     15 C         -24.6817  -13.0593  -14.3815 C.ar    1  UNL1       -0.0015
     16 C         -23.8746  -12.0104  -14.8617 C.ar    1  UNL1       -0.0263
     17 C         -24.1383  -10.5462  -14.5909 C.3     1  UNL1        0.0221
     18 C         -25.3784  -10.1065  -13.7331 C.3     1  UNL1        0.0045
     19 C         -25.0884   -9.6630  -12.2819 C.3     1  UNL1        0.0036
     20 C         -23.7570   -8.8489  -12.0873 C.3     1  UNL1        0.0345
     21 C         -22.8810   -9.6569  -11.0694 C.3     1  UNL1        0.0034
     22 H         -24.8804   -7.7739   -9.9437 H       1  UNL1        0.2114
     23 H         -23.5757  -16.7683  -15.5594 H       1  UNL1        0.2922
     24 C         -25.9145   -6.0572  -12.7516 C.1     1  UNL1       -0.0119
     25 C         -25.0053   -6.6496  -12.2262 C.1     1  UNL1       -0.0525
@<TRIPOS>BOND
     1    24    25    3
     2     1    25    1
     3     1     2    1
     4     1     3    1
     5     3     4    1
     6     4     5    1
     7     4     6    1
     8     6     7    1
     9     7     8    1
    10     8     9    1
    11     9    10    1
    12    10    11   ar
    13    11    12   ar
    14    12    13    1
    15    12    14   ar
    16    14    15   ar
    17    15    16   ar
    18    16    17    1
    19    17    18    1
    20    18    19    1
    21    19    20    1
    22    20    21    1
    23    20     1    1
    24    20     6    1
    25    17     7    1
    26    16    10   ar
    27     2    22    1
    28    13    23    1
@<TRIPOS>MOLECULE
*****
 25 28 0 0 0
SMALL
GASTEIGER

@<TRIPOS>ATOM
      1 C         -23.7637   -8.4989  -14.3212 C.3     1  UNL1        0.1432
      2 O         -23.6997   -7.2389  -14.9462 O.3     1  UNL1       -0.3752
      3 C         -23.7067   -9.6253  -15.3943 C.3     1  UNL1        0.0557
      4 C         -22.8860  -10.7952  -14.7982 C.3     1  UNL1        0.0833
      5 CL        -21.4256  -11.1552  -15.7769 Cl      1  UNL1       -0.1149
      6 C         -22.5857  -10.3375  -13.3679 C.3     1  UNL1        0.0186
      7 C         -21.4306  -10.9093  -12.5364 C.3     1  UNL1        0.0057
      8 C         -21.2622  -12.4378  -12.5583 C.3     1  UNL1        0.0050
      9 C         -20.0881  -12.8884  -11.6382 C.3     1  UNL1        0.0261
     10 C         -19.5852  -11.8501  -10.6316 C.ar    1  UNL1       -0.0231
     11 C         -18.3641  -12.0818   -9.9804 C.ar    1  UNL1        0.0320
     12 C         -17.8305  -11.1306   -9.1077 C.ar    1  UNL1        0.1333
     13 O         -16.6142  -11.3831   -8.4772 O.3     1  UNL1       -0.5055
     14 C         -18.5149   -9.9319   -8.8811 C.ar    1  UNL1        0.0363
     15 C         -19.7385   -9.6870   -9.5085 C.ar    1  UNL1       -0.0015
     16 C         -20.2994  -10.6502  -10.3688 C.ar    1  UNL1       -0.0263
     17 C         -21.6392  -10.4974  -11.0530 C.3     1  UNL1        0.0221
     18 C         -22.5079   -9.2093  -10.8226 C.3     1  UNL1        0.0045
     19 C         -22.5243   -8.1762  -11.9713 C.3     1  UNL1        0.0036
     20 C         -22.5216   -8.7897  -13.4193 C.3     1  UNL1        0.0345
     21 C         -21.2421   -8.2395  -14.1381 C.3     1  UNL1        0.0034
     22 H         -23.6817   -6.5512  -14.2293 H       1  UNL1        0.2114
     23 H         -16.1983  -10.7131   -7.8407 H       1  UNL1        0.2922
     24 C         -26.0814   -8.6837  -12.9668 C.1     1  UNL1       -0.0119
     25 C         -25.0427   -8.6023  -13.5734 C.1     1  UNL1       -0.0525
@<TRIPOS>BOND
     1    24    25    3
     2     1    25    1
     3     1     2    1
     4     1     3    1
     5     3     4    1
     6     4     5    1
     7     4     6    1
     8     6     7    1
     9     7     8    1
    10     8     9    1
    11     9    10    1
    12    10    11   ar
    13    11    12   ar
    14    12    13    1
    15    12    14   ar
    16    14    15   ar
    17    15    16   ar
    18    16    17    1
    19    17    18    1
    20    18    19    1
    21    19    20    1
    22    20    21    1
    23    20     1    1
    24    20     6    1
    25    17     7    1
    26    16    10   ar
    27     2    22    1
    28    13    23    1
