@<TRIPOS>MOLECULE
*****
 31 33 0 0 0
SMALL
GASTEIGER

@<TRIPOS>ATOM
      1 C         -24.2433  -11.0872  -13.7647 C.2     1  UNL1       -0.0222
      2 C         -22.9273  -11.4304  -13.8532 C.2     1  UNL1       -0.0040
      3 C         -22.4296  -12.3728  -14.8762 C.ar    1  UNL1       -0.0003
      4 C         -22.0806  -11.9148  -16.1563 C.ar    1  UNL1       -0.0000
      5 C         -21.6234  -12.8153  -17.1233 C.ar    1  UNL1       -0.0000
      6 C         -21.5219  -14.1764  -16.8205 C.ar    1  UNL1       -0.0000
      7 C         -21.8829  -14.6396  -15.5517 C.ar    1  UNL1       -0.0000
      8 C         -22.3405  -13.7419  -14.5822 C.ar    1  UNL1       -0.0000
      9 C         -21.9147  -10.8561  -12.9343 C.ar    1  UNL1       -0.0001
     10 C         -21.2922  -11.6726  -11.9796 C.ar    1  UNL1        0.0031
     11 C         -20.4128  -11.1202  -11.0446 C.ar    1  UNL1        0.0369
     12 C         -20.1336   -9.7395  -11.0609 C.ar    1  UNL1        0.1386
     13 C         -20.7197   -8.9374  -12.0467 C.ar    1  UNL1        0.0369
     14 C         -21.6057   -9.4876  -12.9760 C.ar    1  UNL1        0.0031
     15 O         -19.2880   -9.1256  -10.1226 O.3     1  UNL1       -0.4740
     16 C         -19.5768   -8.9663   -8.7334 C.3     1  UNL1        0.2226
     17 C         -19.9809   -7.5173   -8.4336 C.3     1  UNL1        0.1201
     18 N         -21.4522   -7.3751   -8.4042 N.3     1  UNL1       -0.2672
     19 C         -21.9109   -6.6305   -9.5884 C.3     1  UNL1        0.0898
     20 C         -22.1085   -8.6946   -8.3754 C.3     1  UNL1        0.0898
     21 C         -24.7313  -10.2447  -12.6401 C.ar    1  UNL1       -0.0043
     22 C         -24.5460  -10.6552  -11.3118 C.ar    1  UNL1       -0.0003
     23 C         -25.0697   -9.8972  -10.2626 C.ar    1  UNL1       -0.0003
     24 C         -25.7892   -8.7298  -10.5285 C.ar    1  UNL1       -0.0043
     25 C         -25.9727   -8.2923  -11.8533 C.ar    1  UNL1       -0.0225
     26 C         -25.4231   -9.0492  -12.9012 C.ar    1  UNL1       -0.0046
     27 C         -26.8076   -7.0654  -12.1681 C.3     1  UNL1        0.0224
     28 C         -27.6884   -7.2847  -13.4039 C.3     1  UNL1        0.0047
     29 C         -25.9134   -5.8320  -12.3357 C.3     1  UNL1        0.0047
     30 C         -25.8838  -12.9060  -14.3113 C.3     1  UNL1        0.0050
     31 C         -25.2778  -11.5794  -14.7605 C.3     1  UNL1        0.0264
@<TRIPOS>BOND
     1    30    31    1
     2    31     1    1
     3     1     2    2
     4     2     3    1
     5     3     4   ar
     6     4     5   ar
     7     5     6   ar
     8     6     7   ar
     9     7     8   ar
    10     2     9    1
    11     9    10   ar
    12    10    11   ar
    13    11    12   ar
    14    12    15    1
    15    15    16    1
    16    16    17    1
    17    17    18    1
    18    18    19    1
    19    18    20    1
    20    12    13   ar
    21    13    14   ar
    22     1    21    1
    23    21    22   ar
    24    22    23   ar
    25    23    24   ar
    26    24    25   ar
    27    25    27    1
    28    27    28    1
    29    27    29    1
    30    25    26   ar
    31     8     3   ar
    32    14     9   ar
    33    26    21   ar
@<TRIPOS>MOLECULE
*****
 31 33 0 0 0
SMALL
GASTEIGER

@<TRIPOS>ATOM
      1 C         -22.0958   -8.8280  -12.9131 C.2     1  UNL1       -0.0222
      2 C         -21.5692   -9.6736  -11.9830 C.2     1  UNL1       -0.0040
      3 C         -21.2010  -11.0667  -12.3087 C.ar    1  UNL1       -0.0003
      4 C         -20.4054  -11.8171  -11.4287 C.ar    1  UNL1       -0.0000
      5 C         -20.0498  -13.1303  -11.7508 C.ar    1  UNL1       -0.0000
      6 C         -20.4778  -13.6966  -12.9552 C.ar    1  UNL1       -0.0000
      7 C         -21.2576  -12.9481  -13.8420 C.ar    1  UNL1       -0.0000
      8 C         -21.6152  -11.6344  -13.5231 C.ar    1  UNL1       -0.0000
      9 C         -21.3168   -9.2310  -10.5902 C.ar    1  UNL1       -0.0001
     10 C         -20.0290   -8.8332  -10.2043 C.ar    1  UNL1        0.0031
     11 C         -19.7598   -8.5115   -8.8713 C.ar    1  UNL1        0.0369
     12 C         -20.7834   -8.5713   -7.9052 C.ar    1  UNL1        0.1386
     13 C         -22.0780   -8.9215   -8.3050 C.ar    1  UNL1        0.0369
     14 C         -22.3456   -9.2518   -9.6357 C.ar    1  UNL1        0.0031
     15 O         -20.5607   -8.2953   -6.5463 O.3     1  UNL1       -0.4740
     16 C         -19.2819   -8.2567   -5.9123 C.3     1  UNL1        0.2226
     17 C         -19.3421   -8.9470   -4.5438 C.3     1  UNL1        0.1201
     18 N         -20.4167   -8.3697   -3.7084 N.3     1  UNL1       -0.2672
     19 C         -21.2693   -9.4427   -3.1708 C.3     1  UNL1        0.0898
     20 C         -19.8539   -7.5902   -2.5911 C.3     1  UNL1        0.0898
     21 C         -22.5818   -7.4784  -12.5193 C.ar    1  UNL1       -0.0043
     22 C         -21.6875   -6.5164  -12.0271 C.ar    1  UNL1       -0.0003
     23 C         -22.1592   -5.2768  -11.5907 C.ar    1  UNL1       -0.0003
     24 C         -23.5254   -4.9891  -11.6328 C.ar    1  UNL1       -0.0043
     25 C         -24.4372   -5.9345  -12.1378 C.ar    1  UNL1       -0.0225
     26 C         -23.9511   -7.1703  -12.5954 C.ar    1  UNL1       -0.0046
     27 C         -25.9308   -5.6692  -12.1297 C.3     1  UNL1        0.0224
     28 C         -26.7145   -6.8730  -11.5930 C.3     1  UNL1        0.0047
     29 C         -26.4160   -5.2696  -13.5275 C.3     1  UNL1        0.0047
     30 C         -21.4673   -8.3016  -15.2850 C.3     1  UNL1        0.0050
     31 C         -22.2628   -9.2266  -14.3682 C.3     1  UNL1        0.0264
@<TRIPOS>BOND
     1    30    31    1
     2    31     1    1
     3     1     2    2
     4     2     3    1
     5     3     4   ar
     6     4     5   ar
     7     5     6   ar
     8     6     7   ar
     9     7     8   ar
    10     2     9    1
    11     9    10   ar
    12    10    11   ar
    13    11    12   ar
    14    12    15    1
    15    15    16    1
    16    16    17    1
    17    17    18    1
    18    18    19    1
    19    18    20    1
    20    12    13   ar
    21    13    14   ar
    22     1    21    1
    23    21    22   ar
    24    22    23   ar
    25    23    24   ar
    26    24    25   ar
    27    25    27    1
    28    27    28    1
    29    27    29    1
    30    25    26   ar
    31     8     3   ar
    32    14     9   ar
    33    26    21   ar
@<TRIPOS>MOLECULE
*****
 31 33 0 0 0
SMALL
GASTEIGER

@<TRIPOS>ATOM
      1 C         -21.7515   -7.5132  -11.6799 C.2     1  UNL1       -0.0222
      2 C         -21.6393   -8.7200  -11.0565 C.2     1  UNL1       -0.0040
      3 C         -20.7200   -8.9331   -9.9198 C.ar    1  UNL1       -0.0003
      4 C         -20.9937   -8.3635   -8.6665 C.ar    1  UNL1       -0.0000
      5 C         -20.1115   -8.5585   -7.5994 C.ar    1  UNL1       -0.0000
      6 C         -18.9490   -9.3136   -7.7807 C.ar    1  UNL1       -0.0000
      7 C         -18.6644   -9.8702   -9.0312 C.ar    1  UNL1       -0.0000
      8 C         -19.5443   -9.6773  -10.1006 C.ar    1  UNL1       -0.0000
      9 C         -22.4548   -9.8857  -11.4754 C.ar    1  UNL1       -0.0001
     10 C         -21.9503  -10.7900  -12.4205 C.ar    1  UNL1        0.0031
     11 C         -22.7497  -11.8331  -12.8957 C.ar    1  UNL1        0.0369
     12 C         -24.0658  -11.9934  -12.4194 C.ar    1  UNL1        0.1386
     13 C         -24.5473  -11.1175  -11.4399 C.ar    1  UNL1        0.0369
     14 C         -23.7518  -10.0693  -10.9712 C.ar    1  UNL1        0.0031
     15 O         -24.9249  -13.0001  -12.8892 O.3     1  UNL1       -0.4740
     16 C         -25.5469  -13.0188  -14.1744 C.3     1  UNL1        0.2226
     17 C         -25.4475  -14.4173  -14.7966 C.3     1  UNL1        0.1201
     18 N         -24.4059  -14.4555  -15.8452 N.3     1  UNL1       -0.2672
     19 C         -24.1057  -13.0907  -16.3081 C.3     1  UNL1        0.0898
     20 C         -23.1706  -15.0795  -15.3379 C.3     1  UNL1        0.0898
     21 C         -22.5827   -7.3692  -12.9051 C.ar    1  UNL1       -0.0043
     22 C         -23.9178   -6.9492  -12.8132 C.ar    1  UNL1       -0.0003
     23 C         -24.7147   -6.8857  -13.9579 C.ar    1  UNL1       -0.0003
     24 C         -24.1910   -7.2481  -15.2011 C.ar    1  UNL1       -0.0043
     25 C         -22.8495   -7.6569  -15.3171 C.ar    1  UNL1       -0.0225
     26 C         -22.0489   -7.6963  -14.1636 C.ar    1  UNL1       -0.0046
     27 C         -22.2800   -8.1192  -16.6450 C.3     1  UNL1        0.0224
     28 C         -22.8890   -9.4559  -17.0851 C.3     1  UNL1        0.0047
     29 C         -20.7510   -8.2014  -16.5778 C.3     1  UNL1        0.0047
     30 C         -21.9577   -5.2884  -10.5373 C.3     1  UNL1        0.0050
     31 C         -21.0065   -6.2809  -11.1999 C.3     1  UNL1        0.0264
@<TRIPOS>BOND
     1    30    31    1
     2    31     1    1
     3     1     2    2
     4     2     3    1
     5     3     4   ar
     6     4     5   ar
     7     5     6   ar
     8     6     7   ar
     9     7     8   ar
    10     2     9    1
    11     9    10   ar
    12    10    11   ar
    13    11    12   ar
    14    12    15    1
    15    15    16    1
    16    16    17    1
    17    17    18    1
    18    18    19    1
    19    18    20    1
    20    12    13   ar
    21    13    14   ar
    22     1    21    1
    23    21    22   ar
    24    22    23   ar
    25    23    24   ar
    26    24    25   ar
    27    25    27    1
    28    27    28    1
    29    27    29    1
    30    25    26   ar
    31     8     3   ar
    32    14     9   ar
    33    26    21   ar
@<TRIPOS>MOLECULE
*****
 31 33 0 0 0
SMALL
GASTEIGER

@<TRIPOS>ATOM
      1 C         -22.2401   -8.8432  -13.2742 C.2     1  UNL1       -0.0222
      2 C         -21.7149   -9.7819  -12.4371 C.2     1  UNL1       -0.0040
      3 C         -21.4001  -11.1513  -12.8932 C.ar    1  UNL1       -0.0003
      4 C         -20.7791  -12.0649  -12.0271 C.ar    1  UNL1       -0.0000
      5 C         -20.4719  -13.3547  -12.4708 C.ar    1  UNL1       -0.0000
      6 C         -20.7738  -13.7349  -13.7818 C.ar    1  UNL1       -0.0000
      7 C         -21.3784  -12.8236  -14.6528 C.ar    1  UNL1       -0.0000
      8 C         -21.6871  -11.5329  -14.2125 C.ar    1  UNL1       -0.0000
      9 C         -21.4100   -9.4702  -11.0195 C.ar    1  UNL1       -0.0001
     10 C         -22.4427   -9.4376  -10.0719 C.ar    1  UNL1        0.0031
     11 C         -22.1806   -9.0466   -8.7561 C.ar    1  UNL1        0.0369
     12 C         -20.8734   -8.6942   -8.3665 C.ar    1  UNL1        0.1386
     13 C         -19.8377   -8.7759   -9.3040 C.ar    1  UNL1        0.0369
     14 C         -20.1007   -9.1580  -10.6217 C.ar    1  UNL1        0.0031
     15 O         -20.5604   -8.2584   -7.0686 O.3     1  UNL1       -0.4740
     16 C         -19.2400   -8.0938   -6.5509 C.3     1  UNL1        0.2226
     17 C         -19.2453   -8.2186   -5.0221 C.3     1  UNL1        0.1201
     18 N         -17.9036   -8.5809   -4.5175 N.3     1  UNL1       -0.2672
     19 C         -17.4934   -9.8841   -5.0657 C.3     1  UNL1        0.0898
     20 C         -16.9073   -7.5610   -4.8912 C.3     1  UNL1        0.0898
     21 C         -22.6720   -7.5196  -12.7504 C.ar    1  UNL1       -0.0043
     22 C         -21.7362   -6.6356  -12.1935 C.ar    1  UNL1       -0.0003
     23 C         -22.1569   -5.4259  -11.6376 C.ar    1  UNL1       -0.0003
     24 C         -23.5130   -5.0912  -11.6241 C.ar    1  UNL1       -0.0043
     25 C         -24.4660   -5.9571  -12.1919 C.ar    1  UNL1       -0.0225
     26 C         -24.0311   -7.1616  -12.7690 C.ar    1  UNL1       -0.0046
     27 C         -25.9492   -5.6452  -12.1277 C.3     1  UNL1        0.0224
     28 C         -26.7413   -6.7985  -11.5004 C.3     1  UNL1        0.0047
     29 C         -26.4880   -5.2940  -13.5189 C.3     1  UNL1        0.0047
     30 C         -21.5745   -8.2070  -15.6087 C.3     1  UNL1        0.0050
     31 C         -22.4599   -9.1081  -14.7525 C.3     1  UNL1        0.0264
@<TRIPOS>BOND
     1    30    31    1
     2    31     1    1
     3     1     2    2
     4     2     3    1
     5     3     4   ar
     6     4     5   ar
     7     5     6   ar
     8     6     7   ar
     9     7     8   ar
    10     2     9    1
    11     9    10   ar
    12    10    11   ar
    13    11    12   ar
    14    12    15    1
    15    15    16    1
    16    16    17    1
    17    17    18    1
    18    18    19    1
    19    18    20    1
    20    12    13   ar
    21    13    14   ar
    22     1    21    1
    23    21    22   ar
    24    22    23   ar
    25    23    24   ar
    26    24    25   ar
    27    25    27    1
    28    27    28    1
    29    27    29    1
    30    25    26   ar
    31     8     3   ar
    32    14     9   ar
    33    26    21   ar
@<TRIPOS>MOLECULE
*****
 31 33 0 0 0
SMALL
GASTEIGER

@<TRIPOS>ATOM
      1 C         -24.3336  -10.8592  -13.9180 C.2     1  UNL1       -0.0222
      2 C         -23.0199  -11.2219  -13.9035 C.2     1  UNL1       -0.0040
      3 C         -22.4780  -12.2430  -14.8234 C.ar    1  UNL1       -0.0003
      4 C         -22.3209  -13.5718  -14.3990 C.ar    1  UNL1       -0.0000
      5 C         -21.7944  -14.5293  -15.2713 C.ar    1  UNL1       -0.0000
      6 C         -21.4137  -14.1635  -16.5658 C.ar    1  UNL1       -0.0000
      7 C         -21.5539  -12.8381  -16.9880 C.ar    1  UNL1       -0.0000
      8 C         -22.0802  -11.8778  -16.1184 C.ar    1  UNL1       -0.0000
      9 C         -22.0537  -10.5916  -12.9715 C.ar    1  UNL1       -0.0001
     10 C         -21.4396  -11.3611  -11.9733 C.ar    1  UNL1        0.0031
     11 C         -20.6064  -10.7561  -11.0286 C.ar    1  UNL1        0.0369
     12 C         -20.3653   -9.3690  -11.0786 C.ar    1  UNL1        0.1386
     13 C         -20.9415   -8.6138  -12.1063 C.ar    1  UNL1        0.0369
     14 C         -21.7817   -9.2166  -13.0455 C.ar    1  UNL1        0.0031
     15 O         -19.5676   -8.7034  -10.1336 O.3     1  UNL1       -0.4740
     16 C         -19.2129   -9.2147   -8.8485 C.3     1  UNL1        0.2226
     17 C         -19.6877   -8.2622   -7.7439 C.3     1  UNL1        0.1201
     18 N         -19.2385   -8.7293   -6.4151 N.3     1  UNL1       -0.2672
     19 C         -18.2433   -9.8034   -6.5678 C.3     1  UNL1        0.0898
     20 C         -18.6457   -7.6239   -5.6409 C.3     1  UNL1        0.0898
     21 C         -24.8732   -9.9302  -12.8891 C.ar    1  UNL1       -0.0043
     22 C         -25.5030   -8.7361  -13.2696 C.ar    1  UNL1       -0.0003
     23 C         -25.9425   -7.8335  -12.2993 C.ar    1  UNL1       -0.0003
     24 C         -25.7504   -8.1088  -10.9434 C.ar    1  UNL1       -0.0043
     25 C         -25.1350   -9.3084  -10.5404 C.ar    1  UNL1       -0.0225
     26 C         -24.7163  -10.2208  -11.5228 C.ar    1  UNL1       -0.0046
     27 C         -24.8557   -9.5964   -9.0773 C.3     1  UNL1        0.0224
     28 C         -23.3513   -9.7059   -8.8014 C.3     1  UNL1        0.0047
     29 C         -25.5963  -10.8595   -8.6245 C.3     1  UNL1        0.0047
     30 C         -25.9006  -12.7419  -14.4635 C.3     1  UNL1        0.0050
     31 C         -25.3160  -11.4131  -14.9339 C.3     1  UNL1        0.0264
@<TRIPOS>BOND
     1    30    31    1
     2    31     1    1
     3     1     2    2
     4     2     3    1
     5     3     4   ar
     6     4     5   ar
     7     5     6   ar
     8     6     7   ar
     9     7     8   ar
    10     2     9    1
    11     9    10   ar
    12    10    11   ar
    13    11    12   ar
    14    12    15    1
    15    15    16    1
    16    16    17    1
    17    17    18    1
    18    18    19    1
    19    18    20    1
    20    12    13   ar
    21    13    14   ar
    22     1    21    1
    23    21    22   ar
    24    22    23   ar
    25    23    24   ar
    26    24    25   ar
    27    25    27    1
    28    27    28    1
    29    27    29    1
    30    25    26   ar
    31     8     3   ar
    32    14     9   ar
    33    26    21   ar
@<TRIPOS>MOLECULE
*****
 31 33 0 0 0
SMALL
GASTEIGER

@<TRIPOS>ATOM
      1 C         -22.6515   -9.3692  -13.1337 C.2     1  UNL1       -0.0222
      2 C         -23.3374   -8.3307  -12.5782 C.2     1  UNL1       -0.0040
      3 C         -22.7987   -7.5521  -11.4442 C.ar    1  UNL1       -0.0003
      4 C         -22.9556   -8.0113  -10.1270 C.ar    1  UNL1       -0.0000
      5 C         -22.4550   -7.2616   -9.0583 C.ar    1  UNL1       -0.0000
      6 C         -21.8050   -6.0473   -9.2982 C.ar    1  UNL1       -0.0000
      7 C         -21.6597   -5.5783  -10.6072 C.ar    1  UNL1       -0.0000
      8 C         -22.1591   -6.3254  -11.6785 C.ar    1  UNL1       -0.0000
      9 C         -24.6608   -7.9108  -13.0996 C.ar    1  UNL1       -0.0001
     10 C         -24.7451   -6.8869  -14.0535 C.ar    1  UNL1        0.0031
     11 C         -25.9915   -6.4162  -14.4751 C.ar    1  UNL1        0.0369
     12 C         -27.1752   -6.9755  -13.9549 C.ar    1  UNL1        0.1386
     13 C         -27.0856   -8.0306  -13.0399 C.ar    1  UNL1        0.0369
     14 C         -25.8399   -8.4954  -12.6114 C.ar    1  UNL1        0.0031
     15 O         -28.4527   -6.5163  -14.3146 O.3     1  UNL1       -0.4740
     16 C         -28.7541   -5.2010  -14.7816 C.3     1  UNL1        0.2226
     17 C         -30.2408   -5.0887  -15.1420 C.3     1  UNL1        0.1201
     18 N         -30.7049   -3.6889  -15.0376 N.3     1  UNL1       -0.2672
     19 C         -30.6332   -3.0341  -16.3541 C.3     1  UNL1        0.0898
     20 C         -32.0911   -3.6293  -14.5399 C.3     1  UNL1        0.0898
     21 C         -23.2807  -10.2169  -14.1816 C.ar    1  UNL1       -0.0043
     22 C         -23.1632   -9.8761  -15.5371 C.ar    1  UNL1       -0.0003
     23 C         -23.8163  -10.6338  -16.5112 C.ar    1  UNL1       -0.0003
     24 C         -24.5982  -11.7310  -16.1424 C.ar    1  UNL1       -0.0043
     25 C         -24.7161  -12.0990  -14.7893 C.ar    1  UNL1       -0.0225
     26 C         -24.0374  -11.3444  -13.8183 C.ar    1  UNL1       -0.0046
     27 C         -25.6136  -13.2446  -14.3610 C.3     1  UNL1        0.0224
     28 C         -25.5338  -13.4887  -12.8493 C.3     1  UNL1        0.0047
     29 C         -25.2777  -14.5168  -15.1470 C.3     1  UNL1        0.0047
     30 C         -21.2782  -10.9704  -11.7743 C.3     1  UNL1        0.0050
     31 C         -21.2511   -9.7470  -12.6862 C.3     1  UNL1        0.0264
@<TRIPOS>BOND
     1    30    31    1
     2    31     1    1
     3     1     2    2
     4     2     3    1
     5     3     4   ar
     6     4     5   ar
     7     5     6   ar
     8     6     7   ar
     9     7     8   ar
    10     2     9    1
    11     9    10   ar
    12    10    11   ar
    13    11    12   ar
    14    12    15    1
    15    15    16    1
    16    16    17    1
    17    17    18    1
    18    18    19    1
    19    18    20    1
    20    12    13   ar
    21    13    14   ar
    22     1    21    1
    23    21    22   ar
    24    22    23   ar
    25    23    24   ar
    26    24    25   ar
    27    25    27    1
    28    27    28    1
    29    27    29    1
    30    25    26   ar
    31     8     3   ar
    32    14     9   ar
    33    26    21   ar
@<TRIPOS>MOLECULE
*****
 31 33 0 0 0
SMALL
GASTEIGER

@<TRIPOS>ATOM
      1 C         -24.1829  -10.9166  -13.5971 C.2     1  UNL1       -0.0222
      2 C         -22.8572  -11.2289  -13.6488 C.2     1  UNL1       -0.0040
      3 C         -22.3099  -12.1623  -14.6546 C.ar    1  UNL1       -0.0003
      4 C         -22.1257  -11.7490  -15.9834 C.ar    1  UNL1       -0.0000
      5 C         -21.6201  -12.6427  -16.9324 C.ar    1  UNL1       -0.0000
      6 C         -21.3057  -13.9536  -16.5624 C.ar    1  UNL1       -0.0000
      7 C         -21.5018  -14.3744  -15.2436 C.ar    1  UNL1       -0.0000
      8 C         -22.0072  -13.4834  -14.2918 C.ar    1  UNL1       -0.0000
      9 C         -21.8837  -10.6282  -12.7048 C.ar    1  UNL1       -0.0001
     10 C         -21.2556  -11.4303  -11.7417 C.ar    1  UNL1        0.0031
     11 C         -20.4149  -10.8559  -10.7846 C.ar    1  UNL1        0.0369
     12 C         -20.1803   -9.4668  -10.7869 C.ar    1  UNL1        0.1386
     13 C         -20.7708   -8.6777  -11.7805 C.ar    1  UNL1        0.0369
     14 C         -21.6184   -9.2502  -12.7319 C.ar    1  UNL1        0.0031
     15 O         -19.3753   -8.8321   -9.8270 O.3     1  UNL1       -0.4740
     16 C         -19.8427   -7.9200   -8.8328 C.3     1  UNL1        0.2226
     17 C         -19.8997   -8.6059   -7.4620 C.3     1  UNL1        0.1201
     18 N         -18.5912   -8.5279   -6.7780 N.3     1  UNL1       -0.2672
     19 C         -18.6985   -7.6808   -5.5788 C.3     1  UNL1        0.0898
     20 C         -18.1213   -9.8687   -6.3856 C.3     1  UNL1        0.0898
     21 C         -24.7209  -10.0826  -12.4891 C.ar    1  UNL1       -0.0043
     22 C         -24.5605  -10.4839  -11.1547 C.ar    1  UNL1       -0.0003
     23 C         -25.1302   -9.7356  -10.1227 C.ar    1  UNL1       -0.0003
     24 C         -25.8709   -8.5872  -10.4121 C.ar    1  UNL1       -0.0043
     25 C         -26.0301   -8.1588  -11.7430 C.ar    1  UNL1       -0.0225
     26 C         -25.4346   -8.9055  -12.7730 C.ar    1  UNL1       -0.0046
     27 C         -26.8864   -6.9540  -12.0845 C.3     1  UNL1        0.0224
     28 C         -27.7532   -7.2110  -13.3230 C.3     1  UNL1        0.0047
     29 C         -26.0151   -5.7062  -12.2662 C.3     1  UNL1        0.0047
     30 C         -25.7200  -12.8030  -14.2108 C.3     1  UNL1        0.0050
     31 C         -25.1781  -11.4360  -14.6188 C.3     1  UNL1        0.0264
@<TRIPOS>BOND
     1    30    31    1
     2    31     1    1
     3     1     2    2
     4     2     3    1
     5     3     4   ar
     6     4     5   ar
     7     5     6   ar
     8     6     7   ar
     9     7     8   ar
    10     2     9    1
    11     9    10   ar
    12    10    11   ar
    13    11    12   ar
    14    12    15    1
    15    15    16    1
    16    16    17    1
    17    17    18    1
    18    18    19    1
    19    18    20    1
    20    12    13   ar
    21    13    14   ar
    22     1    21    1
    23    21    22   ar
    24    22    23   ar
    25    23    24   ar
    26    24    25   ar
    27    25    27    1
    28    27    28    1
    29    27    29    1
    30    25    26   ar
    31     8     3   ar
    32    14     9   ar
    33    26    21   ar
@<TRIPOS>MOLECULE
*****
 31 33 0 0 0
SMALL
GASTEIGER

@<TRIPOS>ATOM
      1 C         -22.5409   -9.1969  -12.3588 C.2     1  UNL1       -0.0222
      2 C         -23.1292   -7.9938  -12.1060 C.2     1  UNL1       -0.0040
      3 C         -22.4663   -6.9512  -11.2960 C.ar    1  UNL1       -0.0003
      4 C         -22.4101   -7.0644   -9.8981 C.ar    1  UNL1       -0.0000
      5 C         -21.7930   -6.0665   -9.1376 C.ar    1  UNL1       -0.0000
      6 C         -21.2386   -4.9481   -9.7672 C.ar    1  UNL1       -0.0000
      7 C         -21.3057   -4.8235  -11.1581 C.ar    1  UNL1       -0.0000
      8 C         -21.9220   -5.8195  -11.9218 C.ar    1  UNL1       -0.0000
      9 C         -24.4665   -7.6570  -12.6516 C.ar    1  UNL1       -0.0001
     10 C         -24.5789   -7.0835  -13.9260 C.ar    1  UNL1        0.0031
     11 C         -25.8244   -6.6705  -14.4065 C.ar    1  UNL1        0.0369
     12 C         -26.9808   -6.8386  -13.6197 C.ar    1  UNL1        0.1386
     13 C         -26.8701   -7.4563  -12.3688 C.ar    1  UNL1        0.0369
     14 C         -25.6240   -7.8612  -11.8844 C.ar    1  UNL1        0.0031
     15 O         -28.2510   -6.4082  -14.0368 O.3     1  UNL1       -0.4740
     16 C         -28.5101   -5.2409  -14.8171 C.3     1  UNL1        0.2226
     17 C         -30.0169   -5.0795  -15.0544 C.3     1  UNL1        0.1201
     18 N         -30.3940   -3.6506  -15.0995 N.3     1  UNL1       -0.2672
     19 C         -30.2782   -3.1416  -16.4760 C.3     1  UNL1        0.0898
     20 C         -31.7753   -3.4553  -14.6236 C.3     1  UNL1        0.0898
     21 C         -23.2907  -10.2730  -13.0605 C.ar    1  UNL1       -0.0043
     22 C         -24.1605  -11.1132  -12.3497 C.ar    1  UNL1       -0.0003
     23 C         -24.8059  -12.1673  -12.9992 C.ar    1  UNL1       -0.0003
     24 C         -24.5835  -12.3982  -14.3587 C.ar    1  UNL1       -0.0043
     25 C         -23.7271  -11.5572  -15.0932 C.ar    1  UNL1       -0.0225
     26 C         -23.0995  -10.4857  -14.4367 C.ar    1  UNL1       -0.0046
     27 C         -23.4188  -11.8302  -16.5533 C.3     1  UNL1        0.0224
     28 C         -22.2265  -12.7816  -16.7097 C.3     1  UNL1        0.0047
     29 C         -23.1848  -10.5182  -17.3104 C.3     1  UNL1        0.0047
     30 C         -21.1403  -10.5871  -10.8083 C.3     1  UNL1        0.0050
     31 C         -21.1306   -9.5214  -11.9006 C.3     1  UNL1        0.0264
@<TRIPOS>BOND
     1    30    31    1
     2    31     1    1
     3     1     2    2
     4     2     3    1
     5     3     4   ar
     6     4     5   ar
     7     5     6   ar
     8     6     7   ar
     9     7     8   ar
    10     2     9    1
    11     9    10   ar
    12    10    11   ar
    13    11    12   ar
    14    12    15    1
    15    15    16    1
    16    16    17    1
    17    17    18    1
    18    18    19    1
    19    18    20    1
    20    12    13   ar
    21    13    14   ar
    22     1    21    1
    23    21    22   ar
    24    22    23   ar
    25    23    24   ar
    26    24    25   ar
    27    25    27    1
    28    27    28    1
    29    27    29    1
    30    25    26   ar
    31     8     3   ar
    32    14     9   ar
    33    26    21   ar
@<TRIPOS>MOLECULE
*****
 31 33 0 0 0
SMALL
GASTEIGER

@<TRIPOS>ATOM
      1 C         -22.7506   -8.9503  -13.4395 C.2     1  UNL1       -0.0222
      2 C         -22.0613   -9.8524  -12.6854 C.2     1  UNL1       -0.0040
      3 C         -21.6319  -11.1594  -13.2238 C.ar    1  UNL1       -0.0003
      4 C         -21.8467  -11.4785  -14.5737 C.ar    1  UNL1       -0.0000
      5 C         -21.4499  -12.7230  -15.0722 C.ar    1  UNL1       -0.0000
      6 C         -20.8466  -13.6570  -14.2248 C.ar    1  UNL1       -0.0000
      7 C         -20.6444  -13.3497  -12.8760 C.ar    1  UNL1       -0.0000
      8 C         -21.0400  -12.1060  -12.3739 C.ar    1  UNL1       -0.0000
      9 C         -21.6849   -9.5594  -11.2811 C.ar    1  UNL1       -0.0001
     10 C         -22.6327   -9.7016  -10.2578 C.ar    1  UNL1        0.0031
     11 C         -22.3171   -9.3317   -8.9476 C.ar    1  UNL1        0.0369
     12 C         -21.0391   -8.8249   -8.6406 C.ar    1  UNL1        0.1386
     13 C         -20.0811   -8.7312   -9.6565 C.ar    1  UNL1        0.0369
     14 C         -20.3989   -9.0924  -10.9680 C.ar    1  UNL1        0.0031
     15 O         -20.6804   -8.4032   -7.3499 O.3     1  UNL1       -0.4740
     16 C         -19.3560   -8.0761   -6.9284 C.3     1  UNL1        0.2226
     17 C         -19.2086   -8.2861   -5.4161 C.3     1  UNL1        0.1201
     18 N         -18.4349   -7.1854   -4.8033 N.3     1  UNL1       -0.2672
     19 C         -18.7747   -7.0634   -3.3762 C.3     1  UNL1        0.0898
     20 C         -16.9861   -7.4205   -4.9396 C.3     1  UNL1        0.0898
     21 C         -23.2857   -7.7047  -12.8273 C.ar    1  UNL1       -0.0043
     22 C         -24.6081   -7.3046  -13.0697 C.ar    1  UNL1       -0.0003
     23 C         -25.0830   -6.0979  -12.5523 C.ar    1  UNL1       -0.0003
     24 C         -24.2426   -5.2764  -11.7973 C.ar    1  UNL1       -0.0043
     25 C         -22.9175   -5.6671  -11.5295 C.ar    1  UNL1       -0.0225
     26 C         -22.4551   -6.8933  -12.0351 C.ar    1  UNL1       -0.0046
     27 C         -21.9681   -4.7598  -10.7699 C.3     1  UNL1        0.0224
     28 C         -20.6196   -4.6270  -11.4877 C.3     1  UNL1        0.0047
     29 C         -21.7844   -5.2538   -9.3307 C.3     1  UNL1        0.0047
     30 C         -22.3067   -8.1854  -15.7881 C.3     1  UNL1        0.0050
     31 C         -23.0526   -9.1848  -14.9084 C.3     1  UNL1        0.0264
@<TRIPOS>BOND
     1    30    31    1
     2    31     1    1
     3     1     2    2
     4     2     3    1
     5     3     4   ar
     6     4     5   ar
     7     5     6   ar
     8     6     7   ar
     9     7     8   ar
    10     2     9    1
    11     9    10   ar
    12    10    11   ar
    13    11    12   ar
    14    12    15    1
    15    15    16    1
    16    16    17    1
    17    17    18    1
    18    18    19    1
    19    18    20    1
    20    12    13   ar
    21    13    14   ar
    22     1    21    1
    23    21    22   ar
    24    22    23   ar
    25    23    24   ar
    26    24    25   ar
    27    25    27    1
    28    27    28    1
    29    27    29    1
    30    25    26   ar
    31     8     3   ar
    32    14     9   ar
    33    26    21   ar
