@<TRIPOS>MOLECULE
*****
 41 45 0 0 0
SMALL
GASTEIGER

@<TRIPOS>ATOM
      1 C          -7.9780  -16.5380   24.7911 C.ar    1  UNL1        0.0656
      2 C          -8.6391  -17.7607   24.4868 C.ar    1  UNL1        0.0222
      3 C          -9.5404  -18.3220   25.4298 C.ar    1  UNL1        0.0010
      4 C          -9.7846  -17.6890   26.6608 C.ar    1  UNL1        0.0184
      5 C          -9.1158  -16.4976   26.9173 C.ar    1  UNL1        0.0768
      6 N          -9.1974  -15.7187   28.0031 N.ar    1  UNL1       -0.3373
      7 C          -8.3589  -14.6835   27.7298 C.ar    1  UNL1        0.1406
      8 N          -7.7588  -14.7912   26.5130 N.ar    1  UNL1       -0.2258
      9 C          -8.2512  -15.9436   26.0257 C.ar    1  UNL1        0.1114
     10 H          -9.7768  -15.8930   28.8529 H       1  UNL1        0.1674
     11 N          -5.2684  -15.9275   21.8894 N.3     1  UNL1       -0.2655
     12 C          -4.8519  -15.1823   23.0913 C.3     1  UNL1        0.0941
     13 C          -5.6895  -15.6594   24.2777 C.3     1  UNL1        0.1082
     14 N          -7.0747  -15.9141   23.8669 N.pl3   1  UNL1       -0.3036
     15 C          -7.6020  -15.3244   22.6316 C.3     1  UNL1        0.1082
     16 C          -6.6167  -15.4988   21.4535 C.3     1  UNL1        0.0941
     17 C          -4.2955  -15.7674   20.7906 C.3     1  UNL1        0.1154
     18 N          -2.7340  -19.1900   20.4031 N.am    1  UNL1       -0.0442
     19 C          -3.6364  -18.1650   20.3864 C.2     1  UNL1        0.2969
     20 C          -3.2755  -16.8832   20.8161 C.2     1  UNL1        0.1684
     21 C          -1.9576  -16.6837   21.2528 C.2     1  UNL1        0.4261
     22 O          -1.5748  -15.5479   21.6446 O.2     1  UNL1       -0.2139
     23 N          -1.0825  -17.7233   21.2582 N.am    1  UNL1       -0.0486
     24 C          -1.4567  -18.9652   20.8470 C.2     1  UNL1        0.6659
     25 O          -0.6152  -19.9053   20.8815 O.2     1  UNL1       -0.1527
     26 H          -0.1031  -17.5668   21.5901 H       1  UNL1        0.4575
     27 C          -4.6832  -20.6693   20.1308 C.3     1  UNL1        0.0920
     28 C          -3.1696  -20.5357   19.9956 C.3     1  UNL1        0.3234
     29 C          -8.1045  -13.5439   28.6475 C.ar    1  UNL1        0.0339
     30 C          -9.1569  -13.0102   29.4071 C.ar    1  UNL1        0.0027
     31 C          -8.9418  -11.9381   30.2771 C.ar    1  UNL1       -0.0042
     32 C          -7.6590  -11.3614   30.4185 C.ar    1  UNL1       -0.0228
     33 C          -6.6082  -11.9090   29.6516 C.ar    1  UNL1       -0.0042
     34 C          -6.8259  -12.9805   28.7823 C.ar    1  UNL1        0.0027
     35 C          -7.3749  -10.1777   31.3666 C.3     1  UNL1        0.0189
     36 C          -8.0200   -8.8955   30.7970 C.3     1  UNL1        0.0044
     37 C          -7.9378  -10.3930   32.7922 C.3     1  UNL1        0.0044
     38 C          -5.8494   -9.9724   31.4911 C.3     1  UNL1        0.0044
     39 C          -8.3985  -18.4952   23.1879 C.3     1  UNL1        0.1700
     40 O          -9.4662  -18.2853   22.2839 O.3     1  UNL1       -0.3463
     41 C          -9.1161  -18.7565   21.0008 C.3     1  UNL1        0.1746
@<TRIPOS>BOND
     1    27    28    1
     2    28    18    1
     3    18    19    1
     4    19    20    2
     5    20    17    1
     6    17    11    1
     7    11    12    1
     8    12    13    1
     9    13    14    1
    10    14     1    1
    11     1     2   ar
    12     2    39    1
    13    39    40    1
    14    40    41    1
    15     2     3   ar
    16     3     4   ar
    17     4     5   ar
    18     5     6   ar
    19     6     7   ar
    20     7    29    1
    21    29    30   ar
    22    30    31   ar
    23    31    32   ar
    24    32    35    1
    25    35    36    1
    26    35    37    1
    27    35    38    1
    28    32    33   ar
    29    33    34   ar
    30     7     8   ar
    31     8     9   ar
    32    14    15    1
    33    15    16    1
    34    20    21    1
    35    21    22    2
    36    21    23    1
    37    23    24    1
    38    24    25    2
    39    24    18    1
    40    16    11    1
    41     9     1   ar
    42     9     5   ar
    43    34    29   ar
    44     6    10    1
    45    23    26    1
@<TRIPOS>MOLECULE
*****
 41 45 0 0 0
SMALL
GASTEIGER

@<TRIPOS>ATOM
      1 C          -7.9041  -16.8419   24.6128 C.ar    1  UNL1        0.0656
      2 C          -8.6592  -18.0089   24.3085 C.ar    1  UNL1        0.0222
      3 C          -9.6548  -18.4546   25.2178 C.ar    1  UNL1        0.0010
      4 C          -9.9011  -17.7617   26.4157 C.ar    1  UNL1        0.0184
      5 C          -9.1388  -16.6282   26.6736 C.ar    1  UNL1        0.0768
      6 N          -9.2027  -15.8096   27.7310 N.ar    1  UNL1       -0.3373
      7 C          -8.2594  -14.8644   27.4735 C.ar    1  UNL1        0.1406
      8 N          -7.6114  -15.0662   26.2938 N.ar    1  UNL1       -0.2258
      9 C          -8.1830  -16.1847   25.8139 C.ar    1  UNL1        0.1114
     10 H          -9.8377  -15.9024   28.5535 H       1  UNL1        0.1674
     11 N          -4.9820  -16.5797   21.8693 N.3     1  UNL1       -0.2655
     12 C          -4.5872  -15.8023   23.0580 C.3     1  UNL1        0.0941
     13 C          -5.5297  -16.1551   24.2087 C.3     1  UNL1        0.1082
     14 N          -6.9017  -16.3335   23.7206 N.pl3   1  UNL1       -0.3036
     15 C          -7.3064  -15.7752   22.4258 C.3     1  UNL1        0.1082
     16 C          -6.2654  -16.0812   21.3252 C.3     1  UNL1        0.0941
     17 C          -3.9336  -16.5475   20.8303 C.3     1  UNL1        0.1154
     18 N          -0.7513  -18.5903   20.8856 N.am    1  UNL1       -0.0442
     19 C          -1.6224  -17.5470   20.7520 C.2     1  UNL1        0.2969
     20 C          -2.9907  -17.7188   20.9892 C.2     1  UNL1        0.1684
     21 C          -3.4352  -18.9910   21.3780 C.2     1  UNL1        0.4261
     22 O          -4.6563  -19.2021   21.6117 O.2     1  UNL1       -0.2139
     23 N          -2.5444  -20.0096   21.5021 N.am    1  UNL1       -0.0486
     24 C          -1.2191  -19.8245   21.2556 C.2     1  UNL1        0.6659
     25 O          -0.4287  -20.8018   21.3698 O.2     1  UNL1       -0.1527
     26 H          -2.8852  -20.9563   21.7877 H       1  UNL1        0.4575
     27 C           0.8685  -17.0511   19.8517 C.3     1  UNL1        0.0920
     28 C           0.6717  -18.3810   20.5725 C.3     1  UNL1        0.3234
     29 C          -7.9473  -13.7229   28.3708 C.ar    1  UNL1        0.0339
     30 C          -6.6365  -13.2261   28.4391 C.ar    1  UNL1        0.0027
     31 C          -6.3189  -12.1531   29.2760 C.ar    1  UNL1       -0.0042
     32 C          -7.3076  -11.5365   30.0762 C.ar    1  UNL1       -0.0228
     33 C          -8.6225  -12.0431   29.9963 C.ar    1  UNL1       -0.0042
     34 C          -8.9375  -13.1161   29.1592 C.ar    1  UNL1        0.0027
     35 C          -7.0030  -10.3497   31.0141 C.3     1  UNL1        0.0189
     36 C          -7.9417  -10.4073   32.2390 C.3     1  UNL1        0.0044
     37 C          -5.5467  -10.3483   31.5384 C.3     1  UNL1        0.0044
     38 C          -7.2296   -9.0234   30.2564 C.3     1  UNL1        0.0044
     39 C          -8.4224  -18.8048   23.0455 C.3     1  UNL1        0.1700
     40 O          -9.4723  -18.6050   22.1187 O.3     1  UNL1       -0.3463
     41 C          -9.0336  -18.9141   20.8137 C.3     1  UNL1        0.1746
@<TRIPOS>BOND
     1    27    28    1
     2    28    18    1
     3    18    19    1
     4    19    20    2
     5    20    17    1
     6    17    11    1
     7    11    12    1
     8    12    13    1
     9    13    14    1
    10    14     1    1
    11     1     2   ar
    12     2    39    1
    13    39    40    1
    14    40    41    1
    15     2     3   ar
    16     3     4   ar
    17     4     5   ar
    18     5     6   ar
    19     6     7   ar
    20     7    29    1
    21    29    30   ar
    22    30    31   ar
    23    31    32   ar
    24    32    35    1
    25    35    36    1
    26    35    37    1
    27    35    38    1
    28    32    33   ar
    29    33    34   ar
    30     7     8   ar
    31     8     9   ar
    32    14    15    1
    33    15    16    1
    34    20    21    1
    35    21    22    2
    36    21    23    1
    37    23    24    1
    38    24    25    2
    39    24    18    1
    40    16    11    1
    41     9     1   ar
    42     9     5   ar
    43    34    29   ar
    44     6    10    1
    45    23    26    1
@<TRIPOS>MOLECULE
*****
 41 45 0 0 0
SMALL
GASTEIGER

@<TRIPOS>ATOM
      1 C          -5.4074  -16.8842   23.5691 C.ar    1  UNL1        0.0656
      2 C          -4.2223  -17.6319   23.3216 C.ar    1  UNL1        0.0222
      3 C          -3.2645  -17.7879   24.3584 C.ar    1  UNL1        0.0010
      4 C          -3.4689  -17.2104   25.6235 C.ar    1  UNL1        0.0184
      5 C          -4.6394  -16.4868   25.8206 C.ar    1  UNL1        0.0768
      6 N          -5.0516  -15.8645   26.9320 N.ar    1  UNL1       -0.3373
      7 C          -6.2553  -15.3346   26.5857 C.ar    1  UNL1        0.1406
      8 N          -6.6060  -15.6051   25.2989 N.ar    1  UNL1       -0.2258
      9 C          -5.5692  -16.3286   24.8409 C.ar    1  UNL1        0.1114
     10 H          -4.5428  -15.8103   27.8410 H       1  UNL1        0.1674
     11 N          -8.9173  -16.2336   21.7276 N.3     1  UNL1       -0.2655
     12 C          -8.3147  -17.4619   21.1787 C.3     1  UNL1        0.0941
     13 C          -7.1572  -17.8855   22.0829 C.3     1  UNL1        0.1082
     14 N          -6.4192  -16.7131   22.5660 N.pl3   1  UNL1       -0.3036
     15 C          -6.5320  -15.4272   21.8691 C.3     1  UNL1        0.1082
     16 C          -8.0042  -15.0821   21.5489 C.3     1  UNL1        0.0941
     17 C         -10.2288  -15.9531   21.1102 C.3     1  UNL1        0.1154
     18 N         -12.0270  -17.9378   23.7804 N.am    1  UNL1       -0.0442
     19 C         -11.0453  -17.3035   23.0739 C.2     1  UNL1        0.2969
     20 C         -11.3355  -16.6441   21.8743 C.2     1  UNL1        0.1684
     21 C         -12.6653  -16.6466   21.4284 C.2     1  UNL1        0.4261
     22 O         -12.9859  -16.0624   20.3579 O.2     1  UNL1       -0.2139
     23 N         -13.6201  -17.2867   22.1532 N.am    1  UNL1       -0.0486
     24 C         -13.3151  -17.9321   23.3116 C.2     1  UNL1        0.6659
     25 O         -14.2309  -18.5254   23.9459 O.2     1  UNL1       -0.1527
     26 H         -14.6084  -17.2878   21.8108 H       1  UNL1        0.4575
     27 C         -10.2638  -19.2473   24.8932 C.3     1  UNL1        0.0920
     28 C         -11.6699  -18.6670   25.0081 C.3     1  UNL1        0.3234
     29 C          -7.1154  -14.5374   27.4969 C.ar    1  UNL1        0.0339
     30 C          -8.4715  -14.8673   27.6441 C.ar    1  UNL1        0.0027
     31 C          -9.3003  -14.1318   28.4954 C.ar    1  UNL1       -0.0042
     32 C          -8.7974  -13.0362   29.2335 C.ar    1  UNL1       -0.0228
     33 C          -7.4313  -12.7164   29.0794 C.ar    1  UNL1       -0.0042
     34 C          -6.6049  -13.4530   28.2274 C.ar    1  UNL1        0.0027
     35 C          -9.6748  -12.1964   30.1851 C.3     1  UNL1        0.0189
     36 C         -10.4369  -11.1266   29.3731 C.3     1  UNL1        0.0044
     37 C         -10.7231  -13.0412   30.9487 C.3     1  UNL1        0.0044
     38 C          -8.7786  -11.5022   31.2337 C.3     1  UNL1        0.0044
     39 C          -3.9408  -18.2569   21.9745 C.3     1  UNL1        0.1700
     40 O          -3.5558  -17.2741   21.0326 O.3     1  UNL1       -0.3463
     41 C          -3.9073  -17.6860   19.7296 C.3     1  UNL1        0.1746
@<TRIPOS>BOND
     1    27    28    1
     2    28    18    1
     3    18    19    1
     4    19    20    2
     5    20    17    1
     6    17    11    1
     7    11    12    1
     8    12    13    1
     9    13    14    1
    10    14     1    1
    11     1     2   ar
    12     2    39    1
    13    39    40    1
    14    40    41    1
    15     2     3   ar
    16     3     4   ar
    17     4     5   ar
    18     5     6   ar
    19     6     7   ar
    20     7    29    1
    21    29    30   ar
    22    30    31   ar
    23    31    32   ar
    24    32    35    1
    25    35    36    1
    26    35    37    1
    27    35    38    1
    28    32    33   ar
    29    33    34   ar
    30     7     8   ar
    31     8     9   ar
    32    14    15    1
    33    15    16    1
    34    20    21    1
    35    21    22    2
    36    21    23    1
    37    23    24    1
    38    24    25    2
    39    24    18    1
    40    16    11    1
    41     9     1   ar
    42     9     5   ar
    43    34    29   ar
    44     6    10    1
    45    23    26    1
@<TRIPOS>MOLECULE
*****
 41 45 0 0 0
SMALL
GASTEIGER

@<TRIPOS>ATOM
      1 C          -7.4185  -11.5079   29.8675 C.ar    1  UNL1        0.0656
      2 C          -6.2911  -10.7075   30.2031 C.ar    1  UNL1        0.0222
      3 C          -5.0426  -10.9594   29.5750 C.ar    1  UNL1        0.0010
      4 C          -4.9045  -11.9910   28.6303 C.ar    1  UNL1        0.0184
      5 C          -6.0313  -12.7494   28.3340 C.ar    1  UNL1        0.0768
      6 N          -6.1428  -13.7643   27.4682 N.ar    1  UNL1       -0.3373
      7 C          -7.4494  -14.1311   27.5570 C.ar    1  UNL1        0.1406
      8 N          -8.1540  -13.3806   28.4472 N.ar    1  UNL1       -0.2258
      9 C          -7.2356  -12.5214   28.9232 C.ar    1  UNL1        0.1114
     10 H          -5.3828  -14.1652   26.8767 H       1  UNL1        0.1674
     11 N         -11.3204  -11.7806   30.7817 N.3     1  UNL1       -0.2655
     12 C         -10.9991  -10.3715   30.4909 C.3     1  UNL1        0.0941
     13 C          -9.6173  -10.3089   29.8400 C.3     1  UNL1        0.1082
     14 N          -8.7090  -11.2839   30.4538 N.pl3   1  UNL1       -0.3036
     15 C          -9.0046  -11.8408   31.7784 C.3     1  UNL1        0.1082
     16 C         -10.4802  -12.2870   31.8904 C.3     1  UNL1        0.0941
     17 C         -12.7520  -11.9537   31.0982 C.3     1  UNL1        0.1154
     18 N         -13.2053  -15.1239   33.1100 N.am    1  UNL1       -0.0442
     19 C         -13.0425  -14.2629   32.0625 C.2     1  UNL1        0.2969
     20 C         -12.9277  -12.8849   32.2765 C.2     1  UNL1        0.1684
     21 C         -12.9741  -12.4194   33.5988 C.2     1  UNL1        0.4261
     22 O         -12.8688  -11.1885   33.8515 O.2     1  UNL1       -0.2139
     23 N         -13.1374  -13.3007   34.6202 N.am    1  UNL1       -0.0486
     24 C         -13.2586  -14.6362   34.3900 C.2     1  UNL1        0.6659
     25 O         -13.4225  -15.4176   35.3675 O.2     1  UNL1       -0.1527
     26 H         -13.1759  -12.9444   35.6029 H       1  UNL1        0.4575
     27 C         -12.4087  -17.0169   31.7520 C.3     1  UNL1        0.0920
     28 C         -13.3781  -16.5601   32.8377 C.3     1  UNL1        0.3234
     29 C          -8.0670  -15.2341   26.7775 C.ar    1  UNL1        0.0339
     30 C          -8.4825  -16.4043   27.4313 C.ar    1  UNL1        0.0027
     31 C          -9.0660  -17.4553   26.7190 C.ar    1  UNL1       -0.0042
     32 C          -9.2560  -17.3702   25.3209 C.ar    1  UNL1       -0.0228
     33 C          -8.8369  -16.1871   24.6753 C.ar    1  UNL1       -0.0042
     34 C          -8.2535  -15.1379   25.3896 C.ar    1  UNL1        0.0027
     35 C          -9.8958  -18.5048   24.4939 C.3     1  UNL1        0.0189
     36 C          -9.0772  -18.7259   23.2033 C.3     1  UNL1        0.0044
     37 C          -9.9496  -19.8530   25.2524 C.3     1  UNL1        0.0044
     38 C         -11.3439  -18.1178   24.1227 C.3     1  UNL1        0.0044
     39 C          -6.3768   -9.5990   31.2270 C.3     1  UNL1        0.1700
     40 O          -5.7858   -8.4112   30.7358 O.3     1  UNL1       -0.3463
     41 C          -6.7238   -7.6797   29.9769 C.3     1  UNL1        0.1746
@<TRIPOS>BOND
     1    27    28    1
     2    28    18    1
     3    18    19    1
     4    19    20    2
     5    20    17    1
     6    17    11    1
     7    11    12    1
     8    12    13    1
     9    13    14    1
    10    14     1    1
    11     1     2   ar
    12     2    39    1
    13    39    40    1
    14    40    41    1
    15     2     3   ar
    16     3     4   ar
    17     4     5   ar
    18     5     6   ar
    19     6     7   ar
    20     7    29    1
    21    29    30   ar
    22    30    31   ar
    23    31    32   ar
    24    32    35    1
    25    35    36    1
    26    35    37    1
    27    35    38    1
    28    32    33   ar
    29    33    34   ar
    30     7     8   ar
    31     8     9   ar
    32    14    15    1
    33    15    16    1
    34    20    21    1
    35    21    22    2
    36    21    23    1
    37    23    24    1
    38    24    25    2
    39    24    18    1
    40    16    11    1
    41     9     1   ar
    42     9     5   ar
    43    34    29   ar
    44     6    10    1
    45    23    26    1
@<TRIPOS>MOLECULE
*****
 41 45 0 0 0
SMALL
GASTEIGER

@<TRIPOS>ATOM
      1 C          -7.0758  -12.1390   29.3547 C.ar    1  UNL1        0.0656
      2 C          -5.8793  -11.3884   29.5269 C.ar    1  UNL1        0.0222
      3 C          -4.7417  -11.6941   28.7338 C.ar    1  UNL1        0.0010
      4 C          -4.7801  -12.7303   27.7848 C.ar    1  UNL1        0.0184
      5 C          -5.9686  -13.4389   27.6513 C.ar    1  UNL1        0.0768
      6 N          -6.2424  -14.4477   26.8150 N.ar    1  UNL1       -0.3373
      7 C          -7.5387  -14.7575   27.0855 C.ar    1  UNL1        0.1406
      8 N          -8.0804  -13.9774   28.0602 N.ar    1  UNL1       -0.2258
      9 C          -7.0689  -13.1591   28.4000 C.ar    1  UNL1        0.1114
     10 H          -5.5894  -14.8810   26.1264 H       1  UNL1        0.1674
     11 N         -10.1819  -10.2557   31.0691 N.3     1  UNL1       -0.2655
     12 C          -9.4885  -11.0562   32.0946 C.3     1  UNL1        0.0941
     13 C          -8.1415  -11.5106   31.5325 C.3     1  UNL1        0.1082
     14 N          -8.2619  -11.8593   30.1125 N.pl3   1  UNL1       -0.3036
     15 C          -9.5750  -12.1605   29.5318 C.3     1  UNL1        0.1082
     16 C         -10.6354  -11.1188   29.9551 C.3     1  UNL1        0.0941
     17 C         -11.3213   -9.5128   31.6433 C.3     1  UNL1        0.1154
     18 N          -9.9428   -6.1487   30.6016 N.am    1  UNL1       -0.0442
     19 C         -10.0246   -7.4645   30.9580 C.2     1  UNL1        0.2969
     20 C         -11.2598   -8.0548   31.2475 C.2     1  UNL1        0.1684
     21 C         -12.4086   -7.2561   31.1492 C.2     1  UNL1        0.4261
     22 O         -13.5489   -7.7368   31.3917 O.2     1  UNL1       -0.2139
     23 N         -12.2951   -5.9498   30.7924 N.am    1  UNL1       -0.0486
     24 C         -11.0831   -5.3917   30.5261 C.2     1  UNL1        0.6659
     25 O         -11.0226   -4.1710   30.2115 O.2     1  UNL1       -0.1527
     26 H         -13.1565   -5.3602   30.7264 H       1  UNL1        0.4575
     27 C          -7.6638   -5.8957   31.4985 C.3     1  UNL1        0.0920
     28 C          -8.6190   -5.5522   30.3597 C.3     1  UNL1        0.3234
     29 C          -8.3050  -15.8323   26.4049 C.ar    1  UNL1        0.0339
     30 C          -8.6530  -15.6932   25.0525 C.ar    1  UNL1        0.0027
     31 C          -9.3737  -16.6909   24.3911 C.ar    1  UNL1       -0.0042
     32 C          -9.7718  -17.8688   25.0635 C.ar    1  UNL1       -0.0228
     33 C          -9.4131  -17.9984   26.4225 C.ar    1  UNL1       -0.0042
     34 C          -8.6928  -16.9993   27.0816 C.ar    1  UNL1        0.0027
     35 C         -10.5678  -18.9964   24.3739 C.3     1  UNL1        0.0189
     36 C         -12.0784  -18.7785   24.6092 C.3     1  UNL1        0.0044
     37 C         -10.3348  -19.0565   22.8449 C.3     1  UNL1        0.0044
     38 C         -10.1479  -20.3594   24.9658 C.3     1  UNL1        0.0044
     39 C          -5.7749  -10.2776   30.5466 C.3     1  UNL1        0.1700
     40 O          -5.2196   -9.1120   29.9683 O.3     1  UNL1       -0.3463
     41 C          -6.2155   -8.3919   29.2751 C.3     1  UNL1        0.1746
@<TRIPOS>BOND
     1    27    28    1
     2    28    18    1
     3    18    19    1
     4    19    20    2
     5    20    17    1
     6    17    11    1
     7    11    12    1
     8    12    13    1
     9    13    14    1
    10    14     1    1
    11     1     2   ar
    12     2    39    1
    13    39    40    1
    14    40    41    1
    15     2     3   ar
    16     3     4   ar
    17     4     5   ar
    18     5     6   ar
    19     6     7   ar
    20     7    29    1
    21    29    30   ar
    22    30    31   ar
    23    31    32   ar
    24    32    35    1
    25    35    36    1
    26    35    37    1
    27    35    38    1
    28    32    33   ar
    29    33    34   ar
    30     7     8   ar
    31     8     9   ar
    32    14    15    1
    33    15    16    1
    34    20    21    1
    35    21    22    2
    36    21    23    1
    37    23    24    1
    38    24    25    2
    39    24    18    1
    40    16    11    1
    41     9     1   ar
    42     9     5   ar
    43    34    29   ar
    44     6    10    1
    45    23    26    1
@<TRIPOS>MOLECULE
*****
 41 45 0 0 0
SMALL
GASTEIGER

@<TRIPOS>ATOM
      1 C          -7.2384   -9.9431   31.7340 C.ar    1  UNL1        0.0656
      2 C          -6.2632   -9.0174   32.1994 C.ar    1  UNL1        0.0222
      3 C          -4.9745   -9.0002   31.6031 C.ar    1  UNL1        0.0010
      4 C          -4.6480   -9.8876   30.5631 C.ar    1  UNL1        0.0184
      5 C          -5.6302  -10.7762   30.1412 C.ar    1  UNL1        0.0768
      6 N          -5.5547  -11.6951   29.1706 N.ar    1  UNL1       -0.3373
      7 C          -6.7873  -12.2697   29.1642 C.ar    1  UNL1        0.1406
      8 N          -7.6263  -11.7410   30.0963 N.ar    1  UNL1       -0.2258
      9 C          -6.8705  -10.8058   30.6983 C.ar    1  UNL1        0.1114
     10 H          -4.7250  -11.9046   28.5740 H       1  UNL1        0.1674
     11 N         -11.0057  -11.0459   32.5858 N.3     1  UNL1       -0.2655
     12 C         -10.9991   -9.6145   32.2333 C.3     1  UNL1        0.0941
     13 C          -9.6478   -9.2710   31.6065 C.3     1  UNL1        0.1082
     14 N          -8.5630   -9.9897   32.2841 N.pl3   1  UNL1       -0.3036
     15 C          -8.7654  -10.5414   33.6282 C.3     1  UNL1        0.1082
     16 C         -10.1065  -11.3025   33.7336 C.3     1  UNL1        0.0941
     17 C         -12.3710  -11.5225   32.8831 C.3     1  UNL1        0.1154
     18 N         -13.5956  -15.0968   33.0508 N.am    1  UNL1       -0.0442
     19 C         -13.4741  -13.7542   33.2697 C.2     1  UNL1        0.2969
     20 C         -12.4857  -13.0070   32.6195 C.2     1  UNL1        0.1684
     21 C         -11.6336  -13.6779   31.7301 C.2     1  UNL1        0.4261
     22 O         -10.7294  -13.0539   31.1112 O.2     1  UNL1       -0.2139
     23 N         -11.7789  -15.0147   31.5334 N.am    1  UNL1       -0.0486
     24 C         -12.7394  -15.7254   32.1843 C.2     1  UNL1        0.6659
     25 O         -12.8300  -16.9679   31.9819 O.2     1  UNL1       -0.1527
     26 H         -11.1360  -15.5080   30.8721 H       1  UNL1        0.4575
     27 C         -16.0080  -15.5371   33.2702 C.3     1  UNL1        0.0920
     28 C         -14.6123  -15.8559   33.7969 C.3     1  UNL1        0.3234
     29 C          -7.1993  -13.3638   28.2482 C.ar    1  UNL1        0.0339
     30 C          -6.2932  -13.8565   27.2966 C.ar    1  UNL1        0.0027
     31 C          -6.6581  -14.8853   26.4241 C.ar    1  UNL1       -0.0042
     32 C          -7.9485  -15.4600   26.4755 C.ar    1  UNL1       -0.0228
     33 C          -8.8495  -14.9581   27.4389 C.ar    1  UNL1       -0.0042
     34 C          -8.4825  -13.9294   28.3098 C.ar    1  UNL1        0.0027
     35 C          -8.3948  -16.5972   25.5330 C.3     1  UNL1        0.0189
     36 C          -8.9918  -17.7522   26.3664 C.3     1  UNL1        0.0044
     37 C          -9.4683  -16.1524   24.5106 C.3     1  UNL1        0.0044
     38 C          -7.1765  -17.1151   24.7380 C.3     1  UNL1        0.0044
     39 C          -6.5526   -8.0549   33.3283 C.3     1  UNL1        0.1700
     40 O          -7.6355   -7.2051   33.0021 O.3     1  UNL1       -0.3463
     41 C          -7.1898   -6.1401   32.1908 C.3     1  UNL1        0.1746
@<TRIPOS>BOND
     1    27    28    1
     2    28    18    1
     3    18    19    1
     4    19    20    2
     5    20    17    1
     6    17    11    1
     7    11    12    1
     8    12    13    1
     9    13    14    1
    10    14     1    1
    11     1     2   ar
    12     2    39    1
    13    39    40    1
    14    40    41    1
    15     2     3   ar
    16     3     4   ar
    17     4     5   ar
    18     5     6   ar
    19     6     7   ar
    20     7    29    1
    21    29    30   ar
    22    30    31   ar
    23    31    32   ar
    24    32    35    1
    25    35    36    1
    26    35    37    1
    27    35    38    1
    28    32    33   ar
    29    33    34   ar
    30     7     8   ar
    31     8     9   ar
    32    14    15    1
    33    15    16    1
    34    20    21    1
    35    21    22    2
    36    21    23    1
    37    23    24    1
    38    24    25    2
    39    24    18    1
    40    16    11    1
    41     9     1   ar
    42     9     5   ar
    43    34    29   ar
    44     6    10    1
    45    23    26    1
