@<TRIPOS>MOLECULE
*****
 47 52 0 0 0
SMALL
GASTEIGER

@<TRIPOS>ATOM
      1 C          11.5782   81.2556   25.6413 C.ar    1  UNL1        0.0702
      2 C          12.5308   81.9349   26.4161 C.ar    1  UNL1        0.0191
      3 C          13.3154   82.9365   25.8417 C.ar    1  UNL1        0.0356
      4 C          13.1632   83.2407   24.4796 C.ar    1  UNL1        0.1318
      5 N          12.2376   82.5616   23.7466 N.ar    1  UNL1       -0.2279
      6 C          11.4628   81.5833   24.2849 C.ar    1  UNL1        0.1149
      7 N          13.9385   84.2826   23.8573 N.pl3   1  UNL1       -0.2932
      8 C          13.9593   85.6505   24.3944 C.3     1  UNL1        0.0923
      9 C          13.6955   86.6782   23.2808 C.3     1  UNL1        0.0252
     10 C          14.2400   86.2389   21.8939 C.3     1  UNL1        0.0472
     11 C          15.3615   85.1929   22.0313 C.3     1  UNL1        0.0252
     12 C          14.8287   83.9373   22.7387 C.3     1  UNL1        0.0923
     13 C          14.7257   87.4484   21.0725 C.3     1  UNL1        0.2054
     14 O          13.9341   87.6219   19.8958 O.3     1  UNL1       -0.4755
     15 C          14.1959   87.0488   18.6402 C.ar    1  UNL1        0.1388
     16 C          14.1716   87.8832   17.5212 C.ar    1  UNL1        0.0382
     17 C          14.4249   87.3726   16.2484 C.ar    1  UNL1        0.0174
     18 C          14.7138   86.0126   16.0673 C.ar    1  UNL1        0.0480
     19 N          15.0397   85.5468   14.7503 N.pl3   1  UNL1       -0.3568
     20 C          14.7277   85.1494   17.1908 C.ar    1  UNL1        0.0913
     21 C          14.4809   85.6810   18.4693 C.ar    1  UNL1        0.0446
     22 H          15.4772   84.6150   14.5835 H       1  UNL1        0.1424
     23 H          14.9406   86.1807   13.9261 H       1  UNL1        0.1424
     24 C          14.9502   83.6914   17.0613 C.2     1  UNL1        0.3393
     25 O          14.6863   83.1043   15.9788 O.2     1  UNL1       -0.2450
     26 O          15.4124   82.9404   18.1399 O.3     1  UNL1       -0.4771
     27 H          15.6730   83.3741   19.0173 H       1  UNL1        0.2954
     28 C          11.1365   78.8102   26.1682 C.2     1  UNL1        0.2839
     29 O          12.1912   78.4358   25.5893 O.2     1  UNL1       -0.2665
     30 N          10.7687   80.2007   26.1865 N.am    1  UNL1       -0.2766
     31 H           9.8883   80.4813   26.6707 H       1  UNL1        0.1553
     32 C           7.9706   78.3123   25.7066 C.3     1  UNL1        0.0345
     33 C           8.9200   77.5582   26.5876 C.ar    1  UNL1        0.0202
     34 C          10.2851   77.7876   26.8003 C.ar    1  UNL1        0.1946
     35 O          10.7497   76.9422   27.7035 O.2     1  UNL1       -0.4492
     36 C           9.7631   76.1606   28.0689 C.ar    1  UNL1        0.1452
     37 C           9.8035   75.1237   28.9946 C.ar    1  UNL1        0.0375
     38 C           8.6166   74.4107   29.2389 C.ar    1  UNL1        0.0031
     39 C           7.4135   74.7430   28.5587 C.ar    1  UNL1        0.0002
     40 C           7.4162   75.8066   27.6246 C.ar    1  UNL1        0.0028
     41 C           8.6123   76.4904   27.4064 C.ar    1  UNL1        0.0337
     42 C           6.1659   73.9830   28.8248 C.ar    1  UNL1        0.0000
     43 C           5.3147   74.3521   29.8838 C.ar    1  UNL1        0.0000
     44 C           4.1400   73.6352   30.1313 C.ar    1  UNL1        0.0000
     45 C           3.8021   72.5441   29.3276 C.ar    1  UNL1        0.0000
     46 C           4.6381   72.1678   28.2741 C.ar    1  UNL1        0.0000
     47 C           5.8136   72.8816   28.0214 C.ar    1  UNL1        0.0000
@<TRIPOS>BOND
     1    32    33    1
     2    33    34   ar
     3    34    28    1
     4    28    29    2
     5    28    30   am
     6    30     1    1
     7     1     2   ar
     8     2     3   ar
     9     3     4   ar
    10     4     7    1
    11     7     8    1
    12     8     9    1
    13     9    10    1
    14    10    13    1
    15    13    14    1
    16    14    15    1
    17    15    16   ar
    18    16    17   ar
    19    17    18   ar
    20    18    19    1
    21    18    20   ar
    22    20    24    1
    23    24    25    2
    24    24    26    1
    25    20    21   ar
    26    10    11    1
    27    11    12    1
    28     4     5   ar
    29     5     6   ar
    30    34    35   ar
    31    35    36   ar
    32    36    37   ar
    33    37    38   ar
    34    38    39   ar
    35    39    42    1
    36    42    43   ar
    37    43    44   ar
    38    44    45   ar
    39    45    46   ar
    40    46    47   ar
    41    39    40   ar
    42    40    41   ar
    43    41    33   ar
    44     6     1   ar
    45    41    36   ar
    46    12     7    1
    47    47    42   ar
    48    21    15   ar
    49    30    31    1
    50    19    22    1
    51    19    23    1
    52    26    27    1
@<TRIPOS>MOLECULE
*****
 47 52 0 0 0
SMALL
GASTEIGER

@<TRIPOS>ATOM
      1 C          11.5575   80.8191   25.4244 C.ar    1  UNL1        0.0702
      2 C          12.9491   80.6704   25.3219 C.ar    1  UNL1        0.0191
      3 C          13.7400   81.7453   24.9127 C.ar    1  UNL1        0.0356
      4 C          13.1319   82.9662   24.5798 C.ar    1  UNL1        0.1318
      5 N          11.7786   83.0832   24.6793 N.ar    1  UNL1       -0.2279
      6 C          10.9892   82.0503   25.0758 C.ar    1  UNL1        0.1149
      7 N          13.9165   84.1040   24.1751 N.pl3   1  UNL1       -0.2932
      8 C          13.9275   85.3478   24.9580 C.3     1  UNL1        0.0923
      9 C          13.6812   86.5656   24.0513 C.3     1  UNL1        0.0252
     10 C          14.2486   86.3912   22.6158 C.3     1  UNL1        0.0472
     11 C          15.3684   85.3353   22.5741 C.3     1  UNL1        0.0252
     12 C          14.8251   83.9711   23.0264 C.3     1  UNL1        0.0923
     13 C          14.7468   87.7314   22.0422 C.3     1  UNL1        0.2054
     14 O          14.6311   87.7558   20.6183 O.3     1  UNL1       -0.4755
     15 C          14.4080   86.6394   19.7951 C.ar    1  UNL1        0.1388
     16 C          13.0900   86.3285   19.4559 C.ar    1  UNL1        0.0382
     17 C          12.8056   85.2332   18.6407 C.ar    1  UNL1        0.0174
     18 C          13.8372   84.4254   18.1418 C.ar    1  UNL1        0.0480
     19 N          13.5026   83.3542   17.2483 N.pl3   1  UNL1       -0.3568
     20 C          15.1792   84.7185   18.4888 C.ar    1  UNL1        0.0913
     21 C          15.4512   85.8327   19.3029 C.ar    1  UNL1        0.0446
     22 H          14.2224   82.8664   16.6725 H       1  UNL1        0.1424
     23 H          12.5037   83.1038   17.0740 H       1  UNL1        0.1424
     24 C          16.3088   83.8631   18.0593 C.2     1  UNL1        0.3393
     25 O          16.5694   82.7992   18.6807 O.2     1  UNL1       -0.2450
     26 O          17.1243   84.2381   16.9937 O.3     1  UNL1       -0.4771
     27 H          16.9313   85.0649   16.4414 H       1  UNL1        0.2954
     28 C           9.6192   79.2284   25.0173 C.2     1  UNL1        0.2839
     29 O           9.3144   79.7872   23.9300 O.2     1  UNL1       -0.2665
     30 N          10.7046   79.7309   25.8166 N.am    1  UNL1       -0.2766
     31 H          10.9325   79.2500   26.7137 H       1  UNL1        0.1553
     32 C           7.9864   78.8851   27.7922 C.3     1  UNL1        0.0345
     33 C           8.1002   77.9262   26.6461 C.ar    1  UNL1        0.0202
     34 C           8.8228   78.0689   25.4550 C.ar    1  UNL1        0.1946
     35 O           8.7193   76.9693   24.7295 O.2     1  UNL1       -0.4492
     36 C           7.9470   76.1310   25.3764 C.ar    1  UNL1        0.1452
     37 C           7.5640   74.8546   24.9791 C.ar    1  UNL1        0.0375
     38 C           6.7253   74.1206   25.8363 C.ar    1  UNL1        0.0031
     39 C           6.2850   74.6697   27.0713 C.ar    1  UNL1        0.0002
     40 C           6.6994   75.9727   27.4377 C.ar    1  UNL1        0.0028
     41 C           7.5297   76.6721   26.5618 C.ar    1  UNL1        0.0337
     42 C           5.3994   73.8852   27.9687 C.ar    1  UNL1        0.0000
     43 C           5.2120   72.5052   27.7621 C.ar    1  UNL1        0.0000
     44 C           4.3784   71.7688   28.6095 C.ar    1  UNL1        0.0000
     45 C           3.7233   72.3992   29.6696 C.ar    1  UNL1        0.0000
     46 C           3.9007   73.7677   29.8850 C.ar    1  UNL1        0.0000
     47 C           4.7339   74.5088   29.0414 C.ar    1  UNL1        0.0000
@<TRIPOS>BOND
     1    32    33    1
     2    33    34   ar
     3    34    28    1
     4    28    29    2
     5    28    30   am
     6    30     1    1
     7     1     2   ar
     8     2     3   ar
     9     3     4   ar
    10     4     7    1
    11     7     8    1
    12     8     9    1
    13     9    10    1
    14    10    13    1
    15    13    14    1
    16    14    15    1
    17    15    16   ar
    18    16    17   ar
    19    17    18   ar
    20    18    19    1
    21    18    20   ar
    22    20    24    1
    23    24    25    2
    24    24    26    1
    25    20    21   ar
    26    10    11    1
    27    11    12    1
    28     4     5   ar
    29     5     6   ar
    30    34    35   ar
    31    35    36   ar
    32    36    37   ar
    33    37    38   ar
    34    38    39   ar
    35    39    42    1
    36    42    43   ar
    37    43    44   ar
    38    44    45   ar
    39    45    46   ar
    40    46    47   ar
    41    39    40   ar
    42    40    41   ar
    43    41    33   ar
    44     6     1   ar
    45    41    36   ar
    46    12     7    1
    47    47    42   ar
    48    21    15   ar
    49    30    31    1
    50    19    22    1
    51    19    23    1
    52    26    27    1
@<TRIPOS>MOLECULE
*****
 47 52 0 0 0
SMALL
GASTEIGER

@<TRIPOS>ATOM
      1 C          11.6604   81.3479   25.8773 C.ar    1  UNL1        0.0702
      2 C          12.5854   82.0273   26.6848 C.ar    1  UNL1        0.0191
      3 C          13.3778   83.0401   26.1421 C.ar    1  UNL1        0.0356
      4 C          13.2617   83.3559   24.7790 C.ar    1  UNL1        0.1318
      5 N          12.3626   82.6766   24.0140 N.ar    1  UNL1       -0.2279
      6 C          11.5807   81.6873   24.5212 C.ar    1  UNL1        0.1149
      7 N          14.0460   84.4094   24.1884 N.pl3   1  UNL1       -0.2932
      8 C          14.1995   85.7147   24.8462 C.3     1  UNL1        0.0923
      9 C          13.9078   86.8598   23.8616 C.3     1  UNL1        0.0252
     10 C          14.3032   86.5295   22.3961 C.3     1  UNL1        0.0472
     11 C          15.3634   85.4147   22.3333 C.3     1  UNL1        0.0252
     12 C          14.8139   84.1271   22.9664 C.3     1  UNL1        0.0923
     13 C          14.7933   87.7852   21.6501 C.3     1  UNL1        0.2054
     14 O          14.5851   87.6604   20.2420 O.3     1  UNL1       -0.4755
     15 C          14.3947   86.4553   19.5455 C.ar    1  UNL1        0.1388
     16 C          13.1063   86.1516   19.1018 C.ar    1  UNL1        0.0382
     17 C          12.8552   84.9707   18.4037 C.ar    1  UNL1        0.0174
     18 C          13.8917   84.0673   18.1292 C.ar    1  UNL1        0.0480
     19 N          13.6004   82.9019   17.3452 N.pl3   1  UNL1       -0.3568
     20 C          15.2021   84.3535   18.5855 C.ar    1  UNL1        0.0913
     21 C          15.4420   85.5534   19.2789 C.ar    1  UNL1        0.0446
     22 H          14.3517   82.3171   16.9198 H       1  UNL1        0.1424
     23 H          12.6143   82.6680   17.0924 H       1  UNL1        0.1424
     24 C          16.3261   83.4084   18.3966 C.2     1  UNL1        0.3393
     25 O          17.3999   83.7994   17.8673 O.2     1  UNL1       -0.2450
     26 O          16.2023   82.0690   18.7595 O.3     1  UNL1       -0.4771
     27 H          15.3725   81.7177   19.2220 H       1  UNL1        0.2954
     28 C          11.1725   78.8863   26.2716 C.2     1  UNL1        0.2839
     29 O          12.1930   78.5224   25.6283 O.2     1  UNL1       -0.2665
     30 N          10.8441   80.2818   26.3898 N.am    1  UNL1       -0.2766
     31 H           9.9916   80.5538   26.9258 H       1  UNL1        0.1553
     32 C           8.0290   78.3437   25.7170 C.3     1  UNL1        0.0345
     33 C           8.9640   77.5995   26.6215 C.ar    1  UNL1        0.0202
     34 C          10.3188   77.8481   26.8744 C.ar    1  UNL1        0.1946
     35 O          10.7699   77.0053   27.7868 O.2     1  UNL1       -0.4492
     36 C           9.7851   76.2074   28.1202 C.ar    1  UNL1        0.1452
     37 C           9.8146   75.1667   29.0420 C.ar    1  UNL1        0.0375
     38 C           8.6319   74.4348   29.2489 C.ar    1  UNL1        0.0031
     39 C           7.4440   74.7526   28.5359 C.ar    1  UNL1        0.0002
     40 C           7.4575   75.8207   27.6070 C.ar    1  UNL1        0.0028
     41 C           8.6490   76.5232   27.4263 C.ar    1  UNL1        0.0337
     42 C           6.2008   73.9728   28.7627 C.ar    1  UNL1        0.0000
     43 C           5.3285   74.3064   29.8163 C.ar    1  UNL1        0.0000
     44 C           4.1580   73.5710   30.0267 C.ar    1  UNL1        0.0000
     45 C           3.8454   72.4966   29.1910 C.ar    1  UNL1        0.0000
     46 C           4.7025   72.1554   28.1425 C.ar    1  UNL1        0.0000
     47 C           5.8739   72.8880   27.9268 C.ar    1  UNL1        0.0000
@<TRIPOS>BOND
     1    32    33    1
     2    33    34   ar
     3    34    28    1
     4    28    29    2
     5    28    30   am
     6    30     1    1
     7     1     2   ar
     8     2     3   ar
     9     3     4   ar
    10     4     7    1
    11     7     8    1
    12     8     9    1
    13     9    10    1
    14    10    13    1
    15    13    14    1
    16    14    15    1
    17    15    16   ar
    18    16    17   ar
    19    17    18   ar
    20    18    19    1
    21    18    20   ar
    22    20    24    1
    23    24    25    2
    24    24    26    1
    25    20    21   ar
    26    10    11    1
    27    11    12    1
    28     4     5   ar
    29     5     6   ar
    30    34    35   ar
    31    35    36   ar
    32    36    37   ar
    33    37    38   ar
    34    38    39   ar
    35    39    42    1
    36    42    43   ar
    37    43    44   ar
    38    44    45   ar
    39    45    46   ar
    40    46    47   ar
    41    39    40   ar
    42    40    41   ar
    43    41    33   ar
    44     6     1   ar
    45    41    36   ar
    46    12     7    1
    47    47    42   ar
    48    21    15   ar
    49    30    31    1
    50    19    22    1
    51    19    23    1
    52    26    27    1
@<TRIPOS>MOLECULE
*****
 47 52 0 0 0
SMALL
GASTEIGER

@<TRIPOS>ATOM
      1 C          11.6599   81.3773   25.6636 C.ar    1  UNL1        0.0702
      2 C          12.5220   82.1340   26.4720 C.ar    1  UNL1        0.0191
      3 C          13.3089   83.1393   25.9074 C.ar    1  UNL1        0.0356
      4 C          13.2513   83.3699   24.5237 C.ar    1  UNL1        0.1318
      5 N          12.4128   82.6166   23.7590 N.ar    1  UNL1       -0.2279
      6 C          11.6375   81.6331   24.2873 C.ar    1  UNL1        0.1149
      7 N          14.0312   84.4126   23.9086 N.pl3   1  UNL1       -0.2932
      8 C          14.1841   85.7316   24.5387 C.3     1  UNL1        0.0923
      9 C          13.8864   86.8554   23.5316 C.3     1  UNL1        0.0252
     10 C          14.2772   86.4957   22.0719 C.3     1  UNL1        0.0472
     11 C          15.3397   85.3821   22.0283 C.3     1  UNL1        0.0252
     12 C          14.7953   84.1067   22.6898 C.3     1  UNL1        0.0923
     13 C          14.7619   87.7367   21.2982 C.3     1  UNL1        0.2054
     14 O          13.6733   88.6113   20.9958 O.3     1  UNL1       -0.4755
     15 C          13.1089   88.8079   19.7245 C.ar    1  UNL1        0.1388
     16 C          11.7315   89.0212   19.6451 C.ar    1  UNL1        0.0382
     17 C          11.1139   89.2238   18.4112 C.ar    1  UNL1        0.0174
     18 C          11.8638   89.2222   17.2266 C.ar    1  UNL1        0.0480
     19 N          11.1973   89.5075   15.9888 N.pl3   1  UNL1       -0.3568
     20 C          13.2605   88.9924   17.2885 C.ar    1  UNL1        0.0913
     21 C          13.8708   88.8003   18.5410 C.ar    1  UNL1        0.0446
     22 H          11.7207   89.7423   15.1179 H       1  UNL1        0.1424
     23 H          10.1566   89.5895   15.9557 H       1  UNL1        0.1424
     24 C          14.0988   88.9024   16.0714 C.2     1  UNL1        0.3393
     25 O          13.6267   88.4106   15.0125 O.2     1  UNL1       -0.2450
     26 O          15.4284   89.3182   16.0870 O.3     1  UNL1       -0.4771
     27 H          15.8399   89.7538   16.9036 H       1  UNL1        0.2954
     28 C          11.2515   78.9346   26.2288 C.2     1  UNL1        0.2839
     29 O          12.3369   78.5720   25.7015 O.2     1  UNL1       -0.2665
     30 N          10.8525   80.3163   26.2002 N.am    1  UNL1       -0.2766
     31 H           9.9471   80.5872   26.6419 H       1  UNL1        0.1553
     32 C           8.0708   78.4922   25.8152 C.3     1  UNL1        0.0345
     33 C           9.0260   77.7018   26.6572 C.ar    1  UNL1        0.0202
     34 C          10.3980   77.9069   26.8496 C.ar    1  UNL1        0.1946
     35 O          10.8677   77.0312   27.7207 O.2     1  UNL1       -0.4492
     36 C           9.8774   76.2534   28.0839 C.ar    1  UNL1        0.1452
     37 C           9.9208   75.1914   28.9806 C.ar    1  UNL1        0.0375
     38 C           8.7288   74.4880   29.2286 C.ar    1  UNL1        0.0031
     39 C           7.5178   74.8549   28.5809 C.ar    1  UNL1        0.0002
     40 C           7.5177   75.9432   27.6757 C.ar    1  UNL1        0.0028
     41 C           8.7189   76.6164   27.4528 C.ar    1  UNL1        0.0337
     42 C           6.2649   74.1048   28.8506 C.ar    1  UNL1        0.0000
     43 C           5.8785   73.0346   28.0215 C.ar    1  UNL1        0.0000
     44 C           4.6988   72.3294   28.2787 C.ar    1  UNL1        0.0000
     45 C           3.8926   72.6835   29.3628 C.ar    1  UNL1        0.0000
     46 C           4.2647   73.7434   30.1927 C.ar    1  UNL1        0.0000
     47 C           5.4439   74.4514   29.9408 C.ar    1  UNL1        0.0000
@<TRIPOS>BOND
     1    32    33    1
     2    33    34   ar
     3    34    28    1
     4    28    29    2
     5    28    30   am
     6    30     1    1
     7     1     2   ar
     8     2     3   ar
     9     3     4   ar
    10     4     7    1
    11     7     8    1
    12     8     9    1
    13     9    10    1
    14    10    13    1
    15    13    14    1
    16    14    15    1
    17    15    16   ar
    18    16    17   ar
    19    17    18   ar
    20    18    19    1
    21    18    20   ar
    22    20    24    1
    23    24    25    2
    24    24    26    1
    25    20    21   ar
    26    10    11    1
    27    11    12    1
    28     4     5   ar
    29     5     6   ar
    30    34    35   ar
    31    35    36   ar
    32    36    37   ar
    33    37    38   ar
    34    38    39   ar
    35    39    42    1
    36    42    43   ar
    37    43    44   ar
    38    44    45   ar
    39    45    46   ar
    40    46    47   ar
    41    39    40   ar
    42    40    41   ar
    43    41    33   ar
    44     6     1   ar
    45    41    36   ar
    46    12     7    1
    47    47    42   ar
    48    21    15   ar
    49    30    31    1
    50    19    22    1
    51    19    23    1
    52    26    27    1
@<TRIPOS>MOLECULE
*****
 47 52 0 0 0
SMALL
GASTEIGER

@<TRIPOS>ATOM
      1 C          10.1285   79.8844   24.1285 C.ar    1  UNL1        0.0702
      2 C           9.5956   79.6805   22.8464 C.ar    1  UNL1        0.0191
      3 C           8.9690   78.4734   22.5323 C.ar    1  UNL1        0.0356
      4 C           8.8989   77.4568   23.4981 C.ar    1  UNL1        0.1318
      5 N           9.4308   77.6757   24.7328 N.ar    1  UNL1       -0.2279
      6 C          10.0450   78.8429   25.0606 C.ar    1  UNL1        0.1149
      7 N           8.2407   76.2068   23.2184 N.pl3   1  UNL1       -0.2932
      8 C           8.6410   75.3648   22.0823 C.3     1  UNL1        0.0923
      9 C           7.4147   74.9489   21.2523 C.3     1  UNL1        0.0252
     10 C           6.1250   74.7759   22.1007 C.3     1  UNL1        0.0472
     11 C           6.4527   74.5163   23.5826 C.3     1  UNL1        0.0252
     12 C           7.2354   75.7028   24.1660 C.3     1  UNL1        0.0923
     13 C           5.2300   73.6543   21.5399 C.3     1  UNL1        0.2054
     14 O           3.9983   74.1802   21.0420 O.3     1  UNL1       -0.4755
     15 C           3.5086   75.4768   21.2714 C.ar    1  UNL1        0.1388
     16 C           3.4515   76.3565   20.1890 C.ar    1  UNL1        0.0382
     17 C           2.9735   77.6562   20.3542 C.ar    1  UNL1        0.0174
     18 C           2.5364   78.1039   21.6089 C.ar    1  UNL1        0.0480
     19 N           1.9847   79.4239   21.7157 N.pl3   1  UNL1       -0.3568
     20 C           2.6016   77.2283   22.7208 C.ar    1  UNL1        0.0913
     21 C           3.0760   75.9171   22.5364 C.ar    1  UNL1        0.0446
     22 H           1.4431   79.7331   22.5514 H       1  UNL1        0.1424
     23 H           2.0245   80.0804   20.9044 H       1  UNL1        0.1424
     24 C           2.2281   77.6603   24.0868 C.2     1  UNL1        0.3393
     25 O           2.3312   78.8708   24.4184 O.2     1  UNL1       -0.2450
     26 O           1.7988   76.7356   25.0364 O.3     1  UNL1       -0.4771
     27 H           1.6649   75.7587   24.8051 H       1  UNL1        0.2954
     28 C          12.2348   81.2492   24.5207 C.2     1  UNL1        0.2839
     29 O          12.9847   80.2608   24.3007 O.2     1  UNL1       -0.2665
     30 N          10.8043   81.1016   24.4850 N.am    1  UNL1       -0.2766
     31 H          10.2082   81.9364   24.6742 H       1  UNL1        0.1553
     32 C          12.9861   82.4213   27.4440 C.3     1  UNL1        0.0345
     33 C          13.2036   83.0455   26.0990 C.ar    1  UNL1        0.0202
     34 C          12.8603   82.5449   24.8369 C.ar    1  UNL1        0.1946
     35 O          13.1621   83.4296   23.9028 O.2     1  UNL1       -0.4492
     36 C          13.7060   84.4668   24.4910 C.ar    1  UNL1        0.1452
     37 C          14.1783   85.6287   23.8904 C.ar    1  UNL1        0.0375
     38 C          14.7253   86.6244   24.7189 C.ar    1  UNL1        0.0031
     39 C          14.7912   86.4453   26.1275 C.ar    1  UNL1        0.0002
     40 C          14.2981   85.2473   26.6980 C.ar    1  UNL1        0.0028
     41 C          13.7642   84.2811   25.8453 C.ar    1  UNL1        0.0337
     42 C          15.3709   87.5038   26.9927 C.ar    1  UNL1        0.0000
     43 C          14.7764   87.8242   28.2280 C.ar    1  UNL1        0.0000
     44 C          15.3253   88.8206   29.0411 C.ar    1  UNL1        0.0000
     45 C          16.4703   89.5077   28.6318 C.ar    1  UNL1        0.0000
     46 C          17.0693   89.1994   27.4085 C.ar    1  UNL1        0.0000
     47 C          16.5253   88.2032   26.5918 C.ar    1  UNL1        0.0000
@<TRIPOS>BOND
     1    32    33    1
     2    33    34   ar
     3    34    28    1
     4    28    29    2
     5    28    30   am
     6    30     1    1
     7     1     2   ar
     8     2     3   ar
     9     3     4   ar
    10     4     7    1
    11     7     8    1
    12     8     9    1
    13     9    10    1
    14    10    13    1
    15    13    14    1
    16    14    15    1
    17    15    16   ar
    18    16    17   ar
    19    17    18   ar
    20    18    19    1
    21    18    20   ar
    22    20    24    1
    23    24    25    2
    24    24    26    1
    25    20    21   ar
    26    10    11    1
    27    11    12    1
    28     4     5   ar
    29     5     6   ar
    30    34    35   ar
    31    35    36   ar
    32    36    37   ar
    33    37    38   ar
    34    38    39   ar
    35    39    42    1
    36    42    43   ar
    37    43    44   ar
    38    44    45   ar
    39    45    46   ar
    40    46    47   ar
    41    39    40   ar
    42    40    41   ar
    43    41    33   ar
    44     6     1   ar
    45    41    36   ar
    46    12     7    1
    47    47    42   ar
    48    21    15   ar
    49    30    31    1
    50    19    22    1
    51    19    23    1
    52    26    27    1
@<TRIPOS>MOLECULE
*****
 47 52 0 0 0
SMALL
GASTEIGER

@<TRIPOS>ATOM
      1 C          10.8387   81.3155   24.7477 C.ar    1  UNL1        0.0702
      2 C          10.6025   80.9382   26.0785 C.ar    1  UNL1        0.0191
      3 C           9.8071   79.8263   26.3605 C.ar    1  UNL1        0.0356
      4 C           9.2248   79.1051   25.3060 C.ar    1  UNL1        0.1318
      5 N           9.4622   79.4961   24.0231 N.ar    1  UNL1       -0.2279
      6 C          10.2334   80.5749   23.7252 C.ar    1  UNL1        0.1149
      7 N           8.4168   77.9397   25.5567 N.pl3   1  UNL1       -0.2932
      8 C           8.2490   76.8883   24.5436 C.3     1  UNL1        0.0923
      9 C           6.7620   76.5414   24.3580 C.3     1  UNL1        0.0252
     10 C           5.9265   76.6904   25.6590 C.3     1  UNL1        0.0472
     11 C           6.8140   76.6075   26.9145 C.3     1  UNL1        0.0252
     12 C           7.8552   77.7373   26.9007 C.3     1  UNL1        0.0923
     13 C           4.7975   75.6441   25.7243 C.3     1  UNL1        0.2054
     14 O           3.5138   76.2690   25.6696 O.3     1  UNL1       -0.4755
     15 C           2.9806   76.9502   24.5627 C.ar    1  UNL1        0.1388
     16 C           2.3412   78.1702   24.7900 C.ar    1  UNL1        0.0382
     17 C           1.7932   78.8933   23.7309 C.ar    1  UNL1        0.0174
     18 C           1.8774   78.4125   22.4166 C.ar    1  UNL1        0.0480
     19 N           1.3644   79.2251   21.3514 N.pl3   1  UNL1       -0.3568
     20 C           2.5100   77.1689   22.1706 C.ar    1  UNL1        0.0913
     21 C           3.0673   76.4561   23.2475 C.ar    1  UNL1        0.0446
     22 H           1.5926   79.0378   20.3512 H       1  UNL1        0.1424
     23 H           0.8279   80.0960   21.5625 H       1  UNL1        0.1424
     24 C           2.5667   76.5675   20.8188 C.2     1  UNL1        0.3393
     25 O           1.5060   76.3661   20.1705 O.2     1  UNL1       -0.2450
     26 O           3.7821   76.1775   20.2606 O.3     1  UNL1       -0.4771
     27 H           4.6631   76.3533   20.7283 H       1  UNL1        0.2954
     28 C          12.8398   82.8409   25.0973 C.2     1  UNL1        0.2839
     29 O          13.2350   82.1874   26.0995 O.2     1  UNL1       -0.2665
     30 N          11.6297   82.4682   24.4144 N.am    1  UNL1       -0.2766
     31 H          11.3251   83.0293   23.5895 H       1  UNL1        0.1553
     32 C          15.2613   82.8897   22.9484 C.3     1  UNL1        0.0345
     33 C          14.6684   84.0299   23.7195 C.ar    1  UNL1        0.0202
     34 C          13.6337   84.0032   24.6629 C.ar    1  UNL1        0.1946
     35 O          13.4501   85.2113   25.1660 O.2     1  UNL1       -0.4492
     36 C          14.2946   86.0244   24.5801 C.ar    1  UNL1        0.1452
     37 C          14.4456   87.3892   24.7995 C.ar    1  UNL1        0.0375
     38 C          15.4243   88.0727   24.0564 C.ar    1  UNL1        0.0031
     39 C          16.2333   87.3856   23.1109 C.ar    1  UNL1        0.0002
     40 C          16.0471   85.9955   22.9192 C.ar    1  UNL1        0.0028
     41 C          15.0658   85.3510   23.6724 C.ar    1  UNL1        0.0337
     42 C          17.2639   88.1178   22.3318 C.ar    1  UNL1        0.0000
     43 C          16.9958   88.5507   21.0193 C.ar    1  UNL1        0.0000
     44 C          17.9678   89.2410   20.2885 C.ar    1  UNL1        0.0000
     45 C          19.2156   89.5059   20.8571 C.ar    1  UNL1        0.0000
     46 C          19.4940   89.0815   22.1582 C.ar    1  UNL1        0.0000
     47 C          18.5254   88.3917   22.8939 C.ar    1  UNL1        0.0000
@<TRIPOS>BOND
     1    32    33    1
     2    33    34   ar
     3    34    28    1
     4    28    29    2
     5    28    30   am
     6    30     1    1
     7     1     2   ar
     8     2     3   ar
     9     3     4   ar
    10     4     7    1
    11     7     8    1
    12     8     9    1
    13     9    10    1
    14    10    13    1
    15    13    14    1
    16    14    15    1
    17    15    16   ar
    18    16    17   ar
    19    17    18   ar
    20    18    19    1
    21    18    20   ar
    22    20    24    1
    23    24    25    2
    24    24    26    1
    25    20    21   ar
    26    10    11    1
    27    11    12    1
    28     4     5   ar
    29     5     6   ar
    30    34    35   ar
    31    35    36   ar
    32    36    37   ar
    33    37    38   ar
    34    38    39   ar
    35    39    42    1
    36    42    43   ar
    37    43    44   ar
    38    44    45   ar
    39    45    46   ar
    40    46    47   ar
    41    39    40   ar
    42    40    41   ar
    43    41    33   ar
    44     6     1   ar
    45    41    36   ar
    46    12     7    1
    47    47    42   ar
    48    21    15   ar
    49    30    31    1
    50    19    22    1
    51    19    23    1
    52    26    27    1
@<TRIPOS>MOLECULE
*****
 47 52 0 0 0
SMALL
GASTEIGER

@<TRIPOS>ATOM
      1 C          11.4347   80.8106   24.2385 C.ar    1  UNL1        0.0702
      2 C          10.0793   80.6940   23.8941 C.ar    1  UNL1        0.0191
      3 C           9.3829   79.5184   24.1793 C.ar    1  UNL1        0.0356
      4 C          10.0535   78.4458   24.7883 C.ar    1  UNL1        0.1318
      5 N          11.3713   78.5802   25.1054 N.ar    1  UNL1       -0.2279
      6 C          12.0689   79.7154   24.8375 C.ar    1  UNL1        0.1149
      7 N           9.3632   77.2258   25.1182 N.pl3   1  UNL1       -0.2932
      8 C           9.9904   75.9109   24.9237 C.3     1  UNL1        0.0923
      9 C           9.0459   74.9624   24.1659 C.3     1  UNL1        0.0252
     10 C           7.5435   75.2159   24.4683 C.3     1  UNL1        0.0472
     11 C           7.3510   75.9394   25.8137 C.3     1  UNL1        0.0252
     12 C           8.0545   77.3050   25.7845 C.3     1  UNL1        0.0923
     13 C           6.7356   73.9045   24.4385 C.3     1  UNL1        0.2054
     14 O           6.7745   73.3062   23.1415 O.3     1  UNL1       -0.4755
     15 C           6.0993   73.7750   22.0023 C.ar    1  UNL1        0.1388
     16 C           6.5975   73.4118   20.7497 C.ar    1  UNL1        0.0382
     17 C           5.9695   73.8452   19.5824 C.ar    1  UNL1        0.0174
     18 C           4.8230   74.6499   19.6429 C.ar    1  UNL1        0.0480
     19 N           4.1689   75.0107   18.4182 N.pl3   1  UNL1       -0.3568
     20 C           4.3132   75.0396   20.9061 C.ar    1  UNL1        0.0913
     21 C           4.9511   74.5859   22.0746 C.ar    1  UNL1        0.0446
     22 H           3.2048   75.4078   18.3999 H       1  UNL1        0.1424
     23 H           4.6083   74.7846   17.4980 H       1  UNL1        0.1424
     24 C           3.1527   75.9492   21.0408 C.2     1  UNL1        0.3393
     25 O           3.2491   77.1548   20.6899 O.2     1  UNL1       -0.2450
     26 O           1.9545   75.5018   21.5934 O.3     1  UNL1       -0.4771
     27 H           1.8184   74.5329   21.8550 H       1  UNL1        0.2954
     28 C          12.8341   82.8136   24.9331 C.2     1  UNL1        0.2839
     29 O          12.6907   82.5608   26.1591 O.2     1  UNL1       -0.2665
     30 N          12.1950   81.9929   23.9394 N.am    1  UNL1       -0.2766
     31 H          12.3289   82.2278   22.9320 H       1  UNL1        0.1553
     32 C          15.3712   82.8775   22.9224 C.3     1  UNL1        0.0345
     33 C          14.7349   84.0126   23.6659 C.ar    1  UNL1        0.0202
     34 C          13.6494   83.9793   24.5502 C.ar    1  UNL1        0.1946
     35 O          13.4365   85.1842   25.0493 O.2     1  UNL1       -0.4492
     36 C          14.3111   86.0016   24.5158 C.ar    1  UNL1        0.1452
     37 C          14.4478   87.3653   24.7512 C.ar    1  UNL1        0.0375
     38 C          15.4653   88.0541   24.0676 C.ar    1  UNL1        0.0031
     39 C          16.3266   87.3734   23.1645 C.ar    1  UNL1        0.0002
     40 C          16.1532   85.9843   22.9548 C.ar    1  UNL1        0.0028
     41 C          15.1324   85.3343   23.6486 C.ar    1  UNL1        0.0337
     42 C          17.3978   88.1112   22.4481 C.ar    1  UNL1        0.0000
     43 C          18.6375   88.3553   23.0692 C.ar    1  UNL1        0.0000
     44 C          19.6448   89.0493   22.3916 C.ar    1  UNL1        0.0000
     45 C          19.4271   89.5073   21.0903 C.ar    1  UNL1        0.0000
     46 C          18.2016   89.2717   20.4633 C.ar    1  UNL1        0.0000
     47 C          17.1912   88.5774   21.1357 C.ar    1  UNL1        0.0000
@<TRIPOS>BOND
     1    32    33    1
     2    33    34   ar
     3    34    28    1
     4    28    29    2
     5    28    30   am
     6    30     1    1
     7     1     2   ar
     8     2     3   ar
     9     3     4   ar
    10     4     7    1
    11     7     8    1
    12     8     9    1
    13     9    10    1
    14    10    13    1
    15    13    14    1
    16    14    15    1
    17    15    16   ar
    18    16    17   ar
    19    17    18   ar
    20    18    19    1
    21    18    20   ar
    22    20    24    1
    23    24    25    2
    24    24    26    1
    25    20    21   ar
    26    10    11    1
    27    11    12    1
    28     4     5   ar
    29     5     6   ar
    30    34    35   ar
    31    35    36   ar
    32    36    37   ar
    33    37    38   ar
    34    38    39   ar
    35    39    42    1
    36    42    43   ar
    37    43    44   ar
    38    44    45   ar
    39    45    46   ar
    40    46    47   ar
    41    39    40   ar
    42    40    41   ar
    43    41    33   ar
    44     6     1   ar
    45    41    36   ar
    46    12     7    1
    47    47    42   ar
    48    21    15   ar
    49    30    31    1
    50    19    22    1
    51    19    23    1
    52    26    27    1
@<TRIPOS>MOLECULE
*****
 47 52 0 0 0
SMALL
GASTEIGER

@<TRIPOS>ATOM
      1 C          10.8128   79.9311   24.0019 C.ar    1  UNL1        0.0702
      2 C          11.1384   78.9087   24.9063 C.ar    1  UNL1        0.0191
      3 C          10.3039   77.7974   25.0371 C.ar    1  UNL1        0.0356
      4 C           9.1253   77.7224   24.2779 C.ar    1  UNL1        0.1318
      5 N           8.8268   78.7314   23.4130 N.ar    1  UNL1       -0.2279
      6 C           9.6247   79.8223   23.2692 C.ar    1  UNL1        0.1149
      7 N           8.2511   76.5816   24.3691 N.pl3   1  UNL1       -0.2932
      8 C           6.7955   76.7143   24.2159 C.3     1  UNL1        0.0923
      9 C           6.0587   76.0039   25.3640 C.3     1  UNL1        0.0252
     10 C           6.8052   74.7487   25.8933 C.3     1  UNL1        0.0472
     11 C           7.7806   74.1855   24.8435 C.3     1  UNL1        0.0252
     12 C           8.8406   75.2396   24.4884 C.3     1  UNL1        0.0923
     13 C           5.8171   73.6599   26.3531 C.3     1  UNL1        0.2054
     14 O           5.9745   73.3776   27.7449 O.3     1  UNL1       -0.4755
     15 C           6.0473   74.3336   28.7718 C.ar    1  UNL1        0.1388
     16 C           7.2505   74.4555   29.4692 C.ar    1  UNL1        0.0382
     17 C           7.3841   75.3875   30.4980 C.ar    1  UNL1        0.0174
     18 C           6.3150   76.2238   30.8494 C.ar    1  UNL1        0.0480
     19 N           6.5216   77.2168   31.8639 N.pl3   1  UNL1       -0.3568
     20 C           5.0824   76.1025   30.1614 C.ar    1  UNL1        0.0913
     21 C           4.9662   75.1654   29.1190 C.ar    1  UNL1        0.0446
     22 H           5.8554   78.0051   32.0128 H       1  UNL1        0.1424
     23 H           7.4084   77.2322   32.4154 H       1  UNL1        0.1424
     24 C           3.8915   76.9004   30.5320 C.2     1  UNL1        0.3393
     25 O           4.0286   78.0531   31.0201 O.2     1  UNL1       -0.2450
     26 O           2.6081   76.3778   30.3877 O.3     1  UNL1       -0.4771
     27 H           2.4471   75.4713   29.9656 H       1  UNL1        0.2954
     28 C          11.8485   82.0704   24.8983 C.2     1  UNL1        0.2839
     29 O          11.2536   81.9628   26.0038 O.2     1  UNL1       -0.2665
     30 N          11.6304   81.1039   23.8555 N.am    1  UNL1       -0.2766
     31 H          12.1341   81.2200   22.9494 H       1  UNL1        0.1553
     32 C          14.0036   83.2827   26.9888 C.3     1  UNL1        0.0345
     33 C          13.6949   83.7331   25.5930 C.ar    1  UNL1        0.0202
     34 C          12.7486   83.2191   24.6976 C.ar    1  UNL1        0.1946
     35 O          12.7396   83.9377   23.5886 O.2     1  UNL1       -0.4492
     36 C          13.6478   84.8749   23.7083 C.ar    1  UNL1        0.1452
     37 C          13.9822   85.8527   22.7778 C.ar    1  UNL1        0.0375
     38 C          14.9938   86.7683   23.1174 C.ar    1  UNL1        0.0031
     39 C          15.6519   86.6940   24.3752 C.ar    1  UNL1        0.0002
     40 C          15.2800   85.6832   25.2937 C.ar    1  UNL1        0.0028
     41 C          14.2739   84.7913   24.9220 C.ar    1  UNL1        0.0337
     42 C          16.7188   87.6665   24.7231 C.ar    1  UNL1        0.0000
     43 C          16.6775   88.3688   25.9425 C.ar    1  UNL1        0.0000
     44 C          17.6842   89.2832   26.2679 C.ar    1  UNL1        0.0000
     45 C          18.7406   89.5073   25.3823 C.ar    1  UNL1        0.0000
     46 C          18.7930   88.8170   24.1693 C.ar    1  UNL1        0.0000
     47 C          17.7896   87.9008   23.8392 C.ar    1  UNL1        0.0000
@<TRIPOS>BOND
     1    32    33    1
     2    33    34   ar
     3    34    28    1
     4    28    29    2
     5    28    30   am
     6    30     1    1
     7     1     2   ar
     8     2     3   ar
     9     3     4   ar
    10     4     7    1
    11     7     8    1
    12     8     9    1
    13     9    10    1
    14    10    13    1
    15    13    14    1
    16    14    15    1
    17    15    16   ar
    18    16    17   ar
    19    17    18   ar
    20    18    19    1
    21    18    20   ar
    22    20    24    1
    23    24    25    2
    24    24    26    1
    25    20    21   ar
    26    10    11    1
    27    11    12    1
    28     4     5   ar
    29     5     6   ar
    30    34    35   ar
    31    35    36   ar
    32    36    37   ar
    33    37    38   ar
    34    38    39   ar
    35    39    42    1
    36    42    43   ar
    37    43    44   ar
    38    44    45   ar
    39    45    46   ar
    40    46    47   ar
    41    39    40   ar
    42    40    41   ar
    43    41    33   ar
    44     6     1   ar
    45    41    36   ar
    46    12     7    1
    47    47    42   ar
    48    21    15   ar
    49    30    31    1
    50    19    22    1
    51    19    23    1
    52    26    27    1
