@<TRIPOS>MOLECULE
*****
 48 53 0 0 0
SMALL
GASTEIGER

@<TRIPOS>ATOM
      1 C          59.5916   87.5539    7.6542 C.2     1  UNL1        0.2839
      2 O          58.5168   87.2677    7.0623 O.2     1  UNL1       -0.2665
      3 N          60.4613   88.5747    7.1339 N.am    1  UNL1       -0.2766
      4 H          61.3472   88.7870    7.6422 H       1  UNL1        0.1553
      5 C          61.6369   85.0576    7.9181 C.3     1  UNL1        0.0345
      6 C          60.8106   85.7099    8.9848 C.ar    1  UNL1        0.0202
      7 C          59.9411   86.8020    8.8719 C.ar    1  UNL1        0.1946
      8 O          59.4523   87.1146   10.0592 O.2     1  UNL1       -0.4492
      9 C          59.9400   86.2667   10.9316 C.ar    1  UNL1        0.1452
     10 C          59.6894   86.2215   12.2986 C.ar    1  UNL1        0.0375
     11 C          60.3265   85.2211   13.0536 C.ar    1  UNL1        0.0031
     12 C          61.2003   84.2862   12.4346 C.ar    1  UNL1        0.0002
     13 C          61.4284   84.3686   11.0399 C.ar    1  UNL1        0.0028
     14 C          60.7778   85.3726   10.3227 C.ar    1  UNL1        0.0337
     15 C          61.8678   83.2340   13.2422 C.ar    1  UNL1        0.0000
     16 C          61.2442   81.9927   13.4556 C.ar    1  UNL1        0.0002
     17 C          61.8719   81.0019   14.2162 C.ar    1  UNL1        0.0064
     18 C          63.1368   81.2319   14.7847 C.ar    1  UNL1        0.0755
     19 C          63.7656   82.4688   14.5601 C.ar    1  UNL1        0.0064
     20 C          63.1368   83.4600   13.8015 C.ar    1  UNL1        0.0002
     21 C          63.8189   80.1892   15.5897 C.2     1  UNL1        0.3380
     22 O          64.2396   79.1424   15.0290 O.2     1  UNL1       -0.2451
     23 O          64.0262   80.3376   16.9608 O.3     1  UNL1       -0.4771
     24 H          63.8091   81.1923   17.4563 H       1  UNL1        0.2954
     25 C          60.1566   89.3847    5.9864 C.ar    1  UNL1        0.0702
     26 C          58.8439   89.7795    5.6859 C.ar    1  UNL1        0.0191
     27 C          58.5856   90.5423    4.5458 C.ar    1  UNL1        0.0356
     28 C          59.6457   90.9068    3.7006 C.ar    1  UNL1        0.1318
     29 N          60.9047   90.4756    3.9911 N.ar    1  UNL1       -0.2279
     30 C          61.1791   89.7313    5.0948 C.ar    1  UNL1        0.1149
     31 N          59.4147   91.6749    2.5044 N.pl3   1  UNL1       -0.2932
     32 C          59.9356   93.0479    2.4263 C.3     1  UNL1        0.0923
     33 C          59.8270   93.6145    1.0022 C.3     1  UNL1        0.0252
     34 C          60.2105   92.5358   -0.0273 C.3     1  UNL1        0.0472
     35 C          59.2709   91.3018    0.0608 C.3     1  UNL1        0.0252
     36 C          58.5623   91.1685    1.4194 C.3     1  UNL1        0.0923
     37 C          60.2284   93.1275   -1.4495 C.3     1  UNL1        0.2054
     38 O          61.5498   93.1193   -1.9931 O.3     1  UNL1       -0.4755
     39 C          62.6952   92.6208   -1.3507 C.ar    1  UNL1        0.1388
     40 C          63.6399   91.8058   -2.0016 C.ar    1  UNL1        0.0369
     41 C          64.7583   91.3382   -1.3097 C.ar    1  UNL1        0.0033
     42 C          64.9502   91.6760    0.0318 C.ar    1  UNL1        0.0066
     43 C          64.0208   92.4931    0.6989 C.ar    1  UNL1        0.0785
     44 C          62.8901   92.9497   -0.0034 C.ar    1  UNL1        0.0433
     45 C          64.2037   92.8572    2.1253 C.2     1  UNL1        0.3381
     46 O          64.9694   93.8087    2.4342 O.2     1  UNL1       -0.2451
     47 O          63.5602   92.1628    3.1494 O.3     1  UNL1       -0.4771
     48 H          63.0149   91.3272    2.9832 H       1  UNL1        0.2954
@<TRIPOS>BOND
     1     5     6    1
     2     6     7   ar
     3     7     1    1
     4     1     2    2
     5     1     3   am
     6     3    25    1
     7    25    26   ar
     8    26    27   ar
     9    27    28   ar
    10    28    31    1
    11    31    32    1
    12    32    33    1
    13    33    34    1
    14    34    37    1
    15    37    38    1
    16    38    39    1
    17    39    40   ar
    18    40    41   ar
    19    41    42   ar
    20    42    43   ar
    21    43    45    1
    22    45    46    2
    23    45    47    1
    24    43    44   ar
    25    34    35    1
    26    35    36    1
    27    28    29   ar
    28    29    30   ar
    29     7     8   ar
    30     8     9   ar
    31     9    10   ar
    32    10    11   ar
    33    11    12   ar
    34    12    15    1
    35    15    16   ar
    36    16    17   ar
    37    17    18   ar
    38    18    21    1
    39    21    22    2
    40    21    23    1
    41    18    19   ar
    42    19    20   ar
    43    12    13   ar
    44    13    14   ar
    45    14     6   ar
    46    30    25   ar
    47    14     9   ar
    48    36    31    1
    49    20    15   ar
    50    44    39   ar
    51     3     4    1
    52    47    48    1
    53    23    24    1
