@<TRIPOS>MOLECULE
*****
 40 44 0 0 0
SMALL
GASTEIGER

@<TRIPOS>ATOM
      1 C          -3.8672  -10.8704   29.5103 C.3     1  UNL1        0.0439
      2 C          -5.2125  -10.6682   28.8008 C.3     1  UNL1        0.1375
      3 C          -5.1288   -9.4913   27.8197 C.3     1  UNL1        0.0439
      4 C          -6.3745  -10.4684   29.8305 C.3     1  UNL1        0.0709
      5 C          -7.2579  -11.6240   29.5354 C.ar    1  UNL1        0.0325
      6 C          -6.7397  -12.3871   28.5185 C.ar    1  UNL1        0.1401
      7 C          -7.3848  -13.5619   28.0518 C.ar    1  UNL1        0.0889
      8 C          -8.5947  -13.9537   28.6894 C.ar    1  UNL1        0.0282
      9 C          -9.0904  -13.1504   29.7264 C.ar    1  UNL1        0.0997
     10 N         -10.2069  -13.3361   30.4527 N.ar    1  UNL1       -0.2137
     11 C         -10.1843  -12.2748   31.3062 C.ar    1  UNL1        0.1983
     12 N          -9.1223  -11.4491   31.1373 N.ar    1  UNL1       -0.3255
     13 C          -8.4438  -12.0203   30.1365 C.ar    1  UNL1        0.0755
     14 O          -5.5445  -11.8578   28.0772 O.3     1  UNL1       -0.4824
     15 H          -8.8897  -10.5773   31.6631 H       1  UNL1        0.1686
     16 C          -6.8164  -14.3775   26.9555 C.2     1  UNL1        0.2535
     17 O          -5.6934  -14.9301   27.1127 O.2     1  UNL1       -0.2697
     18 N          -7.5544  -14.5938   25.7419 N.am    1  UNL1       -0.2657
     19 H          -8.5979  -14.5965   25.7951 H       1  UNL1        0.1566
     20 C          -6.9538  -14.9613   24.4905 C.ar    1  UNL1        0.1344
     21 C          -7.6669  -15.6720   23.5119 C.ar    1  UNL1        0.0344
     22 C          -7.0310  -16.0309   22.3224 C.ar    1  UNL1        0.0083
     23 C          -5.6909  -15.6782   22.1027 C.ar    1  UNL1        0.0906
     24 C          -5.0019  -15.0089   23.1262 C.ar    1  UNL1        0.1041
     25 N          -5.6419  -14.6706   24.2768 N.ar    1  UNL1       -0.2291
     26 C          -4.9782  -16.1051   20.8450 C.3     1  UNL1        0.4200
     27 F          -5.4483  -17.3325   20.4108 F       1  UNL1       -0.1658
     28 F          -3.6236  -16.2062   21.1011 F       1  UNL1       -0.1658
     29 F          -5.1787  -15.1820   19.8333 F       1  UNL1       -0.1658
     30 N         -11.2024  -12.0323   32.2837 N.pl3   1  UNL1       -0.2827
     31 H         -11.7138  -11.1218   32.2524 H       1  UNL1        0.1551
     32 C         -11.6854  -13.0650   33.1542 C.ar    1  UNL1        0.0726
     33 C         -10.9695  -13.4163   34.3168 C.ar    1  UNL1        0.0720
     34 CL         -9.4990  -12.5688   34.7814 Cl      1  UNL1       -0.0809
     35 C         -11.4532  -14.4238   35.1565 C.ar    1  UNL1        0.0136
     36 C         -12.6482  -15.0779   34.8558 C.ar    1  UNL1        0.0132
     37 C         -13.3772  -14.7263   33.7163 C.ar    1  UNL1        0.0695
     38 CL        -14.8827  -15.5721   33.3813 Cl      1  UNL1       -0.0813
     39 C         -12.9016  -13.7141   32.8634 C.ar    1  UNL1        0.0824
     40 CL        -13.8072  -13.2792   31.4139 Cl      1  UNL1       -0.0800
@<TRIPOS>BOND
     1     1     2    1
     2     2     3    1
     3     2     4    1
     4     4     5    1
     5     5     6   ar
     6     6     7   ar
     7     7    16    1
     8    16    17    2
     9    16    18   am
    10    18    20    1
    11    20    21   ar
    12    21    22   ar
    13    22    23   ar
    14    23    26    1
    15    26    27    1
    16    26    28    1
    17    26    29    1
    18    23    24   ar
    19    24    25   ar
    20     7     8   ar
    21     8     9   ar
    22     9    10   ar
    23    10    11   ar
    24    11    30    1
    25    30    32    1
    26    32    33   ar
    27    33    34    1
    28    33    35   ar
    29    35    36   ar
    30    36    37   ar
    31    37    38    1
    32    37    39   ar
    33    39    40    1
    34    11    12   ar
    35    12    13   ar
    36     6    14    1
    37    14     2    1
    38    13     5   ar
    39    25    20   ar
    40    13     9   ar
    41    39    32   ar
    42    18    19    1
    43    30    31    1
    44    12    15    1
@<TRIPOS>MOLECULE
*****
 40 44 0 0 0
SMALL
GASTEIGER

@<TRIPOS>ATOM
      1 C          -4.7882   -8.4840   31.0074 C.3     1  UNL1        0.0439
      2 C          -6.1053   -8.6359   30.2350 C.3     1  UNL1        0.1375
      3 C          -6.3198   -7.4371   29.3016 C.3     1  UNL1        0.0439
      4 C          -7.3172   -8.8230   31.2079 C.3     1  UNL1        0.0709
      5 C          -7.8224  -10.1653   30.8260 C.ar    1  UNL1        0.0325
      6 C          -7.0673  -10.7004   29.8120 C.ar    1  UNL1        0.1401
      7 C          -7.3317  -11.9855   29.2709 C.ar    1  UNL1        0.0889
      8 C          -8.4050  -12.7338   29.8292 C.ar    1  UNL1        0.0282
      9 C          -9.1510  -12.1547   30.8659 C.ar    1  UNL1        0.0997
     10 N         -10.1972  -12.6834   31.5250 N.ar    1  UNL1       -0.2137
     11 C         -10.5125  -11.7019   32.4152 C.ar    1  UNL1        0.1983
     12 N          -9.7235  -10.6026   32.3319 N.ar    1  UNL1       -0.3255
     13 C          -8.8700  -10.9093   31.3491 C.ar    1  UNL1        0.0755
     14 O          -6.0550   -9.8342   29.4536 O.3     1  UNL1       -0.4824
     15 H          -9.7703   -9.7272   32.8995 H       1  UNL1        0.1686
     16 C          -6.5102  -12.5529   28.1783 C.2     1  UNL1        0.2535
     17 O          -5.6116  -11.8447   27.6471 O.2     1  UNL1       -0.2697
     18 N          -6.6856  -13.9159   27.7591 N.am    1  UNL1       -0.2657
     19 H          -7.0124  -14.6101   28.4682 H       1  UNL1        0.1566
     20 C          -6.2931  -14.4179   26.4723 C.ar    1  UNL1        0.1344
     21 C          -7.2254  -14.9788   25.5849 C.ar    1  UNL1        0.0344
     22 C          -6.7910  -15.4789   24.3564 C.ar    1  UNL1        0.0083
     23 C          -5.4335  -15.4157   24.0073 C.ar    1  UNL1        0.0906
     24 C          -4.5290  -14.8897   24.9430 C.ar    1  UNL1        0.1041
     25 N          -4.9753  -14.4093   26.1338 N.ar    1  UNL1       -0.2291
     26 C          -4.9446  -15.9993   22.7064 C.3     1  UNL1        0.4200
     27 F          -3.5824  -15.7989   22.5635 F       1  UNL1       -0.1658
     28 F          -5.6030  -15.3869   21.6565 F       1  UNL1       -0.1658
     29 F          -5.1892  -17.3609   22.6601 F       1  UNL1       -0.1658
     30 N         -11.5967  -11.8048   33.3451 N.pl3   1  UNL1       -0.2827
     31 H         -12.0936  -10.9302   33.6269 H       1  UNL1        0.1551
     32 C         -12.1543  -13.0693   33.7294 C.ar    1  UNL1        0.0726
     33 C         -11.5105  -13.8749   34.6907 C.ar    1  UNL1        0.0720
     34 CL        -10.0420  -13.3424   35.5008 Cl      1  UNL1       -0.0809
     35 C         -12.0666  -15.1043   35.0564 C.ar    1  UNL1        0.0136
     36 C         -13.2629  -15.5348   34.4822 C.ar    1  UNL1        0.0132
     37 C         -13.9210  -14.7371   33.5419 C.ar    1  UNL1        0.0695
     38 CL        -15.4312  -15.3164   32.8505 Cl      1  UNL1       -0.0813
     39 C         -13.3723  -13.4980   33.1656 C.ar    1  UNL1        0.0824
     40 CL        -14.1881  -12.4958   31.9654 Cl      1  UNL1       -0.0800
@<TRIPOS>BOND
     1     1     2    1
     2     2     3    1
     3     2     4    1
     4     4     5    1
     5     5     6   ar
     6     6     7   ar
     7     7    16    1
     8    16    17    2
     9    16    18   am
    10    18    20    1
    11    20    21   ar
    12    21    22   ar
    13    22    23   ar
    14    23    26    1
    15    26    27    1
    16    26    28    1
    17    26    29    1
    18    23    24   ar
    19    24    25   ar
    20     7     8   ar
    21     8     9   ar
    22     9    10   ar
    23    10    11   ar
    24    11    30    1
    25    30    32    1
    26    32    33   ar
    27    33    34    1
    28    33    35   ar
    29    35    36   ar
    30    36    37   ar
    31    37    38    1
    32    37    39   ar
    33    39    40    1
    34    11    12   ar
    35    12    13   ar
    36     6    14    1
    37    14     2    1
    38    13     5   ar
    39    25    20   ar
    40    13     9   ar
    41    39    32   ar
    42    18    19    1
    43    30    31    1
    44    12    15    1
@<TRIPOS>MOLECULE
*****
 40 44 0 0 0
SMALL
GASTEIGER

@<TRIPOS>ATOM
      1 C          -3.7691  -10.9174   29.2572 C.3     1  UNL1        0.0439
      2 C          -5.0841  -10.7640   28.4816 C.3     1  UNL1        0.1375
      3 C          -4.9917   -9.5899   27.4981 C.3     1  UNL1        0.0439
      4 C          -6.3011  -10.5983   29.4522 C.3     1  UNL1        0.0709
      5 C          -7.1300  -11.7844   29.1220 C.ar    1  UNL1        0.0325
      6 C          -6.5376  -12.5346   28.1367 C.ar    1  UNL1        0.1401
      7 C          -7.1196  -13.7327   27.6468 C.ar    1  UNL1        0.0889
      8 C          -8.3455  -14.1618   28.2272 C.ar    1  UNL1        0.0282
      9 C          -8.9179  -13.3704   29.2335 C.ar    1  UNL1        0.0997
     10 N         -10.0617  -13.5899   29.9059 N.ar    1  UNL1       -0.2137
     11 C         -10.1162  -12.5243   30.7524 C.ar    1  UNL1        0.1983
     12 N          -9.0754  -11.6643   30.6300 N.ar    1  UNL1       -0.3255
     13 C          -8.3300  -12.2173   29.6672 C.ar    1  UNL1        0.0755
     14 O          -5.3405  -11.9677   27.7506 O.3     1  UNL1       -0.4824
     15 H          -8.8979  -10.7825   31.1607 H       1  UNL1        0.1686
     16 C          -6.4714  -14.5343   26.5849 C.2     1  UNL1        0.2535
     17 O          -5.2977  -14.9618   26.7608 O.2     1  UNL1       -0.2697
     18 N          -7.1841  -14.8788   25.3859 N.am    1  UNL1       -0.2657
     19 H          -8.2217  -14.9855   25.4445 H       1  UNL1        0.1566
     20 C          -6.5497  -15.2385   24.1490 C.ar    1  UNL1        0.1344
     21 C          -7.0901  -16.2193   23.3021 C.ar    1  UNL1        0.0344
     22 C          -6.4219  -16.5545   22.1235 C.ar    1  UNL1        0.0083
     23 C          -5.2222  -15.9112   21.7834 C.ar    1  UNL1        0.0906
     24 C          -4.6932  -14.9706   22.6809 C.ar    1  UNL1        0.1041
     25 N          -5.3614  -14.6610   23.8235 N.ar    1  UNL1       -0.2291
     26 C          -4.4646  -16.3012   20.5401 C.3     1  UNL1        0.4200
     27 F          -3.1004  -16.2809   20.7739 F       1  UNL1       -0.1658
     28 F          -4.7616  -15.4088   19.5271 F       1  UNL1       -0.1658
     29 F          -4.8157  -17.5773   20.1349 F       1  UNL1       -0.1658
     30 N         -11.1885  -12.3112   31.6775 N.pl3   1  UNL1       -0.2827
     31 H         -12.0384  -11.8036   31.3438 H       1  UNL1        0.1551
     32 C         -11.2259  -12.9493   32.9616 C.ar    1  UNL1        0.0726
     33 C         -12.2706  -13.8365   33.2919 C.ar    1  UNL1        0.0720
     34 CL        -13.5290  -14.2461   32.1320 Cl      1  UNL1       -0.0809
     35 C         -12.2931  -14.4520   34.5468 C.ar    1  UNL1        0.0136
     36 C         -11.2800  -14.2011   35.4725 C.ar    1  UNL1        0.0132
     37 C         -10.2286  -13.3382   35.1508 C.ar    1  UNL1        0.0695
     38 CL         -8.9687  -13.0580   36.3459 Cl      1  UNL1       -0.0813
     39 C         -10.1941  -12.7128   33.8915 C.ar    1  UNL1        0.0824
     40 CL         -8.8803  -11.6080   33.4868 Cl      1  UNL1       -0.0800
@<TRIPOS>BOND
     1     1     2    1
     2     2     3    1
     3     2     4    1
     4     4     5    1
     5     5     6   ar
     6     6     7   ar
     7     7    16    1
     8    16    17    2
     9    16    18   am
    10    18    20    1
    11    20    21   ar
    12    21    22   ar
    13    22    23   ar
    14    23    26    1
    15    26    27    1
    16    26    28    1
    17    26    29    1
    18    23    24   ar
    19    24    25   ar
    20     7     8   ar
    21     8     9   ar
    22     9    10   ar
    23    10    11   ar
    24    11    30    1
    25    30    32    1
    26    32    33   ar
    27    33    34    1
    28    33    35   ar
    29    35    36   ar
    30    36    37   ar
    31    37    38    1
    32    37    39   ar
    33    39    40    1
    34    11    12   ar
    35    12    13   ar
    36     6    14    1
    37    14     2    1
    38    13     5   ar
    39    25    20   ar
    40    13     9   ar
    41    39    32   ar
    42    18    19    1
    43    30    31    1
    44    12    15    1
