@<TRIPOS>MOLECULE
*****
 37 41 0 0 0
SMALL
GASTEIGER

@<TRIPOS>ATOM
      1 C          47.3612   13.7805  -25.1947 C.2     1  UNL1        0.2488
      2 O          47.2826   15.0389  -25.1854 O.2     1  UNL1       -0.2699
      3 N          47.6753   13.0701  -23.9816 N.am    1  UNL1       -0.2760
      4 C          47.0197   11.7844  -23.6924 C.3     1  UNL1        0.0954
      5 C          47.7161   11.0580  -22.5347 C.3     1  UNL1        0.0399
      6 C          47.8108   11.9262  -21.2442 C.3     1  UNL1        0.0645
      7 C          48.0068   13.4403  -21.5811 C.3     1  UNL1        0.0399
      8 C          48.5737   13.6681  -22.9842 C.3     1  UNL1        0.0954
      9 C          49.0317   11.4112  -20.4018 C.3     1  UNL1        0.0477
     10 C          48.9409   11.8793  -18.9812 C.ar    1  UNL1        0.0220
     11 C          49.8963   11.9527  -17.9947 C.ar    1  UNL1        0.0923
     12 N          49.2701   12.2658  -16.8323 N.ar    1  UNL1       -0.2534
     13 N          47.9591   12.3546  -17.0409 N.ar    1  UNL1       -0.1651
     14 C          47.7605   12.1193  -18.3492 C.ar    1  UNL1        0.1515
     15 C          46.4972   12.0381  -19.0645 C.2     1  UNL1        0.2650
     16 O          45.3959   12.1653  -18.4675 O.2     1  UNL1       -0.2684
     17 N          46.5483   11.7822  -20.4770 N.am    1  UNL1       -0.3023
     18 H          45.6436   11.6771  -20.9901 H       1  UNL1        0.1497
     19 C          45.6076   12.8742  -31.0443 C.ar    1  UNL1        0.2249
     20 C          46.0130   11.5418  -31.1480 C.ar    1  UNL1        0.0577
     21 C          46.5844   10.9082  -30.0440 C.ar    1  UNL1        0.0063
     22 C          46.7487   11.6101  -28.8425 C.ar    1  UNL1        0.0177
     23 C          47.3199   10.9954  -27.7243 C.ar    1  UNL1        0.0016
     24 C          47.4935   11.7149  -26.5432 C.ar    1  UNL1        0.0044
     25 C          47.1017   13.0591  -26.4574 C.ar    1  UNL1        0.0534
     26 C          46.4759   13.6849  -27.5676 C.ar    1  UNL1        0.0291
     27 C          46.3263   12.9567  -28.7691 C.ar    1  UNL1        0.0829
     28 N          45.7723   13.5415  -29.8685 N.ar    1  UNL1       -0.2119
     29 C          45.9730   15.1115  -27.4934 C.3     1  UNL1        0.1652
     30 O          46.6332   15.8917  -28.4499 O.3     1  UNL1       -0.3772
     31 H          46.2923   16.8166  -28.3354 H       1  UNL1        0.2109
     32 C          44.6037   12.7950  -33.3049 C.3     1  UNL1        0.2542
     33 O          45.0362   13.5073  -32.1518 O.3     1  UNL1       -0.4561
     34 C          49.9154   12.4068  -15.5116 C.3     1  UNL1        0.0867
     35 C          51.4164   12.6891  -15.7053 C.3     1  UNL1        0.0244
     36 C          49.2630   13.5687  -14.7372 C.3     1  UNL1        0.0244
     37 C          49.7522   11.1119  -14.6867 C.3     1  UNL1        0.0244
@<TRIPOS>BOND
     1    32    33    1
     2    33    19    1
     3    19    20   ar
     4    20    21   ar
     5    21    22   ar
     6    22    23   ar
     7    23    24   ar
     8    24    25   ar
     9    25     1    1
    10     1     2    2
    11     1     3   am
    12     3     4    1
    13     4     5    1
    14     5     6    1
    15     6     7    1
    16     7     8    1
    17     6     9    1
    18     9    10    1
    19    10    11   ar
    20    11    12   ar
    21    12    34    1
    22    34    35    1
    23    34    36    1
    24    34    37    1
    25    12    13   ar
    26    13    14   ar
    27    14    15    1
    28    15    16    2
    29    15    17   am
    30    25    26   ar
    31    26    29    1
    32    29    30    1
    33    26    27   ar
    34    27    28   ar
    35    28    19   ar
    36    27    22   ar
    37     8     3    1
    38    14    10   ar
    39    17     6    1
    40    17    18    1
    41    30    31    1
@<TRIPOS>MOLECULE
*****
 37 41 0 0 0
SMALL
GASTEIGER

@<TRIPOS>ATOM
      1 C          48.2673   13.0735  -25.0936 C.2     1  UNL1        0.2488
      2 O          48.4525   14.3142  -25.2208 O.2     1  UNL1       -0.2699
      3 N          48.3576   12.4621  -23.7925 N.am    1  UNL1       -0.2760
      4 C          47.4332   11.3774  -23.4247 C.3     1  UNL1        0.0954
      5 C          47.8966   10.6669  -22.1467 C.3     1  UNL1        0.0399
      6 C          48.0975   11.6439  -20.9494 C.3     1  UNL1        0.0645
      7 C          48.6236   13.0375  -21.4245 C.3     1  UNL1        0.0399
      8 C          49.3035   12.9803  -22.7943 C.3     1  UNL1        0.0954
      9 C          49.1348   10.9968  -19.9643 C.3     1  UNL1        0.0477
     10 C          49.0639   11.6372  -18.6114 C.ar    1  UNL1        0.0220
     11 C          49.9566   11.6324  -17.5652 C.ar    1  UNL1        0.0923
     12 N          49.3451   12.1994  -16.4946 N.ar    1  UNL1       -0.2534
     13 N          48.0953   12.5246  -16.8145 N.ar    1  UNL1       -0.1651
     14 C          47.9259   12.1820  -18.1030 C.ar    1  UNL1        0.1515
     15 C          46.7158   12.2728  -18.9039 C.2     1  UNL1        0.2650
     16 O          45.6334   12.6880  -18.4123 O.2     1  UNL1       -0.2684
     17 N          46.7917   11.8477  -20.2738 N.am    1  UNL1       -0.3023
     18 H          45.9153   11.8670  -20.8433 H       1  UNL1        0.1497
     19 C          48.7739    8.6765  -29.3977 C.ar    1  UNL1        0.2249
     20 C          47.5738    8.9379  -30.0622 C.ar    1  UNL1        0.0577
     21 C          46.7585    9.9827  -29.6258 C.ar    1  UNL1        0.0063
     22 C          47.1466   10.7600  -28.5264 C.ar    1  UNL1        0.0177
     23 C          46.3447   11.8108  -28.0713 C.ar    1  UNL1        0.0016
     24 C          46.7371   12.5610  -26.9640 C.ar    1  UNL1        0.0044
     25 C          47.9345   12.2757  -26.2915 C.ar    1  UNL1        0.0534
     26 C          48.7846   11.2436  -26.7692 C.ar    1  UNL1        0.0291
     27 C          48.3679   10.4714  -27.8766 C.ar    1  UNL1        0.0829
     28 N          49.1376    9.4430  -28.3321 N.ar    1  UNL1       -0.2119
     29 C          50.1193   10.9504  -26.1163 C.3     1  UNL1        0.1652
     30 O          50.1795    9.5985  -25.7588 O.3     1  UNL1       -0.3772
     31 H          51.0544    9.4701  -25.3086 H       1  UNL1        0.2109
     32 C          49.5509    7.1329  -31.1690 C.3     1  UNL1        0.2542
     33 O          49.5887    7.6288  -29.8361 O.3     1  UNL1       -0.4561
     34 C          49.9304   12.3620  -15.1487 C.3     1  UNL1        0.0867
     35 C          51.4346   12.6627  -15.2799 C.3     1  UNL1        0.0244
     36 C          49.2297   13.5225  -14.4154 C.3     1  UNL1        0.0244
     37 C          49.7484   11.0731  -14.3183 C.3     1  UNL1        0.0244
@<TRIPOS>BOND
     1    32    33    1
     2    33    19    1
     3    19    20   ar
     4    20    21   ar
     5    21    22   ar
     6    22    23   ar
     7    23    24   ar
     8    24    25   ar
     9    25     1    1
    10     1     2    2
    11     1     3   am
    12     3     4    1
    13     4     5    1
    14     5     6    1
    15     6     7    1
    16     7     8    1
    17     6     9    1
    18     9    10    1
    19    10    11   ar
    20    11    12   ar
    21    12    34    1
    22    34    35    1
    23    34    36    1
    24    34    37    1
    25    12    13   ar
    26    13    14   ar
    27    14    15    1
    28    15    16    2
    29    15    17   am
    30    25    26   ar
    31    26    29    1
    32    29    30    1
    33    26    27   ar
    34    27    28   ar
    35    28    19   ar
    36    27    22   ar
    37     8     3    1
    38    14    10   ar
    39    17     6    1
    40    17    18    1
    41    30    31    1
@<TRIPOS>MOLECULE
*****
 37 41 0 0 0
SMALL
GASTEIGER

@<TRIPOS>ATOM
      1 C          50.3987   12.1207  -25.0792 C.2     1  UNL1        0.2488
      2 O          50.4010   13.3573  -25.3254 O.2     1  UNL1       -0.2699
      3 N          50.2103   11.6562  -23.7288 N.am    1  UNL1       -0.2760
      4 C          49.4155   10.4441  -23.4729 C.3     1  UNL1        0.0954
      5 C          49.6021    9.9561  -22.0307 C.3     1  UNL1        0.0399
      6 C          49.2804   11.0544  -20.9732 C.3     1  UNL1        0.0645
      7 C          49.6789   12.4783  -21.4814 C.3     1  UNL1        0.0399
      8 C          50.7255   12.4395  -22.5971 C.3     1  UNL1        0.0954
      9 C          50.0819   10.7180  -19.6656 C.3     1  UNL1        0.0477
     10 C          49.5158   11.4469  -18.4850 C.ar    1  UNL1        0.0220
     11 C          50.0552   11.7134  -17.2483 C.ar    1  UNL1        0.0923
     12 N          49.0737   12.2372  -16.4711 N.ar    1  UNL1       -0.2534
     13 N          47.9338   12.2750  -17.1562 N.ar    1  UNL1       -0.1651
     14 C          48.2046   11.7939  -18.3815 C.ar    1  UNL1        0.1515
     15 C          47.2807   11.5689  -19.4815 C.2     1  UNL1        0.2650
     16 O          46.0486   11.7992  -19.3608 O.2     1  UNL1       -0.2684
     17 N          47.8202   11.0495  -20.7071 N.am    1  UNL1       -0.3023
     18 H          47.1559   10.8422  -21.4872 H       1  UNL1        0.1497
     19 C          53.2808    8.6287  -29.2762 C.ar    1  UNL1        0.2249
     20 C          52.1482    7.9890  -29.7845 C.ar    1  UNL1        0.0577
     21 C          50.8893    8.3112  -29.2765 C.ar    1  UNL1        0.0063
     22 C          50.7692    9.2704  -28.2621 C.ar    1  UNL1        0.0177
     23 C          49.5180    9.6078  -27.7376 C.ar    1  UNL1        0.0016
     24 C          49.4193   10.5499  -26.7151 C.ar    1  UNL1        0.0044
     25 C          50.5660   11.1706  -26.1978 C.ar    1  UNL1        0.0534
     26 C          51.8397   10.8758  -26.7516 C.ar    1  UNL1        0.0291
     27 C          51.9343    9.9013  -27.7705 C.ar    1  UNL1        0.0829
     28 N          53.1464    9.5604  -28.2918 N.ar    1  UNL1       -0.2119
     29 C          53.0939   11.5760  -26.2717 C.3     1  UNL1        0.1652
     30 O          53.8534   11.9852  -27.3740 O.3     1  UNL1       -0.3772
     31 H          54.6733   12.4048  -27.0046 H       1  UNL1        0.2109
     32 C          55.0203    6.9659  -29.8536 C.3     1  UNL1        0.2542
     33 O          54.5410    8.3038  -29.7860 O.3     1  UNL1       -0.4561
     34 C          49.2084   12.6314  -15.0545 C.3     1  UNL1        0.0867
     35 C          48.6216   11.5246  -14.1595 C.3     1  UNL1        0.0244
     36 C          50.6968   12.8416  -14.7140 C.3     1  UNL1        0.0244
     37 C          48.4501   13.9487  -14.7831 C.3     1  UNL1        0.0244
@<TRIPOS>BOND
     1    32    33    1
     2    33    19    1
     3    19    20   ar
     4    20    21   ar
     5    21    22   ar
     6    22    23   ar
     7    23    24   ar
     8    24    25   ar
     9    25     1    1
    10     1     2    2
    11     1     3   am
    12     3     4    1
    13     4     5    1
    14     5     6    1
    15     6     7    1
    16     7     8    1
    17     6     9    1
    18     9    10    1
    19    10    11   ar
    20    11    12   ar
    21    12    34    1
    22    34    35    1
    23    34    36    1
    24    34    37    1
    25    12    13   ar
    26    13    14   ar
    27    14    15    1
    28    15    16    2
    29    15    17   am
    30    25    26   ar
    31    26    29    1
    32    29    30    1
    33    26    27   ar
    34    27    28   ar
    35    28    19   ar
    36    27    22   ar
    37     8     3    1
    38    14    10   ar
    39    17     6    1
    40    17    18    1
    41    30    31    1
@<TRIPOS>MOLECULE
*****
 37 41 0 0 0
SMALL
GASTEIGER

@<TRIPOS>ATOM
      1 C          50.0025   12.1702  -24.3580 C.2     1  UNL1        0.2488
      2 O          50.3080   13.3696  -24.5983 O.2     1  UNL1       -0.2699
      3 N          49.7950   11.7388  -22.9994 N.am    1  UNL1       -0.2760
      4 C          48.7331   10.7674  -22.6911 C.3     1  UNL1        0.0954
      5 C          48.8871   10.2143  -21.2686 C.3     1  UNL1        0.0399
      6 C          48.9359   11.3336  -20.1855 C.3     1  UNL1        0.0645
      7 C          49.6533   12.6177  -20.7154 C.3     1  UNL1        0.0399
      8 C          50.5734   12.3359  -21.9053 C.3     1  UNL1        0.0954
      9 C          49.7121   10.7713  -18.9418 C.3     1  UNL1        0.0477
     10 C          49.4383   11.5940  -17.7197 C.ar    1  UNL1        0.0220
     11 C          50.1133   11.6834  -16.5248 C.ar    1  UNL1        0.0923
     12 N          49.3580   12.4247  -15.6754 N.ar    1  UNL1       -0.2534
     13 N          48.2219   12.7714  -16.2745 N.ar    1  UNL1       -0.1651
     14 C          48.2724   12.2654  -17.5186 C.ar    1  UNL1        0.1515
     15 C          47.2472   12.3121  -18.5486 C.2     1  UNL1        0.2650
     16 O          46.1285   12.8498  -18.3366 O.2     1  UNL1       -0.2684
     17 N          47.5466   11.6997  -19.8128 N.am    1  UNL1       -0.3023
     18 H          46.7984   11.6891  -20.5428 H       1  UNL1        0.1497
     19 C          47.6309    9.7421  -29.5150 C.ar    1  UNL1        0.2249
     20 C          48.5800    8.7327  -29.6901 C.ar    1  UNL1        0.0577
     21 C          49.6109    8.5883  -28.7610 C.ar    1  UNL1        0.0063
     22 C          49.6884    9.4546  -27.6624 C.ar    1  UNL1        0.0177
     23 C          50.7134    9.3289  -26.7200 C.ar    1  UNL1        0.0016
     24 C          50.7861   10.2119  -25.6440 C.ar    1  UNL1        0.0044
     25 C          49.8392   11.2353  -25.4900 C.ar    1  UNL1        0.0534
     26 C          48.7641   11.3475  -26.4105 C.ar    1  UNL1        0.0291
     27 C          48.7114   10.4646  -27.5124 C.ar    1  UNL1        0.0829
     28 N          47.7194   10.5743  -28.4405 N.ar    1  UNL1       -0.2119
     29 C          47.6809   12.3922  -26.2405 C.3     1  UNL1        0.1652
     30 O          46.4240   11.7894  -26.3674 O.3     1  UNL1       -0.3772
     31 H          45.7572   12.5193  -26.2816 H       1  UNL1        0.2109
     32 C          46.2201   11.1471  -30.9847 C.3     1  UNL1        0.2542
     33 O          46.5995    9.8855  -30.4474 O.3     1  UNL1       -0.4561
     34 C          49.6890   12.7377  -14.2707 C.3     1  UNL1        0.0867
     35 C          51.1284   13.2784  -14.1946 C.3     1  UNL1        0.0244
     36 C          48.7066   13.7949  -13.7298 C.3     1  UNL1        0.0244
     37 C          49.5830   11.4719  -13.3930 C.3     1  UNL1        0.0244
@<TRIPOS>BOND
     1    32    33    1
     2    33    19    1
     3    19    20   ar
     4    20    21   ar
     5    21    22   ar
     6    22    23   ar
     7    23    24   ar
     8    24    25   ar
     9    25     1    1
    10     1     2    2
    11     1     3   am
    12     3     4    1
    13     4     5    1
    14     5     6    1
    15     6     7    1
    16     7     8    1
    17     6     9    1
    18     9    10    1
    19    10    11   ar
    20    11    12   ar
    21    12    34    1
    22    34    35    1
    23    34    36    1
    24    34    37    1
    25    12    13   ar
    26    13    14   ar
    27    14    15    1
    28    15    16    2
    29    15    17   am
    30    25    26   ar
    31    26    29    1
    32    29    30    1
    33    26    27   ar
    34    27    28   ar
    35    28    19   ar
    36    27    22   ar
    37     8     3    1
    38    14    10   ar
    39    17     6    1
    40    17    18    1
    41    30    31    1
@<TRIPOS>MOLECULE
*****
 37 41 0 0 0
SMALL
GASTEIGER

@<TRIPOS>ATOM
      1 C          50.8339   12.8325  -24.2345 C.2     1  UNL1        0.2488
      2 O          50.6939   14.0557  -24.5063 O.2     1  UNL1       -0.2699
      3 N          50.6360   12.3678  -22.8855 N.am    1  UNL1       -0.2760
      4 C          49.9872   11.0689  -22.6437 C.3     1  UNL1        0.0954
      5 C          50.1590   10.6296  -21.1841 C.3     1  UNL1        0.0399
      6 C          49.6482   11.6939  -20.1670 C.3     1  UNL1        0.0645
      7 C          49.8907   13.1491  -20.6848 C.3     1  UNL1        0.0399
      8 C          50.9900   13.2263  -21.7466 C.3     1  UNL1        0.0954
      9 C          50.4171   11.4806  -18.8147 C.3     1  UNL1        0.0477
     10 C          49.7041   12.1494  -17.6791 C.ar    1  UNL1        0.0220
     11 C          50.1414   12.5000  -16.4232 C.ar    1  UNL1        0.0923
     12 N          49.0633   12.9071  -15.7065 N.ar    1  UNL1       -0.2534
     13 N          47.9644   12.7906  -16.4474 N.ar    1  UNL1       -0.1651
     14 C          48.3562   12.3297  -17.6476 C.ar    1  UNL1        0.1515
     15 C          47.5256   11.9737  -18.7867 C.2     1  UNL1        0.2650
     16 O          46.2698   12.0483  -18.7317 O.2     1  UNL1       -0.2684
     17 N          48.1883   11.5087  -19.9731 N.am    1  UNL1       -0.3023
     18 H          47.5963   11.2077  -20.7804 H       1  UNL1        0.1497
     19 C          49.9829    8.8705  -28.8921 C.ar    1  UNL1        0.2249
     20 C          51.3261    8.7130  -29.2404 C.ar    1  UNL1        0.0577
     21 C          52.3093    9.3846  -28.5130 C.ar    1  UNL1        0.0063
     22 C          51.9445   10.2111  -27.4420 C.ar    1  UNL1        0.0177
     23 C          52.9127   10.8945  -26.7003 C.ar    1  UNL1        0.0016
     24 C          52.5302   11.7279  -25.6506 C.ar    1  UNL1        0.0044
     25 C          51.1764   11.8947  -25.3233 C.ar    1  UNL1        0.0534
     26 C          50.1832   11.1712  -26.0345 C.ar    1  UNL1        0.0291
     27 C          50.5768   10.3480  -27.1133 C.ar    1  UNL1        0.0829
     28 N          49.6454    9.6758  -27.8468 N.ar    1  UNL1       -0.2119
     29 C          48.7171   11.2670  -25.6668 C.3     1  UNL1        0.1652
     30 O          47.9633   11.5439  -26.8132 O.3     1  UNL1       -0.3772
     31 H          47.0218   11.6288  -26.5113 H       1  UNL1        0.2109
     32 C          49.2880    7.4739  -30.8133 C.3     1  UNL1        0.2542
     33 O          48.9996    8.1974  -29.6227 O.3     1  UNL1       -0.4561
     34 C          49.0744   13.3359  -14.2935 C.3     1  UNL1        0.0867
     35 C          50.5281   13.5687  -13.8429 C.3     1  UNL1        0.0244
     36 C          48.2672   14.6399  -14.1410 C.3     1  UNL1        0.0244
     37 C          48.4386   12.2547  -13.3931 C.3     1  UNL1        0.0244
@<TRIPOS>BOND
     1    32    33    1
     2    33    19    1
     3    19    20   ar
     4    20    21   ar
     5    21    22   ar
     6    22    23   ar
     7    23    24   ar
     8    24    25   ar
     9    25     1    1
    10     1     2    2
    11     1     3   am
    12     3     4    1
    13     4     5    1
    14     5     6    1
    15     6     7    1
    16     7     8    1
    17     6     9    1
    18     9    10    1
    19    10    11   ar
    20    11    12   ar
    21    12    34    1
    22    34    35    1
    23    34    36    1
    24    34    37    1
    25    12    13   ar
    26    13    14   ar
    27    14    15    1
    28    15    16    2
    29    15    17   am
    30    25    26   ar
    31    26    29    1
    32    29    30    1
    33    26    27   ar
    34    27    28   ar
    35    28    19   ar
    36    27    22   ar
    37     8     3    1
    38    14    10   ar
    39    17     6    1
    40    17    18    1
    41    30    31    1
@<TRIPOS>MOLECULE
*****
 37 41 0 0 0
SMALL
GASTEIGER

@<TRIPOS>ATOM
      1 C          49.5310   10.2621  -27.1399 C.2     1  UNL1        0.2488
      2 O          48.6092   11.0320  -27.5238 O.2     1  UNL1       -0.2699
      3 N          49.8365   10.1490  -25.7368 N.am    1  UNL1       -0.2760
      4 C          50.2047    8.8423  -25.1681 C.3     1  UNL1        0.0954
      5 C          50.7875    8.9986  -23.7578 C.3     1  UNL1        0.0399
      6 C          49.8372    9.7675  -22.7915 C.3     1  UNL1        0.0645
      7 C          49.0282   10.8766  -23.5399 C.3     1  UNL1        0.0399
      8 C          49.6885   11.3115  -24.8501 C.3     1  UNL1        0.0954
      9 C          50.7157   10.4236  -21.6676 C.3     1  UNL1        0.0477
     10 C          49.8792   10.8036  -20.4839 C.ar    1  UNL1        0.0220
     11 C          50.1335   11.6626  -19.4404 C.ar    1  UNL1        0.0923
     12 N          49.1386   11.5155  -18.5292 N.ar    1  UNL1       -0.2534
     13 N          48.2926   10.5743  -18.9397 N.ar    1  UNL1       -0.1651
     14 C          48.7446   10.1423  -20.1294 C.ar    1  UNL1        0.1515
     15 C          48.2090    9.0751  -20.9589 C.2     1  UNL1        0.2650
     16 O          47.2147    8.3951  -20.5919 O.2     1  UNL1       -0.2684
     17 N          48.8708    8.8056  -22.2049 N.am    1  UNL1       -0.3023
     18 H          48.5198    8.0104  -22.7855 H       1  UNL1        0.1497
     19 C          50.4505    6.7123  -32.1066 C.ar    1  UNL1        0.2249
     20 C          51.8465    6.7107  -32.0690 C.ar    1  UNL1        0.0577
     21 C          52.5086    7.3938  -31.0483 C.ar    1  UNL1        0.0063
     22 C          51.7717    8.0759  -30.0711 C.ar    1  UNL1        0.0177
     23 C          52.4143    8.7679  -29.0402 C.ar    1  UNL1        0.0016
     24 C          51.6655    9.4574  -28.0880 C.ar    1  UNL1        0.0044
     25 C          50.2641    9.4694  -28.1480 C.ar    1  UNL1        0.0534
     26 C          49.5938    8.7323  -29.1596 C.ar    1  UNL1        0.0291
     27 C          50.3601    8.0568  -30.1358 C.ar    1  UNL1        0.0829
     28 N          49.7491    7.3785  -31.1477 N.ar    1  UNL1       -0.2119
     29 C          48.0822    8.6599  -29.2177 C.3     1  UNL1        0.1652
     30 O          47.6430    9.0435  -30.4901 O.3     1  UNL1       -0.3772
     31 H          46.6516    9.0104  -30.4621 H       1  UNL1        0.2109
     32 C          48.3716    5.9277  -33.1961 C.3     1  UNL1        0.2542
     33 O          49.7893    6.0281  -33.1305 O.3     1  UNL1       -0.4561
     34 C          49.0378   12.2203  -17.2356 C.3     1  UNL1        0.0867
     35 C          48.2346   13.5200  -17.4245 C.3     1  UNL1        0.0244
     36 C          48.3310   11.3166  -16.2065 C.3     1  UNL1        0.0244
     37 C          50.4419   12.5735  -16.6990 C.3     1  UNL1        0.0244
@<TRIPOS>BOND
     1    32    33    1
     2    33    19    1
     3    19    20   ar
     4    20    21   ar
     5    21    22   ar
     6    22    23   ar
     7    23    24   ar
     8    24    25   ar
     9    25     1    1
    10     1     2    2
    11     1     3   am
    12     3     4    1
    13     4     5    1
    14     5     6    1
    15     6     7    1
    16     7     8    1
    17     6     9    1
    18     9    10    1
    19    10    11   ar
    20    11    12   ar
    21    12    34    1
    22    34    35    1
    23    34    36    1
    24    34    37    1
    25    12    13   ar
    26    13    14   ar
    27    14    15    1
    28    15    16    2
    29    15    17   am
    30    25    26   ar
    31    26    29    1
    32    29    30    1
    33    26    27   ar
    34    27    28   ar
    35    28    19   ar
    36    27    22   ar
    37     8     3    1
    38    14    10   ar
    39    17     6    1
    40    17    18    1
    41    30    31    1
