@<TRIPOS>MOLECULE
*****
 26 28 0 0 0
SMALL
GASTEIGER

@<TRIPOS>ATOM
      1 C          46.7170   14.4043  -24.0429 C.3     1  UNL1        0.0427
      2 C          47.4602   13.2643  -24.7784 C.3     1  UNL1        0.1973
      3 O          47.7859   12.2457  -23.8631 O.3     1  UNL1       -0.3751
      4 H          48.3186   12.6482  -23.1275 H       1  UNL1        0.2110
      5 C          46.5667   12.6437  -25.8372 C.2     1  UNL1        0.2571
      6 O          45.7159   11.7723  -25.5111 O.2     1  UNL1       -0.2719
      7 N          46.5746   13.1238  -27.1889 N.am    1  UNL1       -0.2566
      8 C          46.0642   14.4421  -27.5746 C.3     1  UNL1        0.1030
      9 C          45.8077   14.3771  -29.0995 C.3     1  UNL1        0.0502
     10 C          46.1097   12.9575  -29.4422 C.ar    1  UNL1        0.0029
     11 C          46.0066   12.3154  -30.6829 C.ar    1  UNL1        0.0657
     12 C          46.3472   10.9524  -30.7619 C.ar    1  UNL1        0.0100
     13 C          46.7806   10.2626  -29.6137 C.ar    1  UNL1        0.0019
     14 C          46.8764   10.9293  -28.3831 C.ar    1  UNL1        0.0146
     15 C          46.5313   12.2828  -28.3290 C.ar    1  UNL1        0.0506
     16 C          45.5628   13.0258  -31.8544 C.1     1  UNL1        0.1001
     17 N          45.2060   13.5971  -32.7953 N.1     1  UNL1       -0.1908
     18 C          48.7676   13.8278  -25.4063 C.3     1  UNL1        0.2408
     19 O          49.1035   15.1107  -24.8664 O.3     1  UNL1       -0.4724
     20 C          49.3559   16.2782  -25.6018 C.ar    1  UNL1        0.1388
     21 C          50.5152   17.0569  -25.4203 C.ar    1  UNL1        0.0392
     22 C          50.7164   18.2079  -26.1892 C.ar    1  UNL1        0.0327
     23 C          49.7611   18.5991  -27.1310 C.ar    1  UNL1        0.1403
     24 F          49.9601   19.7137  -27.8769 F       1  UNL1       -0.2042
     25 C          48.5971   17.8447  -27.2981 C.ar    1  UNL1        0.0327
     26 C          48.3935   16.6934  -26.5314 C.ar    1  UNL1        0.0392
@<TRIPOS>BOND
     1     1     2    1
     2     2     3    1
     3     2    18    1
     4    18    19    1
     5    19    20    1
     6    20    21   ar
     7    21    22   ar
     8    22    23   ar
     9    23    24    1
    10    23    25   ar
    11    25    26   ar
    12     2     5    1
    13     5     6    2
    14     5     7   am
    15     7     8    1
    16     8     9    1
    17     9    10    1
    18    10    11   ar
    19    11    16    1
    20    16    17    3
    21    11    12   ar
    22    12    13   ar
    23    13    14   ar
    24    14    15   ar
    25    26    20   ar
    26    15     7    1
    27    15    10   ar
    28     3     4    1
@<TRIPOS>MOLECULE
*****
 26 28 0 0 0
SMALL
GASTEIGER

@<TRIPOS>ATOM
      1 C          48.6565   11.9872  -25.7685 C.3     1  UNL1        0.0427
      2 C          47.3608   12.6185  -25.2066 C.3     1  UNL1        0.1973
      3 O          47.1117   12.1149  -23.9160 O.3     1  UNL1       -0.3751
      4 H          47.0705   11.1239  -23.9722 H       1  UNL1        0.2110
      5 C          47.5160   14.1230  -25.0761 C.2     1  UNL1        0.2571
      6 O          46.4942   14.8557  -24.9838 O.2     1  UNL1       -0.2719
      7 N          48.8088   14.7247  -24.9201 N.am    1  UNL1       -0.2566
      8 C          49.6267   14.5666  -23.7146 C.3     1  UNL1        0.1030
      9 C          50.6646   15.7142  -23.7428 C.3     1  UNL1        0.0502
     10 C          50.2741   16.5062  -24.9446 C.ar    1  UNL1        0.0029
     11 C          50.8407   17.6895  -25.4353 C.ar    1  UNL1        0.0657
     12 C          50.2928   18.2624  -26.5980 C.ar    1  UNL1        0.0100
     13 C          49.2017   17.6500  -27.2432 C.ar    1  UNL1        0.0019
     14 C          48.6533   16.4643  -26.7319 C.ar    1  UNL1        0.0146
     15 C          49.2135   15.9148  -25.5751 C.ar    1  UNL1        0.0506
     16 C          51.9570   18.3118  -24.7714 C.1     1  UNL1        0.1001
     17 N          52.8537   18.8115  -24.2374 N.1     1  UNL1       -0.1908
     18 C          46.1690   12.2554  -26.1386 C.3     1  UNL1        0.2408
     19 O          46.5786   11.4023  -27.2131 O.3     1  UNL1       -0.4724
     20 C          46.4189   11.6607  -28.5825 C.ar    1  UNL1        0.1388
     21 C          46.6862   10.6984  -29.5754 C.ar    1  UNL1        0.0392
     22 C          46.5007   11.0115  -30.9259 C.ar    1  UNL1        0.0327
     23 C          46.0632   12.2855  -31.2978 C.ar    1  UNL1        0.1403
     24 F          45.8816   12.5853  -32.6074 F       1  UNL1       -0.2042
     25 C          45.8204   13.2525  -30.3189 C.ar    1  UNL1        0.0327
     26 C          46.0043   12.9421  -28.9681 C.ar    1  UNL1        0.0392
@<TRIPOS>BOND
     1     1     2    1
     2     2     3    1
     3     2    18    1
     4    18    19    1
     5    19    20    1
     6    20    21   ar
     7    21    22   ar
     8    22    23   ar
     9    23    24    1
    10    23    25   ar
    11    25    26   ar
    12     2     5    1
    13     5     6    2
    14     5     7   am
    15     7     8    1
    16     8     9    1
    17     9    10    1
    18    10    11   ar
    19    11    16    1
    20    16    17    3
    21    11    12   ar
    22    12    13   ar
    23    13    14   ar
    24    14    15   ar
    25    26    20   ar
    26    15     7    1
    27    15    10   ar
    28     3     4    1
@<TRIPOS>MOLECULE
*****
 26 28 0 0 0
SMALL
GASTEIGER

@<TRIPOS>ATOM
      1 C          48.2009   13.3213  -24.9179 C.3     1  UNL1        0.0427
      2 C          46.6762   13.2872  -24.6584 C.3     1  UNL1        0.1973
      3 O          46.1873   14.6023  -24.5451 O.3     1  UNL1       -0.3751
      4 H          46.6955   15.0614  -23.8256 H       1  UNL1        0.2110
      5 C          45.9527   12.6414  -25.8264 C.2     1  UNL1        0.2571
      6 O          45.0315   11.8075  -25.6129 O.2     1  UNL1       -0.2719
      7 N          46.2024   13.0585  -27.1760 N.am    1  UNL1       -0.2566
      8 C          45.8068   14.3701  -27.6960 C.3     1  UNL1        0.1030
      9 C          45.8071   14.2416  -29.2383 C.3     1  UNL1        0.0502
     10 C          46.1159   12.8006  -29.4667 C.ar    1  UNL1        0.0029
     11 C          46.2011   12.1051  -30.6795 C.ar    1  UNL1        0.0657
     12 C          46.5056   10.7317  -30.6439 C.ar    1  UNL1        0.0100
     13 C          46.7181   10.0847  -29.4118 C.ar    1  UNL1        0.0019
     14 C          46.6282   10.8045  -28.2110 C.ar    1  UNL1        0.0146
     15 C          46.3231   12.1674  -28.2716 C.ar    1  UNL1        0.0506
     16 C          45.9829   12.7719  -31.9372 C.1     1  UNL1        0.1001
     17 N          45.8075   13.3071  -32.9481 N.1     1  UNL1       -0.1908
     18 C          46.4000   12.5205  -23.3330 C.3     1  UNL1        0.2408
     19 O          46.9548   11.2008  -23.3598 O.3     1  UNL1       -0.4724
     20 C          47.7791   10.6292  -22.3794 C.ar    1  UNL1        0.1388
     21 C          48.9163    9.8604  -22.6941 C.ar    1  UNL1        0.0392
     22 C          49.7056    9.3218  -21.6726 C.ar    1  UNL1        0.0327
     23 C          49.3614    9.5315  -20.3346 C.ar    1  UNL1        0.1403
     24 F          50.1298    9.0106  -19.3465 F       1  UNL1       -0.2042
     25 C          48.2203   10.2721  -20.0161 C.ar    1  UNL1        0.0327
     26 C          47.4298   10.8122  -21.0350 C.ar    1  UNL1        0.0392
@<TRIPOS>BOND
     1     1     2    1
     2     2     3    1
     3     2    18    1
     4    18    19    1
     5    19    20    1
     6    20    21   ar
     7    21    22   ar
     8    22    23   ar
     9    23    24    1
    10    23    25   ar
    11    25    26   ar
    12     2     5    1
    13     5     6    2
    14     5     7   am
    15     7     8    1
    16     8     9    1
    17     9    10    1
    18    10    11   ar
    19    11    16    1
    20    16    17    3
    21    11    12   ar
    22    12    13   ar
    23    13    14   ar
    24    14    15   ar
    25    26    20   ar
    26    15     7    1
    27    15    10   ar
    28     3     4    1
@<TRIPOS>MOLECULE
*****
 26 28 0 0 0
SMALL
GASTEIGER

@<TRIPOS>ATOM
      1 C          47.5334   11.3558  -23.9934 C.3     1  UNL1        0.0427
      2 C          46.5218   12.5258  -24.0176 C.3     1  UNL1        0.1973
      3 O          45.5707   12.3486  -22.9952 O.3     1  UNL1       -0.3751
      4 H          45.1433   11.4605  -23.1195 H       1  UNL1        0.2110
      5 C          47.2264   13.8432  -23.7479 C.2     1  UNL1        0.2571
      6 O          47.6148   14.1222  -22.5814 O.2     1  UNL1       -0.2719
      7 N          47.5826   14.7270  -24.8201 N.am    1  UNL1       -0.2566
      8 C          48.6166   14.4117  -25.8093 C.3     1  UNL1        0.1030
      9 C          49.0208   15.7582  -26.4564 C.3     1  UNL1        0.0502
     10 C          48.2302   16.7634  -25.6892 C.ar    1  UNL1        0.0029
     11 C          48.2306   18.1585  -25.8149 C.ar    1  UNL1        0.0657
     12 C          47.3933   18.9074  -24.9674 C.ar    1  UNL1        0.0100
     13 C          46.5790   18.2573  -24.0208 C.ar    1  UNL1        0.0019
     14 C          46.5963   16.8584  -23.9159 C.ar    1  UNL1        0.0146
     15 C          47.4372   16.1360  -24.7674 C.ar    1  UNL1        0.0506
     16 C          49.0655   18.8185  -26.7852 C.1     1  UNL1        0.1001
     17 N          49.7367   19.3489  -27.5643 N.1     1  UNL1       -0.1908
     18 C          45.7977   12.5475  -25.3947 C.3     1  UNL1        0.2408
     19 O          46.3601   11.5943  -26.3031 O.3     1  UNL1       -0.4724
     20 C          46.3530   11.6806  -27.7030 C.ar    1  UNL1        0.1388
     21 C          46.6257   10.5779  -28.5355 C.ar    1  UNL1        0.0392
     22 C          46.5962   10.7227  -29.9264 C.ar    1  UNL1        0.0327
     23 C          46.3104   11.9658  -30.4971 C.ar    1  UNL1        0.1403
     24 F          46.2797   12.1026  -31.8456 F       1  UNL1       -0.2042
     25 C          46.0637   13.0695  -29.6765 C.ar    1  UNL1        0.0327
     26 C          46.0919   12.9275  -28.2859 C.ar    1  UNL1        0.0392
@<TRIPOS>BOND
     1     1     2    1
     2     2     3    1
     3     2    18    1
     4    18    19    1
     5    19    20    1
     6    20    21   ar
     7    21    22   ar
     8    22    23   ar
     9    23    24    1
    10    23    25   ar
    11    25    26   ar
    12     2     5    1
    13     5     6    2
    14     5     7   am
    15     7     8    1
    16     8     9    1
    17     9    10    1
    18    10    11   ar
    19    11    16    1
    20    16    17    3
    21    11    12   ar
    22    12    13   ar
    23    13    14   ar
    24    14    15   ar
    25    26    20   ar
    26    15     7    1
    27    15    10   ar
    28     3     4    1
@<TRIPOS>MOLECULE
*****
 26 28 0 0 0
SMALL
GASTEIGER

@<TRIPOS>ATOM
      1 C          46.6065   14.3951  -24.0688 C.3     1  UNL1        0.0427
      2 C          47.2880   13.1559  -24.6956 C.3     1  UNL1        0.1973
      3 O          47.4381   12.1547  -23.7177 O.3     1  UNL1       -0.3751
      4 H          47.9490   12.5380  -22.9569 H       1  UNL1        0.2110
      5 C          46.4228   12.5752  -25.7996 C.2     1  UNL1        0.2571
      6 O          45.5322   11.7272  -25.5213 O.2     1  UNL1       -0.2719
      7 N          46.5044   13.0695  -27.1437 N.am    1  UNL1       -0.2566
      8 C          46.0520   14.4072  -27.5349 C.3     1  UNL1        0.1030
      9 C          45.8603   14.3669  -29.0701 C.3     1  UNL1        0.0502
     10 C          46.1333   12.9424  -29.4169 C.ar    1  UNL1        0.0029
     11 C          46.0646   12.3175  -30.6687 C.ar    1  UNL1        0.0657
     12 C          46.3663   10.9454  -30.7496 C.ar    1  UNL1        0.0100
     13 C          46.7278   10.2299  -29.5923 C.ar    1  UNL1        0.0019
     14 C          46.7903   10.8798  -28.3506 C.ar    1  UNL1        0.0146
     15 C          46.4850   12.2428  -28.2949 C.ar    1  UNL1        0.0506
     16 C          45.6944   13.0542  -31.8494 C.1     1  UNL1        0.1001
     17 N          45.3964   13.6457  -32.7983 N.1     1  UNL1       -0.1908
     18 C          48.6900   13.5614  -25.2351 C.3     1  UNL1        0.2408
     19 O          49.6914   12.6018  -24.8794 O.3     1  UNL1       -0.4724
     20 C          50.4104   11.7878  -25.7671 C.ar    1  UNL1        0.1388
     21 C          49.8390   10.6740  -26.4122 C.ar    1  UNL1        0.0392
     22 C          50.6038    9.9034  -27.2940 C.ar    1  UNL1        0.0327
     23 C          51.9431   10.2260  -27.5281 C.ar    1  UNL1        0.1403
     24 F          52.6813    9.4789  -28.3854 F       1  UNL1       -0.2042
     25 C          52.5230   11.3147  -26.8719 C.ar    1  UNL1        0.0327
     26 C          51.7607   12.0872  -25.9904 C.ar    1  UNL1        0.0392
@<TRIPOS>BOND
     1     1     2    1
     2     2     3    1
     3     2    18    1
     4    18    19    1
     5    19    20    1
     6    20    21   ar
     7    21    22   ar
     8    22    23   ar
     9    23    24    1
    10    23    25   ar
    11    25    26   ar
    12     2     5    1
    13     5     6    2
    14     5     7   am
    15     7     8    1
    16     8     9    1
    17     9    10    1
    18    10    11   ar
    19    11    16    1
    20    16    17    3
    21    11    12   ar
    22    12    13   ar
    23    13    14   ar
    24    14    15   ar
    25    26    20   ar
    26    15     7    1
    27    15    10   ar
    28     3     4    1
@<TRIPOS>MOLECULE
*****
 26 28 0 0 0
SMALL
GASTEIGER

@<TRIPOS>ATOM
      1 C          47.7556   11.5766  -23.9994 C.3     1  UNL1        0.0427
      2 C          47.1755   12.8320  -24.6925 C.3     1  UNL1        0.1973
      3 O          46.6238   13.6927  -23.7249 O.3     1  UNL1       -0.3751
      4 H          45.9453   13.1839  -23.2077 H       1  UNL1        0.2110
      5 C          48.2744   13.6034  -25.4011 C.2     1  UNL1        0.2571
      6 O          49.3362   13.0158  -25.7428 O.2     1  UNL1       -0.2719
      7 N          48.0788   14.9633  -25.8134 N.am    1  UNL1       -0.2566
      8 C          47.1576   15.3518  -26.8846 C.3     1  UNL1        0.1030
      9 C          47.5885   16.7692  -27.3324 C.3     1  UNL1        0.0502
     10 C          48.8126   17.0322  -26.5223 C.ar    1  UNL1        0.0029
     11 C          49.6536   18.1522  -26.5451 C.ar    1  UNL1        0.0657
     12 C          50.7646   18.1730  -25.6817 C.ar    1  UNL1        0.0100
     13 C          51.0128   17.0878  -24.8200 C.ar    1  UNL1        0.0019
     14 C          50.1542   15.9783  -24.8156 C.ar    1  UNL1        0.0146
     15 C          49.0581   15.9798  -25.6831 C.ar    1  UNL1        0.0506
     16 C          49.3949   19.2598  -27.4285 C.1     1  UNL1        0.1001
     17 N          49.1877   20.1499  -28.1382 N.1     1  UNL1       -0.1908
     18 C          46.0618   12.3978  -25.6886 C.3     1  UNL1        0.2408
     19 O          46.5501   11.4561  -26.6503 O.3     1  UNL1       -0.4724
     20 C          46.4722   11.5813  -28.0451 C.ar    1  UNL1        0.1388
     21 C          46.0746   12.7729  -28.6819 C.ar    1  UNL1        0.0392
     22 C          46.0235   12.8407  -30.0780 C.ar    1  UNL1        0.0327
     23 C          46.3524   11.7219  -30.8479 C.ar    1  UNL1        0.1403
     24 F          46.3045   11.7913  -32.2011 F       1  UNL1       -0.2042
     25 C          46.7232   10.5292  -30.2217 C.ar    1  UNL1        0.0327
     26 C          46.7759   10.4587  -28.8264 C.ar    1  UNL1        0.0392
@<TRIPOS>BOND
     1     1     2    1
     2     2     3    1
     3     2    18    1
     4    18    19    1
     5    19    20    1
     6    20    21   ar
     7    21    22   ar
     8    22    23   ar
     9    23    24    1
    10    23    25   ar
    11    25    26   ar
    12     2     5    1
    13     5     6    2
    14     5     7   am
    15     7     8    1
    16     8     9    1
    17     9    10    1
    18    10    11   ar
    19    11    16    1
    20    16    17    3
    21    11    12   ar
    22    12    13   ar
    23    13    14   ar
    24    14    15   ar
    25    26    20   ar
    26    15     7    1
    27    15    10   ar
    28     3     4    1
@<TRIPOS>MOLECULE
*****
 26 28 0 0 0
SMALL
GASTEIGER

@<TRIPOS>ATOM
      1 C          45.4633   12.9676  -25.0905 C.3     1  UNL1        0.0427
      2 C          46.6534   13.9379  -25.2778 C.3     1  UNL1        0.1973
      3 O          46.4085   15.1279  -24.5669 O.3     1  UNL1       -0.3751
      4 H          45.5446   15.5047  -24.8808 H       1  UNL1        0.2110
      5 C          47.9258   13.3337  -24.7114 C.2     1  UNL1        0.2571
      6 O          49.0367   13.5843  -25.2524 O.2     1  UNL1       -0.2719
      7 N          47.9111   12.5863  -23.4872 N.am    1  UNL1       -0.2566
      8 C          47.6544   13.1949  -22.1792 C.3     1  UNL1        0.1030
      9 C          48.1924   12.1974  -21.1253 C.3     1  UNL1        0.0502
     10 C          48.8148   11.1224  -21.9504 C.ar    1  UNL1        0.0029
     11 C          49.4992    9.9769  -21.5242 C.ar    1  UNL1        0.0657
     12 C          50.0076    9.0989  -22.4993 C.ar    1  UNL1        0.0100
     13 C          49.8249    9.3767  -23.8672 C.ar    1  UNL1        0.0019
     14 C          49.1345   10.5303  -24.2679 C.ar    1  UNL1        0.0146
     15 C          48.6399   11.3882  -23.2812 C.ar    1  UNL1        0.0506
     16 C          49.6830    9.6975  -20.1234 C.1     1  UNL1        0.1001
     17 N          49.8301    9.4731  -18.9978 N.1     1  UNL1       -0.1908
     18 C          46.8123   14.2665  -26.7903 C.3     1  UNL1        0.2408
     19 O          45.8822   13.5302  -27.5921 O.3     1  UNL1       -0.4724
     20 C          46.1883   12.4516  -28.4351 C.ar    1  UNL1        0.1388
     21 C          46.6490   11.2125  -27.9497 C.ar    1  UNL1        0.0392
     22 C          46.9306   10.1699  -28.8387 C.ar    1  UNL1        0.0327
     23 C          46.7703   10.3574  -30.2141 C.ar    1  UNL1        0.1403
     24 F          47.0414    9.3442  -31.0733 F       1  UNL1       -0.2042
     25 C          46.3376   11.5924  -30.7037 C.ar    1  UNL1        0.0327
     26 C          46.0547   12.6361  -29.8174 C.ar    1  UNL1        0.0392
@<TRIPOS>BOND
     1     1     2    1
     2     2     3    1
     3     2    18    1
     4    18    19    1
     5    19    20    1
     6    20    21   ar
     7    21    22   ar
     8    22    23   ar
     9    23    24    1
    10    23    25   ar
    11    25    26   ar
    12     2     5    1
    13     5     6    2
    14     5     7   am
    15     7     8    1
    16     8     9    1
    17     9    10    1
    18    10    11   ar
    19    11    16    1
    20    16    17    3
    21    11    12   ar
    22    12    13   ar
    23    13    14   ar
    24    14    15   ar
    25    26    20   ar
    26    15     7    1
    27    15    10   ar
    28     3     4    1
@<TRIPOS>MOLECULE
*****
 26 28 0 0 0
SMALL
GASTEIGER

@<TRIPOS>ATOM
      1 C          46.9274   16.9611  -26.0786 C.3     1  UNL1        0.0427
      2 C          47.3016   15.5983  -26.7078 C.3     1  UNL1        0.1973
      3 O          47.9863   15.8099  -27.9193 O.3     1  UNL1       -0.3751
      4 H          47.4112   16.3667  -28.5076 H       1  UNL1        0.2110
      5 C          48.2393   14.8305  -25.7935 C.2     1  UNL1        0.2571
      6 O          49.4259   15.2253  -25.6337 O.2     1  UNL1       -0.2719
      7 N          47.7668   13.7349  -24.9972 N.am    1  UNL1       -0.2566
      8 C          46.8506   13.9023  -23.8660 C.3     1  UNL1        0.1030
      9 C          46.9763   12.6165  -23.0140 C.3     1  UNL1        0.0502
     10 C          48.0556   11.8495  -23.6999 C.ar    1  UNL1        0.0029
     11 C          48.6207   10.6196  -23.3389 C.ar    1  UNL1        0.0657
     12 C          49.6417   10.0883  -24.1485 C.ar    1  UNL1        0.0100
     13 C          50.0748   10.7862  -25.2919 C.ar    1  UNL1        0.0019
     14 C          49.4915   12.0157  -25.6323 C.ar    1  UNL1        0.0146
     15 C          48.4801   12.5241  -24.8121 C.ar    1  UNL1        0.0506
     16 C          48.1737    9.9098  -22.1682 C.1     1  UNL1        0.1001
     17 N          47.8145    9.3400  -21.2273 N.1     1  UNL1       -0.1908
     18 C          46.0018   14.7897  -26.9867 C.3     1  UNL1        0.2408
     19 O          45.8681   14.4658  -28.3750 O.3     1  UNL1       -0.4724
     20 C          46.0995   13.2115  -28.9586 C.ar    1  UNL1        0.1388
     21 C          45.9515   12.9746  -30.3389 C.ar    1  UNL1        0.0392
     22 C          46.2043   11.7036  -30.8653 C.ar    1  UNL1        0.0327
     23 C          46.5908   10.6585  -30.0220 C.ar    1  UNL1        0.1403
     24 F          46.8378    9.4282  -30.5353 F       1  UNL1       -0.2042
     25 C          46.7150   10.8808  -28.6482 C.ar    1  UNL1        0.0327
     26 C          46.4636   12.1504  -28.1194 C.ar    1  UNL1        0.0392
@<TRIPOS>BOND
     1     1     2    1
     2     2     3    1
     3     2    18    1
     4    18    19    1
     5    19    20    1
     6    20    21   ar
     7    21    22   ar
     8    22    23   ar
     9    23    24    1
    10    23    25   ar
    11    25    26   ar
    12     2     5    1
    13     5     6    2
    14     5     7   am
    15     7     8    1
    16     8     9    1
    17     9    10    1
    18    10    11   ar
    19    11    16    1
    20    16    17    3
    21    11    12   ar
    22    12    13   ar
    23    13    14   ar
    24    14    15   ar
    25    26    20   ar
    26    15     7    1
    27    15    10   ar
    28     3     4    1
@<TRIPOS>MOLECULE
*****
 26 28 0 0 0
SMALL
GASTEIGER

@<TRIPOS>ATOM
      1 C          48.4642   11.6897  -24.3956 C.3     1  UNL1        0.0427
      2 C          47.6046   12.4860  -23.3856 C.3     1  UNL1        0.1973
      3 O          47.7024   11.8935  -22.1125 O.3     1  UNL1       -0.3751
      4 H          47.4299   10.9415  -22.1916 H       1  UNL1        0.2110
      5 C          48.1183   13.9087  -23.2562 C.2     1  UNL1        0.2571
      6 O          48.5212   14.3335  -22.1396 O.2     1  UNL1       -0.2719
      7 N          48.2824   14.7459  -24.4094 N.am    1  UNL1       -0.2566
      8 C          49.2987   14.5051  -25.4371 C.3     1  UNL1        0.1030
      9 C          49.4633   15.8396  -26.2033 C.3     1  UNL1        0.0502
     10 C          48.5731   16.7782  -25.4614 C.ar    1  UNL1        0.0029
     11 C          48.3590   18.1441  -25.6864 C.ar    1  UNL1        0.0657
     12 C          47.4649   18.8296  -24.8433 C.ar    1  UNL1        0.0100
     13 C          46.8072   18.1466  -23.8028 C.ar    1  UNL1        0.0019
     14 C          47.0381   16.7779  -23.5993 C.ar    1  UNL1        0.0146
     15 C          47.9316   16.1187  -24.4486 C.ar    1  UNL1        0.0506
     16 C          49.0344   18.8379  -26.7525 C.1     1  UNL1        0.1001
     17 N          49.5775   19.3957  -27.6087 N.1     1  UNL1       -0.1908
     18 C          46.1196   12.4648  -23.8495 C.3     1  UNL1        0.2408
     19 O          46.0095   12.2571  -25.2619 O.3     1  UNL1       -0.4724
     20 C          45.9326   13.2572  -26.2423 C.ar    1  UNL1        0.1388
     21 C          46.4019   13.0725  -27.5572 C.ar    1  UNL1        0.0392
     22 C          46.2911   14.1046  -28.4948 C.ar    1  UNL1        0.0327
     23 C          45.7275   15.3294  -28.1275 C.ar    1  UNL1        0.1403
     24 F          45.6188   16.3270  -29.0391 F       1  UNL1       -0.2042
     25 C          45.2830   15.5275  -26.8178 C.ar    1  UNL1        0.0327
     26 C          45.3919   14.4975  -25.8787 C.ar    1  UNL1        0.0392
@<TRIPOS>BOND
     1     1     2    1
     2     2     3    1
     3     2    18    1
     4    18    19    1
     5    19    20    1
     6    20    21   ar
     7    21    22   ar
     8    22    23   ar
     9    23    24    1
    10    23    25   ar
    11    25    26   ar
    12     2     5    1
    13     5     6    2
    14     5     7   am
    15     7     8    1
    16     8     9    1
    17     9    10    1
    18    10    11   ar
    19    11    16    1
    20    16    17    3
    21    11    12   ar
    22    12    13   ar
    23    13    14   ar
    24    14    15   ar
    25    26    20   ar
    26    15     7    1
    27    15    10   ar
    28     3     4    1
