@<TRIPOS>MOLECULE
*****
 38 42 0 0 0
SMALL
GASTEIGER

@<TRIPOS>ATOM
      1 C         -22.0903   -9.7592  -13.2895 C.2     1  UNL1        0.2506
      2 O         -21.8074  -10.0574  -14.4816 O.2     1  UNL1       -0.2699
      3 N         -23.3403   -9.1076  -12.9874 N.am    1  UNL1       -0.2680
      4 C         -24.0823   -9.4714  -11.7758 C.3     1  UNL1        0.1412
      5 C         -23.9079   -8.3931  -10.7087 C.3     1  UNL1        0.2268
      6 O         -23.7774   -7.0966  -11.2888 O.3     1  UNL1       -0.4739
      7 C         -24.6931   -6.5908  -12.2139 C.ar    1  UNL1        0.1362
      8 C         -25.4385   -5.4640  -11.8552 C.ar    1  UNL1        0.0366
      9 C         -26.3880   -4.9331  -12.7277 C.ar    1  UNL1        0.0032
     10 C         -26.5987   -5.5159  -13.9858 C.ar    1  UNL1        0.0022
     11 C         -25.8279   -6.6286  -14.3614 C.ar    1  UNL1        0.0005
     12 C         -24.8756   -7.1828  -13.4878 C.ar    1  UNL1        0.0317
     13 C         -23.9938   -8.2979  -14.0257 C.3     1  UNL1        0.1236
     14 C         -27.5977   -4.9451  -14.9213 C.ar    1  UNL1        0.0290
     15 C         -28.9799   -5.2296  -14.7434 C.ar    1  UNL1        0.0039
     16 C         -29.9444   -4.7012  -15.6213 C.ar    1  UNL1        0.0208
     17 C         -29.5000   -3.8932  -16.6622 C.ar    1  UNL1        0.1008
     18 N         -30.2410   -3.2842  -17.6053 N.ar    1  UNL1       -0.2241
     19 C         -29.3080   -2.6308  -18.3471 C.ar    1  UNL1        0.1750
     20 N         -28.0412   -2.8110  -17.9029 N.ar    1  UNL1       -0.3332
     21 C         -28.1806   -3.6118  -16.8395 C.ar    1  UNL1        0.1034
     22 C         -27.1922   -4.1132  -15.9955 C.ar    1  UNL1        0.1570
     23 F         -25.8915   -3.7759  -16.1878 F       1  UNL1       -0.2026
     24 H         -27.1613   -2.4144  -18.3016 H       1  UNL1        0.1676
     25 C         -20.8003  -11.4459  -11.9236 C.ar    1  UNL1        0.0503
     26 C         -19.8281  -11.6993  -10.9341 C.ar    1  UNL1        0.0328
     27 C         -19.2217  -10.6478  -10.2363 C.ar    1  UNL1        0.1069
     28 C         -19.5761   -9.3274  -10.5261 C.ar    1  UNL1        0.0186
     29 C         -20.5281   -9.0569  -11.5079 C.ar    1  UNL1        0.0071
     30 C         -21.1314  -10.1017  -12.2224 C.ar    1  UNL1        0.0667
     31 S         -18.0007  -10.9926   -9.0154 S.O2    1  UNL1        0.0105
     32 C         -17.9017  -12.7498   -8.7626 C.3     1  UNL1        0.1816
     33 O         -16.6627  -10.4758   -9.4647 O.2     1  UNL1       -0.1686
     34 O         -18.3703  -10.3165   -7.7249 O.2     1  UNL1       -0.1686
     35 N         -21.4768  -12.5313  -12.5977 N.pl3   1  UNL1       -0.3325
     36 H         -22.4788  -12.7266  -12.3774 H       1  UNL1        0.1468
     37 C         -21.8175  -13.6163  -14.7729 C.3     1  UNL1        0.0229
     38 C         -20.8620  -13.3948  -13.6059 C.3     1  UNL1        0.0871
@<TRIPOS>BOND
     1    37    38    1
     2    38    35    1
     3    35    25    1
     4    25    26   ar
     5    26    27   ar
     6    27    31    1
     7    31    32    1
     8    31    33    2
     9    31    34    2
    10    27    28   ar
    11    28    29   ar
    12    29    30   ar
    13    30     1    1
    14     1     2    2
    15     1     3   am
    16     3     4    1
    17     4     5    1
    18     5     6    1
    19     6     7    1
    20     7     8   ar
    21     8     9   ar
    22     9    10   ar
    23    10    14    1
    24    14    15   ar
    25    15    16   ar
    26    16    17   ar
    27    17    18   ar
    28    18    19   ar
    29    19    20   ar
    30    20    21   ar
    31    21    22   ar
    32    22    23    1
    33    10    11   ar
    34    11    12   ar
    35    12    13    1
    36    30    25   ar
    37    13     3    1
    38    12     7   ar
    39    22    14   ar
    40    21    17   ar
    41    35    36    1
    42    20    24    1
@<TRIPOS>MOLECULE
*****
 38 42 0 0 0
SMALL
GASTEIGER

@<TRIPOS>ATOM
      1 C         -23.2086   -8.6206  -10.6989 C.2     1  UNL1        0.2506
      2 O         -24.3197   -9.1987  -10.5531 O.2     1  UNL1       -0.2699
      3 N         -22.9343   -7.8814  -11.9058 N.am    1  UNL1       -0.2680
      4 C         -22.1913   -6.6186  -11.8390 C.3     1  UNL1        0.1412
      5 C         -20.7539   -6.8287  -12.3095 C.3     1  UNL1        0.2268
      6 O         -20.6742   -7.8287  -13.3235 O.3     1  UNL1       -0.4739
      7 C         -21.4649   -7.7979  -14.4742 C.ar    1  UNL1        0.1362
      8 C         -20.8265   -7.6506  -15.7090 C.ar    1  UNL1        0.0366
      9 C         -21.5676   -7.5843  -16.8884 C.ar    1  UNL1        0.0032
     10 C         -22.9664   -7.6785  -16.8528 C.ar    1  UNL1        0.0022
     11 C         -23.6081   -7.8593  -15.6162 C.ar    1  UNL1        0.0005
     12 C         -22.8754   -7.9155  -14.4173 C.ar    1  UNL1        0.0317
     13 C         -23.6361   -8.2484  -13.1441 C.3     1  UNL1        0.1236
     14 C         -23.7562   -7.6225  -18.1066 C.ar    1  UNL1        0.0290
     15 C         -24.4321   -6.4239  -18.4663 C.ar    1  UNL1        0.0039
     16 C         -25.1898   -6.3498  -19.6497 C.ar    1  UNL1        0.0208
     17 C         -25.2517   -7.4840  -20.4518 C.ar    1  UNL1        0.1008
     18 N         -25.9060   -7.6329  -21.6176 N.ar    1  UNL1       -0.2241
     19 C         -25.6216   -8.9167  -21.9618 C.ar    1  UNL1        0.1750
     20 N         -24.8290   -9.5533  -21.0666 N.ar    1  UNL1       -0.3332
     21 C         -24.6062   -8.6348  -20.1190 C.ar    1  UNL1        0.1034
     22 C         -23.8458   -8.7529  -18.9578 C.ar    1  UNL1        0.1570
     23 F         -23.1882   -9.9085  -18.6843 F       1  UNL1       -0.2026
     24 H         -24.4755  -10.5350  -21.1101 H       1  UNL1        0.1676
     25 C         -20.9440   -9.2992   -9.8123 C.ar    1  UNL1        0.0503
     26 C         -20.0176   -9.2884   -8.7493 C.ar    1  UNL1        0.0328
     27 C         -20.3523   -8.7296   -7.5098 C.ar    1  UNL1        0.1069
     28 C         -21.6177   -8.1673   -7.3214 C.ar    1  UNL1        0.0186
     29 C         -22.5435   -8.1600   -8.3637 C.ar    1  UNL1        0.0071
     30 C         -22.2138   -8.7043   -9.6132 C.ar    1  UNL1        0.0667
     31 S         -19.1710   -8.7174   -6.2041 S.O2    1  UNL1        0.0105
     32 C         -20.0157   -8.8554   -4.6457 C.3     1  UNL1        0.1816
     33 O         -18.2186   -9.8697   -6.3605 O.2     1  UNL1       -0.1686
     34 O         -18.3874   -7.4354   -6.2425 O.2     1  UNL1       -0.1686
     35 N         -20.6254   -9.9353  -11.0709 N.pl3   1  UNL1       -0.3325
     36 H         -20.2406   -9.3603  -11.8531 H       1  UNL1        0.1468
     37 C         -21.5666  -11.5754  -12.6358 C.3     1  UNL1        0.0229
     38 C         -20.7857  -11.3636  -11.3438 C.3     1  UNL1        0.0871
@<TRIPOS>BOND
     1    37    38    1
     2    38    35    1
     3    35    25    1
     4    25    26   ar
     5    26    27   ar
     6    27    31    1
     7    31    32    1
     8    31    33    2
     9    31    34    2
    10    27    28   ar
    11    28    29   ar
    12    29    30   ar
    13    30     1    1
    14     1     2    2
    15     1     3   am
    16     3     4    1
    17     4     5    1
    18     5     6    1
    19     6     7    1
    20     7     8   ar
    21     8     9   ar
    22     9    10   ar
    23    10    14    1
    24    14    15   ar
    25    15    16   ar
    26    16    17   ar
    27    17    18   ar
    28    18    19   ar
    29    19    20   ar
    30    20    21   ar
    31    21    22   ar
    32    22    23    1
    33    10    11   ar
    34    11    12   ar
    35    12    13    1
    36    30    25   ar
    37    13     3    1
    38    12     7   ar
    39    22    14   ar
    40    21    17   ar
    41    35    36    1
    42    20    24    1
@<TRIPOS>MOLECULE
*****
 38 42 0 0 0
SMALL
GASTEIGER

@<TRIPOS>ATOM
      1 C         -21.7713   -8.2713   -9.4231 C.2     1  UNL1        0.2506
      2 O         -22.5597   -8.1682   -8.4444 O.2     1  UNL1       -0.2699
      3 N         -22.0675   -7.5942  -10.6609 N.am    1  UNL1       -0.2680
      4 C         -20.9861   -6.9750  -11.4344 C.3     1  UNL1        0.1412
      5 C         -20.6412   -7.8420  -12.6431 C.3     1  UNL1        0.2268
      6 O         -21.7901   -8.5198  -13.1482 O.3     1  UNL1       -0.4739
      7 C         -22.9764   -7.8551  -13.4659 C.ar    1  UNL1        0.1362
      8 C         -23.3957   -7.8558  -14.7994 C.ar    1  UNL1        0.0366
      9 C         -24.5570   -7.1836  -15.1792 C.ar    1  UNL1        0.0032
     10 C         -25.3294   -6.5076  -14.2236 C.ar    1  UNL1        0.0022
     11 C         -24.9276   -6.5330  -12.8777 C.ar    1  UNL1        0.0005
     12 C         -23.7526   -7.1958  -12.4813 C.ar    1  UNL1        0.0317
     13 C         -23.4666   -7.2878  -10.9913 C.3     1  UNL1        0.1236
     14 C         -26.5723   -5.8039  -14.6223 C.ar    1  UNL1        0.0290
     15 C         -26.4946   -4.5591  -15.3059 C.ar    1  UNL1        0.0039
     16 C         -27.6614   -3.8727  -15.6904 C.ar    1  UNL1        0.0208
     17 C         -28.8866   -4.4534  -15.3816 C.ar    1  UNL1        0.1008
     18 N         -30.1148   -3.9794  -15.6573 N.ar    1  UNL1       -0.2241
     19 C         -30.9306   -4.9383  -15.1450 C.ar    1  UNL1        0.1750
     20 N         -30.2617   -5.9686  -14.5741 N.ar    1  UNL1       -0.3332
     21 C         -28.9723   -5.6455  -14.7311 C.ar    1  UNL1        0.1034
     22 C         -27.8444   -6.3588  -14.3318 C.ar    1  UNL1        0.1570
     23 F         -27.9768   -7.5624  -13.7184 F       1  UNL1       -0.2026
     24 H         -30.6637   -6.8175  -14.1179 H       1  UNL1        0.1676
     25 C         -19.6963   -8.9332   -8.1459 C.ar    1  UNL1        0.0503
     26 C         -18.5758   -9.7816   -8.0312 C.ar    1  UNL1        0.0328
     27 C         -18.2875  -10.7293   -9.0208 C.ar    1  UNL1        0.1069
     28 C         -19.1227  -10.8445  -10.1353 C.ar    1  UNL1        0.0186
     29 C         -20.2405  -10.0210  -10.2613 C.ar    1  UNL1        0.0071
     30 C         -20.5464   -9.0783   -9.2694 C.ar    1  UNL1        0.0667
     31 S         -16.8894  -11.7851   -8.8451 S.O2    1  UNL1        0.0105
     32 C         -16.4970  -11.9591   -7.1197 C.3     1  UNL1        0.1816
     33 O         -17.1887  -13.1375   -9.4288 O.2     1  UNL1       -0.1686
     34 O         -15.7146  -11.1948   -9.5735 O.2     1  UNL1       -0.1686
     35 N         -19.9583   -7.9087   -7.1600 N.pl3   1  UNL1       -0.3325
     36 H         -20.7391   -7.2333   -7.3175 H       1  UNL1        0.1468
     37 C         -19.8209   -8.5962   -4.8078 C.3     1  UNL1        0.0229
     38 C         -19.2096   -7.7439   -5.9141 C.3     1  UNL1        0.0871
@<TRIPOS>BOND
     1    37    38    1
     2    38    35    1
     3    35    25    1
     4    25    26   ar
     5    26    27   ar
     6    27    31    1
     7    31    32    1
     8    31    33    2
     9    31    34    2
    10    27    28   ar
    11    28    29   ar
    12    29    30   ar
    13    30     1    1
    14     1     2    2
    15     1     3   am
    16     3     4    1
    17     4     5    1
    18     5     6    1
    19     6     7    1
    20     7     8   ar
    21     8     9   ar
    22     9    10   ar
    23    10    14    1
    24    14    15   ar
    25    15    16   ar
    26    16    17   ar
    27    17    18   ar
    28    18    19   ar
    29    19    20   ar
    30    20    21   ar
    31    21    22   ar
    32    22    23    1
    33    10    11   ar
    34    11    12   ar
    35    12    13    1
    36    30    25   ar
    37    13     3    1
    38    12     7   ar
    39    22    14   ar
    40    21    17   ar
    41    35    36    1
    42    20    24    1
@<TRIPOS>MOLECULE
*****
 38 42 0 0 0
SMALL
GASTEIGER

@<TRIPOS>ATOM
      1 C         -22.1357   -8.1281   -9.4950 C.2     1  UNL1        0.2506
      2 O         -22.9423   -7.9942   -8.5351 O.2     1  UNL1       -0.2699
      3 N         -22.3848   -7.4534  -10.7444 N.am    1  UNL1       -0.2680
      4 C         -21.2692   -6.8720  -11.4984 C.3     1  UNL1        0.1412
      5 C         -20.9227   -7.7588  -12.6922 C.3     1  UNL1        0.2268
      6 O         -22.0792   -8.4077  -13.2175 O.3     1  UNL1       -0.4739
      7 C         -23.2385   -7.7120  -13.5669 C.ar    1  UNL1        0.1362
      8 C         -23.6280   -7.7120  -14.9094 C.ar    1  UNL1        0.0366
      9 C         -24.7608   -7.0102  -15.3204 C.ar    1  UNL1        0.0032
     10 C         -25.5344   -6.3042  -14.3877 C.ar    1  UNL1        0.0022
     11 C         -25.1634   -6.3296  -13.0330 C.ar    1  UNL1        0.0005
     12 C         -24.0170   -7.0224  -12.6051 C.ar    1  UNL1        0.0317
     13 C         -23.7668   -7.1099  -11.1084 C.3     1  UNL1        0.1236
     14 C         -26.7473   -5.5687  -14.8196 C.ar    1  UNL1        0.0290
     15 C         -26.6187   -4.3638  -15.5645 C.ar    1  UNL1        0.0039
     16 C         -27.7563   -3.6480  -15.9815 C.ar    1  UNL1        0.0208
     17 C         -29.0042   -4.1597  -15.6428 C.ar    1  UNL1        0.1008
     18 N         -30.2119   -3.6478  -15.9405 N.ar    1  UNL1       -0.2241
     19 C         -31.0663   -4.5443  -15.3801 C.ar    1  UNL1        0.1750
     20 N         -30.4402   -5.5726  -14.7594 N.ar    1  UNL1       -0.3332
     21 C         -29.1387   -5.3132  -14.9336 C.ar    1  UNL1        0.1034
     22 C         -28.0410   -6.0534  -14.5005 C.ar    1  UNL1        0.1570
     23 F         -28.2228   -7.2183  -13.8278 F       1  UNL1       -0.2026
     24 H         -30.8766   -6.3798  -14.2610 H       1  UNL1        0.1676
     25 C         -20.6838  -10.0940  -10.1289 C.ar    1  UNL1        0.0503
     26 C         -19.4878  -10.8158   -9.9360 C.ar    1  UNL1        0.0328
     27 C         -18.5813  -10.4500   -8.9336 C.ar    1  UNL1        0.1069
     28 C         -18.8577   -9.3511   -8.1157 C.ar    1  UNL1        0.0186
     29 C         -20.0303   -8.6195   -8.2977 C.ar    1  UNL1        0.0071
     30 C         -20.9383   -8.9686   -9.3076 C.ar    1  UNL1        0.0667
     31 S         -17.0890  -11.3609   -8.7240 S.O2    1  UNL1        0.0105
     32 C         -17.3446  -13.0385   -9.2547 C.3     1  UNL1        0.1816
     33 O         -15.9884  -10.7407   -9.5386 O.2     1  UNL1       -0.1686
     34 O         -16.6852  -11.3447   -7.2763 O.2     1  UNL1       -0.1686
     35 N         -21.6529  -10.5099  -11.1179 N.pl3   1  UNL1       -0.3325
     36 H         -22.5556   -9.9913  -11.2009 H       1  UNL1        0.1468
     37 C         -22.6571  -11.7357  -12.9923 C.3     1  UNL1        0.0229
     38 C         -21.4627  -11.6193  -12.0522 C.3     1  UNL1        0.0871
@<TRIPOS>BOND
     1    37    38    1
     2    38    35    1
     3    35    25    1
     4    25    26   ar
     5    26    27   ar
     6    27    31    1
     7    31    32    1
     8    31    33    2
     9    31    34    2
    10    27    28   ar
    11    28    29   ar
    12    29    30   ar
    13    30     1    1
    14     1     2    2
    15     1     3   am
    16     3     4    1
    17     4     5    1
    18     5     6    1
    19     6     7    1
    20     7     8   ar
    21     8     9   ar
    22     9    10   ar
    23    10    14    1
    24    14    15   ar
    25    15    16   ar
    26    16    17   ar
    27    17    18   ar
    28    18    19   ar
    29    19    20   ar
    30    20    21   ar
    31    21    22   ar
    32    22    23    1
    33    10    11   ar
    34    11    12   ar
    35    12    13    1
    36    30    25   ar
    37    13     3    1
    38    12     7   ar
    39    22    14   ar
    40    21    17   ar
    41    35    36    1
    42    20    24    1
@<TRIPOS>MOLECULE
*****
 38 42 0 0 0
SMALL
GASTEIGER

@<TRIPOS>ATOM
      1 C         -22.0421   -9.5589  -13.2625 C.2     1  UNL1        0.2506
      2 O         -21.7590   -9.8415  -14.4584 O.2     1  UNL1       -0.2699
      3 N         -23.3198   -8.9720  -12.9443 N.am    1  UNL1       -0.2680
      4 C         -24.0274   -9.3740  -11.7241 C.3     1  UNL1        0.1412
      5 C         -23.8950   -8.2889  -10.6579 C.3     1  UNL1        0.2268
      6 O         -23.8378   -6.9870  -11.2378 O.3     1  UNL1       -0.4739
      7 C         -24.7894   -6.5279  -12.1510 C.ar    1  UNL1        0.1362
      8 C         -25.5867   -5.4407  -11.7816 C.ar    1  UNL1        0.0366
      9 C         -26.5726   -4.9583  -12.6418 C.ar    1  UNL1        0.0032
     10 C         -26.7689   -5.5502  -13.8979 C.ar    1  UNL1        0.0022
     11 C         -25.9471   -6.6220  -14.2845 C.ar    1  UNL1        0.0005
     12 C         -24.9572   -7.1276  -13.4233 C.ar    1  UNL1        0.0317
     13 C         -24.0264   -8.1960  -13.9734 C.3     1  UNL1        0.1236
     14 C         -27.8071   -5.0304  -14.8203 C.ar    1  UNL1        0.0290
     15 C         -29.1586   -5.4493  -14.6757 C.ar    1  UNL1        0.0039
     16 C         -30.1592   -4.9712  -15.5421 C.ar    1  UNL1        0.0208
     17 C         -29.7812   -4.0773  -16.5381 C.ar    1  UNL1        0.1008
     18 N         -30.5660   -3.4953  -17.4626 N.ar    1  UNL1       -0.2241
     19 C         -29.6903   -2.7243  -18.1599 C.ar    1  UNL1        0.1750
     20 N         -28.4167   -2.8077  -17.7063 N.ar    1  UNL1       -0.3332
     21 C         -28.4919   -3.6673  -16.6832 C.ar    1  UNL1        0.1034
     22 C         -27.4698   -4.1147  -15.8491 C.ar    1  UNL1        0.1570
     23 F         -26.2042   -3.6502  -16.0069 F       1  UNL1       -0.2026
     24 H         -27.5735   -2.3132  -18.0736 H       1  UNL1        0.1676
     25 C         -20.4323   -8.8211  -11.4627 C.ar    1  UNL1        0.0503
     26 C         -19.5448   -9.1757  -10.4259 C.ar    1  UNL1        0.0328
     27 C         -19.2565  -10.5187  -10.1545 C.ar    1  UNL1        0.1069
     28 C         -19.8597  -11.5249  -10.9139 C.ar    1  UNL1        0.0186
     29 C         -20.7473  -11.1939  -11.9367 C.ar    1  UNL1        0.0071
     30 C         -21.0539   -9.8528  -12.2078 C.ar    1  UNL1        0.0667
     31 S         -18.1550  -10.9332   -8.8449 S.O2    1  UNL1        0.0105
     32 C         -18.5144   -9.9176   -7.4305 C.3     1  UNL1        0.1816
     33 O         -18.3165  -12.3812   -8.4749 O.2     1  UNL1       -0.1686
     34 O         -16.7363  -10.7033   -9.2848 O.2     1  UNL1       -0.1686
     35 N         -20.6797   -7.4345  -11.7892 N.pl3   1  UNL1       -0.3325
     36 H         -20.8463   -7.1638  -12.7840 H       1  UNL1        0.1468
     37 C         -21.3139   -5.0884  -11.4455 C.3     1  UNL1        0.0229
     38 C         -20.7347   -6.3479  -10.8113 C.3     1  UNL1        0.0871
@<TRIPOS>BOND
     1    37    38    1
     2    38    35    1
     3    35    25    1
     4    25    26   ar
     5    26    27   ar
     6    27    31    1
     7    31    32    1
     8    31    33    2
     9    31    34    2
    10    27    28   ar
    11    28    29   ar
    12    29    30   ar
    13    30     1    1
    14     1     2    2
    15     1     3   am
    16     3     4    1
    17     4     5    1
    18     5     6    1
    19     6     7    1
    20     7     8   ar
    21     8     9   ar
    22     9    10   ar
    23    10    14    1
    24    14    15   ar
    25    15    16   ar
    26    16    17   ar
    27    17    18   ar
    28    18    19   ar
    29    19    20   ar
    30    20    21   ar
    31    21    22   ar
    32    22    23    1
    33    10    11   ar
    34    11    12   ar
    35    12    13    1
    36    30    25   ar
    37    13     3    1
    38    12     7   ar
    39    22    14   ar
    40    21    17   ar
    41    35    36    1
    42    20    24    1
@<TRIPOS>MOLECULE
*****
 38 42 0 0 0
SMALL
GASTEIGER

@<TRIPOS>ATOM
      1 C         -22.1634   -8.0537   -9.5781 C.2     1  UNL1        0.2506
      2 O         -22.9800   -7.8996   -8.6297 O.2     1  UNL1       -0.2699
      3 N         -22.3892   -7.3898  -10.8378 N.am    1  UNL1       -0.2680
      4 C         -21.2577   -6.8301  -11.5843 C.3     1  UNL1        0.1412
      5 C         -20.9074   -7.7340  -12.7641 C.3     1  UNL1        0.2268
      6 O         -22.0652   -8.3750  -13.2964 O.3     1  UNL1       -0.4739
      7 C         -23.2118   -7.6695  -13.6675 C.ar    1  UNL1        0.1362
      8 C         -23.5849   -7.6797  -15.0147 C.ar    1  UNL1        0.0366
      9 C         -24.7041   -6.9690  -15.4471 C.ar    1  UNL1        0.0032
     10 C         -25.4804   -6.2437  -14.5317 C.ar    1  UNL1        0.0022
     11 C         -25.1262   -6.2585  -13.1723 C.ar    1  UNL1        0.0005
     12 C         -23.9935   -6.9601  -12.7229 C.ar    1  UNL1        0.0317
     13 C         -23.7626   -7.0340  -11.2224 C.3     1  UNL1        0.1236
     14 C         -26.6792   -5.4986  -14.9864 C.ar    1  UNL1        0.0290
     15 C         -27.9300   -5.7059  -14.3419 C.ar    1  UNL1        0.0039
     16 C         -29.0809   -5.0120  -14.7594 C.ar    1  UNL1        0.0208
     17 C         -28.9513   -4.1193  -15.8177 C.ar    1  UNL1        0.1008
     18 N         -29.9090   -3.3533  -16.3703 N.ar    1  UNL1       -0.2241
     19 C         -29.2361   -2.6828  -17.3424 C.ar    1  UNL1        0.1750
     20 N         -27.9212   -3.0014  -17.4077 N.ar    1  UNL1       -0.3332
     21 C         -27.7588   -3.9107  -16.4391 C.ar    1  UNL1        0.1034
     22 C         -26.5950   -4.5755  -16.0594 C.ar    1  UNL1        0.1570
     23 F         -25.4193   -4.3086  -16.6830 F       1  UNL1       -0.2026
     24 H         -27.2031   -2.6222  -18.0642 H       1  UNL1        0.1676
     25 C         -20.7306  -10.0468  -10.1691 C.ar    1  UNL1        0.0503
     26 C         -19.5458  -10.7805   -9.9542 C.ar    1  UNL1        0.0328
     27 C         -18.6441  -10.4112   -8.9487 C.ar    1  UNL1        0.1069
     28 C         -18.9142   -9.2969   -8.1497 C.ar    1  UNL1        0.0186
     29 C         -20.0757   -8.5535   -8.3537 C.ar    1  UNL1        0.0071
     30 C         -20.9785   -8.9062   -9.3670 C.ar    1  UNL1        0.0667
     31 S         -17.1654  -11.3374   -8.7115 S.O2    1  UNL1        0.0105
     32 C         -17.4316  -13.0149   -9.2373 C.3     1  UNL1        0.1816
     33 O         -16.0456  -10.7340   -9.5123 O.2     1  UNL1       -0.1686
     34 O         -16.7837  -11.3180   -7.2578 O.2     1  UNL1       -0.1686
     35 N         -21.6957  -10.4652  -11.1610 N.pl3   1  UNL1       -0.3325
     36 H         -22.5906   -9.9361  -11.2608 H       1  UNL1        0.1468
     37 C         -22.7106  -11.7235  -13.0080 C.3     1  UNL1        0.0229
     38 C         -21.5112  -11.5914  -12.0763 C.3     1  UNL1        0.0871
@<TRIPOS>BOND
     1    37    38    1
     2    38    35    1
     3    35    25    1
     4    25    26   ar
     5    26    27   ar
     6    27    31    1
     7    31    32    1
     8    31    33    2
     9    31    34    2
    10    27    28   ar
    11    28    29   ar
    12    29    30   ar
    13    30     1    1
    14     1     2    2
    15     1     3   am
    16     3     4    1
    17     4     5    1
    18     5     6    1
    19     6     7    1
    20     7     8   ar
    21     8     9   ar
    22     9    10   ar
    23    10    14    1
    24    14    15   ar
    25    15    16   ar
    26    16    17   ar
    27    17    18   ar
    28    18    19   ar
    29    19    20   ar
    30    20    21   ar
    31    21    22   ar
    32    22    23    1
    33    10    11   ar
    34    11    12   ar
    35    12    13    1
    36    30    25   ar
    37    13     3    1
    38    12     7   ar
    39    22    14   ar
    40    21    17   ar
    41    35    36    1
    42    20    24    1
@<TRIPOS>MOLECULE
*****
 38 42 0 0 0
SMALL
GASTEIGER

@<TRIPOS>ATOM
      1 C         -21.4373   -7.6264  -11.9281 C.2     1  UNL1        0.2506
      2 O         -20.6861   -7.2602  -12.8724 O.2     1  UNL1       -0.2699
      3 N         -22.8648   -7.6790  -12.1226 N.am    1  UNL1       -0.2680
      4 C         -23.6455   -8.7699  -11.5297 C.3     1  UNL1        0.1412
      5 C         -24.3970   -8.2696  -10.2981 C.3     1  UNL1        0.2268
      6 O         -24.7831   -6.9036  -10.4375 O.3     1  UNL1       -0.4739
      7 C         -25.4863   -6.4303  -11.5474 C.ar    1  UNL1        0.1362
      8 C         -26.7753   -5.9281  -11.3460 C.ar    1  UNL1        0.0366
      9 C         -27.5347   -5.4690  -12.4217 C.ar    1  UNL1        0.0032
     10 C         -27.0091   -5.4922  -13.7216 C.ar    1  UNL1        0.0022
     11 C         -25.7019   -5.9661  -13.9220 C.ar    1  UNL1        0.0005
     12 C         -24.9284   -6.4439  -12.8493 C.ar    1  UNL1        0.0317
     13 C         -23.4811   -6.8097  -13.1351 C.3     1  UNL1        0.1236
     14 C         -27.8091   -4.9915  -14.8654 C.ar    1  UNL1        0.0290
     15 C         -29.1804   -5.3503  -14.9831 C.ar    1  UNL1        0.0039
     16 C         -29.9571   -4.8893  -16.0621 C.ar    1  UNL1        0.0208
     17 C         -29.3395   -4.0725  -17.0030 C.ar    1  UNL1        0.1008
     18 N         -29.8883   -3.5194  -18.0995 N.ar    1  UNL1       -0.2241
     19 C         -28.8515   -2.8255  -18.6389 C.ar    1  UNL1        0.1750
     20 N         -27.7038   -2.9282  -17.9269 N.ar    1  UNL1       -0.3332
     21 C         -28.0294   -3.7203  -16.8983 C.ar    1  UNL1        0.1034
     22 C         -27.2234   -4.1536  -15.8479 C.ar    1  UNL1        0.1570
     23 F         -25.9312   -3.7469  -15.7633 F       1  UNL1       -0.2026
     24 H         -26.7799   -2.4887  -18.1362 H       1  UNL1        0.1676
     25 C         -20.1917   -9.2619  -10.4624 C.ar    1  UNL1        0.0503
     26 C         -19.5748   -9.5373   -9.2247 C.ar    1  UNL1        0.0328
     27 C         -19.6146   -8.6070   -8.1790 C.ar    1  UNL1        0.1069
     28 C         -20.2671   -7.3849   -8.3622 C.ar    1  UNL1        0.0186
     29 C         -20.8744   -7.0908   -9.5821 C.ar    1  UNL1        0.0071
     30 C         -20.8284   -8.0093  -10.6405 C.ar    1  UNL1        0.0667
     31 S         -18.8239   -8.9716   -6.6485 S.O2    1  UNL1        0.0105
     32 C         -18.0245   -7.5063   -6.0359 C.3     1  UNL1        0.1816
     33 O         -19.8378   -9.4449   -5.6449 O.2     1  UNL1       -0.1686
     34 O         -17.8036  -10.0565   -6.8517 O.2     1  UNL1       -0.1686
     35 N         -20.2105  -10.2471  -11.5203 N.pl3   1  UNL1       -0.3325
     36 H         -19.7270  -10.0399  -12.4226 H       1  UNL1        0.1468
     37 C         -21.6048  -11.8779  -12.7123 C.3     1  UNL1        0.0229
     38 C         -20.8550  -11.5568  -11.4244 C.3     1  UNL1        0.0871
@<TRIPOS>BOND
     1    37    38    1
     2    38    35    1
     3    35    25    1
     4    25    26   ar
     5    26    27   ar
     6    27    31    1
     7    31    32    1
     8    31    33    2
     9    31    34    2
    10    27    28   ar
    11    28    29   ar
    12    29    30   ar
    13    30     1    1
    14     1     2    2
    15     1     3   am
    16     3     4    1
    17     4     5    1
    18     5     6    1
    19     6     7    1
    20     7     8   ar
    21     8     9   ar
    22     9    10   ar
    23    10    14    1
    24    14    15   ar
    25    15    16   ar
    26    16    17   ar
    27    17    18   ar
    28    18    19   ar
    29    19    20   ar
    30    20    21   ar
    31    21    22   ar
    32    22    23    1
    33    10    11   ar
    34    11    12   ar
    35    12    13    1
    36    30    25   ar
    37    13     3    1
    38    12     7   ar
    39    22    14   ar
    40    21    17   ar
    41    35    36    1
    42    20    24    1
@<TRIPOS>MOLECULE
*****
 38 42 0 0 0
SMALL
GASTEIGER

@<TRIPOS>ATOM
      1 C         -22.6942   -9.8951  -10.9327 C.2     1  UNL1        0.2506
      2 O         -23.3184  -10.9898  -10.8862 O.2     1  UNL1       -0.2699
      3 N         -22.8219   -9.0419  -12.0877 N.am    1  UNL1       -0.2680
      4 C         -22.8858   -7.5862  -11.9200 C.3     1  UNL1        0.1412
      5 C         -21.5486   -6.9541  -12.2995 C.3     1  UNL1        0.2268
      6 O         -20.9030   -7.6788  -13.3448 O.3     1  UNL1       -0.4739
      7 C         -21.5424   -7.9983  -14.5445 C.ar    1  UNL1        0.1362
      8 C         -21.0424   -7.4433  -15.7261 C.ar    1  UNL1        0.0366
      9 C         -21.6585   -7.7043  -16.9497 C.ar    1  UNL1        0.0032
     10 C         -22.7826   -8.5403  -17.0133 C.ar    1  UNL1        0.0022
     11 C         -23.2672   -9.1252  -15.8315 C.ar    1  UNL1        0.0005
     12 C         -22.6645   -8.8618  -14.5887 C.ar    1  UNL1        0.0317
     13 C         -23.1678   -9.6411  -13.3846 C.3     1  UNL1        0.1236
     14 C         -23.4312   -8.8309  -18.3147 C.ar    1  UNL1        0.0290
     15 C         -23.3499  -10.1370  -18.8719 C.ar    1  UNL1        0.0039
     16 C         -23.9550  -10.4338  -20.1072 C.ar    1  UNL1        0.0208
     17 C         -24.6338   -9.4100  -20.7590 C.ar    1  UNL1        0.1008
     18 N         -25.2843   -9.4719  -21.9348 N.ar    1  UNL1       -0.2241
     19 C         -25.7601   -8.2074  -22.0837 C.ar    1  UNL1        0.1750
     20 N         -25.4330   -7.3828  -21.0600 N.ar    1  UNL1       -0.3332
     21 C         -24.7207   -8.1579  -20.2333 C.ar    1  UNL1        0.1034
     22 C         -24.1371   -7.8197  -19.0145 C.ar    1  UNL1        0.1570
     23 F         -24.2809   -6.5678  -18.5101 F       1  UNL1       -0.2026
     24 H         -25.6817   -6.3750  -20.9463 H       1  UNL1        0.1676
     25 C         -22.4146   -9.1835   -8.5264 C.ar    1  UNL1        0.0503
     26 C         -21.5478   -8.8812   -7.4560 C.ar    1  UNL1        0.0328
     27 C         -20.1595   -8.8680   -7.6372 C.ar    1  UNL1        0.1069
     28 C         -19.6208   -9.1649   -8.8920 C.ar    1  UNL1        0.0186
     29 C         -20.4615   -9.4755   -9.9598 C.ar    1  UNL1        0.0071
     30 C         -21.8526   -9.5054   -9.7859 C.ar    1  UNL1        0.0667
     31 S         -19.1001   -8.5007   -6.2796 S.O2    1  UNL1        0.0105
     32 C         -19.9649   -8.8123   -4.7577 C.3     1  UNL1        0.1816
     33 O         -17.8685   -9.3603   -6.3401 O.2     1  UNL1       -0.1686
     34 O         -18.6842   -7.0575   -6.3381 O.2     1  UNL1       -0.1686
     35 N         -23.8498   -9.1318   -8.3595 N.pl3   1  UNL1       -0.3325
     36 H         -24.3258   -8.2042   -8.2985 H       1  UNL1        0.1468
     37 C         -26.0510  -10.0277   -8.9729 C.3     1  UNL1        0.0229
     38 C         -24.7200  -10.3052   -8.2834 C.3     1  UNL1        0.0871
@<TRIPOS>BOND
     1    37    38    1
     2    38    35    1
     3    35    25    1
     4    25    26   ar
     5    26    27   ar
     6    27    31    1
     7    31    32    1
     8    31    33    2
     9    31    34    2
    10    27    28   ar
    11    28    29   ar
    12    29    30   ar
    13    30     1    1
    14     1     2    2
    15     1     3   am
    16     3     4    1
    17     4     5    1
    18     5     6    1
    19     6     7    1
    20     7     8   ar
    21     8     9   ar
    22     9    10   ar
    23    10    14    1
    24    14    15   ar
    25    15    16   ar
    26    16    17   ar
    27    17    18   ar
    28    18    19   ar
    29    19    20   ar
    30    20    21   ar
    31    21    22   ar
    32    22    23    1
    33    10    11   ar
    34    11    12   ar
    35    12    13    1
    36    30    25   ar
    37    13     3    1
    38    12     7   ar
    39    22    14   ar
    40    21    17   ar
    41    35    36    1
    42    20    24    1
@<TRIPOS>MOLECULE
*****
 38 42 0 0 0
SMALL
GASTEIGER

@<TRIPOS>ATOM
      1 C         -21.3475   -6.8236  -10.9146 C.2     1  UNL1        0.2506
      2 O         -21.3005   -5.6571  -10.4380 O.2     1  UNL1       -0.2699
      3 N         -22.2480   -7.1221  -12.0002 N.am    1  UNL1       -0.2680
      4 C         -21.8250   -8.0247  -13.0761 C.3     1  UNL1        0.1412
      5 C         -22.4783   -9.3938  -12.9011 C.3     1  UNL1        0.2268
      6 O         -23.7766   -9.2857  -12.3205 O.3     1  UNL1       -0.4739
      7 C         -24.7628   -8.4414  -12.8351 C.ar    1  UNL1        0.1362
      8 C         -25.9284   -9.0223  -13.3432 C.ar    1  UNL1        0.0366
      9 C         -26.9341   -8.2301  -13.8960 C.ar    1  UNL1        0.0032
     10 C         -26.7954   -6.8352  -13.9374 C.ar    1  UNL1        0.0022
     11 C         -25.6393   -6.2469  -13.3979 C.ar    1  UNL1        0.0005
     12 C         -24.6111   -7.0331  -12.8485 C.ar    1  UNL1        0.0317
     13 C         -23.4614   -6.3095  -12.1668 C.3     1  UNL1        0.1236
     14 C         -27.8694   -5.9893  -14.5118 C.ar    1  UNL1        0.0290
     15 C         -29.2332   -6.3204  -14.2809 C.ar    1  UNL1        0.0039
     16 C         -30.2682   -5.5335  -14.8193 C.ar    1  UNL1        0.0208
     17 C         -29.9114   -4.4250  -15.5792 C.ar    1  UNL1        0.1008
     18 N         -30.7285   -3.5398  -16.1777 N.ar    1  UNL1       -0.2241
     19 C         -29.8592   -2.6749  -16.7641 C.ar    1  UNL1        0.1750
     20 N         -28.5587   -2.9888  -16.5520 N.ar    1  UNL1       -0.3332
     21 C         -28.6099   -4.0971  -15.8034 C.ar    1  UNL1        0.1034
     22 C         -27.5540   -4.8472  -15.2907 C.ar    1  UNL1        0.1570
     23 F         -26.2708   -4.4618  -15.5084 F       1  UNL1       -0.2026
     24 H         -27.7139   -2.4800  -16.8955 H       1  UNL1        0.1676
     25 C         -20.7141   -8.4518   -9.0918 C.ar    1  UNL1        0.0503
     26 C         -19.8608   -9.4812   -8.6439 C.ar    1  UNL1        0.0328
     27 C         -18.7650   -9.8919   -9.4126 C.ar    1  UNL1        0.1069
     28 C         -18.5139   -9.2814  -10.6444 C.ar    1  UNL1        0.0186
     29 C         -19.3520   -8.2686  -11.1082 C.ar    1  UNL1        0.0071
     30 C         -20.4603   -7.8593  -10.3530 C.ar    1  UNL1        0.0667
     31 S         -17.7240  -11.1893   -8.8352 S.O2    1  UNL1        0.0105
     32 C         -18.2177  -12.7205   -9.5921 C.3     1  UNL1        0.1816
     33 O         -16.2923  -10.8962   -9.1871 O.2     1  UNL1       -0.1686
     34 O         -17.8395  -11.3039   -7.3410 O.2     1  UNL1       -0.1686
     35 N         -21.8059   -7.9795   -8.2702 N.pl3   1  UNL1       -0.3325
     36 H         -21.8093   -6.9880   -7.9424 H       1  UNL1        0.1468
     37 C         -23.8684   -9.0591   -9.0482 C.3     1  UNL1        0.0229
     38 C         -22.9500   -8.7940   -7.8606 C.3     1  UNL1        0.0871
@<TRIPOS>BOND
     1    37    38    1
     2    38    35    1
     3    35    25    1
     4    25    26   ar
     5    26    27   ar
     6    27    31    1
     7    31    32    1
     8    31    33    2
     9    31    34    2
    10    27    28   ar
    11    28    29   ar
    12    29    30   ar
    13    30     1    1
    14     1     2    2
    15     1     3   am
    16     3     4    1
    17     4     5    1
    18     5     6    1
    19     6     7    1
    20     7     8   ar
    21     8     9   ar
    22     9    10   ar
    23    10    14    1
    24    14    15   ar
    25    15    16   ar
    26    16    17   ar
    27    17    18   ar
    28    18    19   ar
    29    19    20   ar
    30    20    21   ar
    31    21    22   ar
    32    22    23    1
    33    10    11   ar
    34    11    12   ar
    35    12    13    1
    36    30    25   ar
    37    13     3    1
    38    12     7   ar
    39    22    14   ar
    40    21    17   ar
    41    35    36    1
    42    20    24    1
