@<TRIPOS>MOLECULE
*****
 37 41 0 0 0
SMALL
GASTEIGER

@<TRIPOS>ATOM
      1 C         -21.2456   -7.4201   -8.9469 C.2     1  UNL1        0.2490
      2 O         -22.0089   -6.6336   -8.3219 O.2     1  UNL1       -0.2699
      3 N         -21.3848   -7.5598  -10.3740 N.am    1  UNL1       -0.2760
      4 C         -20.1779   -7.6165  -11.2144 C.3     1  UNL1        0.0954
      5 C         -20.5095   -7.3722  -12.6920 C.3     1  UNL1        0.0399
      6 C         -21.6675   -8.2806  -13.1900 C.3     1  UNL1        0.0645
      7 C         -22.8896   -8.2392  -12.2066 C.3     1  UNL1        0.0399
      8 C         -22.6927   -7.3188  -10.9956 C.3     1  UNL1        0.0954
      9 C         -21.1402   -9.7561  -13.3143 C.3     1  UNL1        0.0474
     10 C         -22.0653  -10.5983  -14.1542 C.ar    1  UNL1        0.0164
     11 C         -22.8057  -10.0650  -15.1603 C.ar    1  UNL1        0.1511
     12 N         -23.4536  -11.0223  -15.8339 N.ar    1  UNL1       -0.1654
     13 N         -23.1418  -12.1948  -15.2871 N.ar    1  UNL1       -0.2588
     14 C         -22.2528  -11.9750  -14.2618 C.ar    1  UNL1        0.0527
     15 C         -22.8225   -8.6344  -15.4224 C.2     1  UNL1        0.2649
     16 O         -23.4272   -8.1578  -16.4190 O.2     1  UNL1       -0.2684
     17 N         -22.1123   -7.7825  -14.5131 N.am    1  UNL1       -0.3023
     18 H         -22.0938   -6.7568  -14.7150 H       1  UNL1        0.1497
     19 C         -18.4099   -8.0541   -4.9232 C.ar    1  UNL1        0.2248
     20 N         -17.4563   -8.7767   -4.2702 N.ar    1  UNL1       -0.2101
     21 C         -16.8819   -9.8798   -4.8161 C.ar    1  UNL1        0.1021
     22 C         -17.2598  -10.3110   -6.0869 C.ar    1  UNL1        0.0209
     23 C         -18.2366   -9.5979   -6.7926 C.ar    1  UNL1        0.0060
     24 C         -18.6301  -10.0073   -8.0737 C.ar    1  UNL1        0.0003
     25 C         -19.6073   -9.2937   -8.7705 C.ar    1  UNL1        0.0045
     26 C         -20.2146   -8.1671   -8.1944 C.ar    1  UNL1        0.0537
     27 C         -19.8071   -7.7391   -6.9196 C.ar    1  UNL1        0.0092
     28 C         -18.8260   -8.4522   -6.2082 C.ar    1  UNL1        0.0534
     29 C         -18.9584   -6.7205   -2.9096 C.3     1  UNL1        0.2542
     30 O         -18.9712   -6.9232   -4.3175 O.3     1  UNL1       -0.4561
     31 C         -23.7138  -13.4670  -15.8104 C.3     1  UNL1        0.0863
     32 C         -24.7175  -14.0822  -14.8070 C.3     1  UNL1        0.0244
     33 C         -24.5015  -13.1901  -17.1181 C.3     1  UNL1        0.0244
     34 C         -22.5869  -14.4606  -16.1629 C.3     1  UNL1        0.0244
     35 C         -21.5991  -13.0235  -13.3733 C.3     1  UNL1        0.0397
     36 C         -21.2261  -12.4318  -12.0096 C.3     1  UNL1        0.0063
     37 C         -20.3943  -13.6914  -14.0507 C.3     1  UNL1        0.0063
@<TRIPOS>BOND
     1    29    30    1
     2    30    19    1
     3    19    20   ar
     4    20    21   ar
     5    21    22   ar
     6    22    23   ar
     7    23    24   ar
     8    24    25   ar
     9    25    26   ar
    10    26     1    1
    11     1     2    2
    12     1     3   am
    13     3     4    1
    14     4     5    1
    15     5     6    1
    16     6     7    1
    17     7     8    1
    18     6     9    1
    19     9    10    1
    20    10    11   ar
    21    11    12   ar
    22    12    13   ar
    23    13    31    1
    24    31    32    1
    25    31    33    1
    26    31    34    1
    27    13    14   ar
    28    14    35    1
    29    35    36    1
    30    35    37    1
    31    11    15    1
    32    15    16    2
    33    15    17   am
    34    26    27   ar
    35    27    28   ar
    36    28    19   ar
    37    28    23   ar
    38     8     3    1
    39    14    10   ar
    40    17     6    1
    41    17    18    1
@<TRIPOS>MOLECULE
*****
 37 41 0 0 0
SMALL
GASTEIGER

@<TRIPOS>ATOM
      1 C         -20.0812   -8.8319   -7.7312 C.2     1  UNL1        0.2490
      2 O         -20.5875   -8.3760   -6.6693 O.2     1  UNL1       -0.2699
      3 N         -20.6738   -8.4970   -9.0010 N.am    1  UNL1       -0.2760
      4 C         -19.8018   -8.1550  -10.1361 C.3     1  UNL1        0.0954
      5 C         -20.5850   -7.4611  -11.2579 C.3     1  UNL1        0.0399
      6 C         -21.8597   -8.2540  -11.6587 C.3     1  UNL1        0.0645
      7 C         -22.7005   -8.6598  -10.3975 C.3     1  UNL1        0.0399
      8 C         -22.1069   -8.1850   -9.0654 C.3     1  UNL1        0.0954
      9 C         -21.4301   -9.5458  -12.4443 C.3     1  UNL1        0.0474
     10 C         -22.5925  -10.1400  -13.1966 C.ar    1  UNL1        0.0164
     11 C         -23.6057   -9.3719  -13.6744 C.ar    1  UNL1        0.1511
     12 N         -24.4547  -10.1039  -14.4048 N.ar    1  UNL1       -0.1654
     13 N         -24.0076  -11.3572  -14.4243 N.ar    1  UNL1       -0.2588
     14 C         -22.8324  -11.4120  -13.7131 C.ar    1  UNL1        0.0527
     15 C         -23.6768   -7.9446  -13.4038 C.2     1  UNL1        0.2649
     16 O         -24.5595   -7.2201  -13.9347 O.2     1  UNL1       -0.2684
     17 N         -22.6953   -7.3847  -12.5205 N.am    1  UNL1       -0.3023
     18 H         -22.7219   -6.3539  -12.3482 H       1  UNL1        0.1497
     19 C         -16.0934  -10.4785   -5.2776 C.ar    1  UNL1        0.2248
     20 N         -14.9961  -11.2863   -5.2436 N.ar    1  UNL1       -0.2101
     21 C         -14.6616  -12.0991   -6.2791 C.ar    1  UNL1        0.1021
     22 C         -15.4483  -12.1286   -7.4297 C.ar    1  UNL1        0.0209
     23 C         -16.5851  -11.3148   -7.5063 C.ar    1  UNL1        0.0060
     24 C         -17.3893  -11.3218   -8.6538 C.ar    1  UNL1        0.0003
     25 C         -18.5236  -10.5104   -8.7222 C.ar    1  UNL1        0.0045
     26 C         -18.8786   -9.6880   -7.6417 C.ar    1  UNL1        0.0537
     27 C         -18.0628   -9.6602   -6.4979 C.ar    1  UNL1        0.0092
     28 C         -16.9200  -10.4756   -6.4177 C.ar    1  UNL1        0.0534
     29 C         -15.8782   -8.3395   -4.0479 C.3     1  UNL1        0.2542
     30 O         -16.3952   -9.6577   -4.1840 O.3     1  UNL1       -0.4561
     31 C         -24.7429  -12.4277  -15.1544 C.3     1  UNL1        0.0863
     32 C         -24.7051  -13.7628  -14.3741 C.3     1  UNL1        0.0244
     33 C         -26.2372  -12.0351  -15.2971 C.3     1  UNL1        0.0244
     34 C         -24.1800  -12.5917  -16.5819 C.3     1  UNL1        0.0244
     35 C         -21.9496  -12.6317  -13.4920 C.3     1  UNL1        0.0397
     36 C         -21.1190  -12.4832  -12.2126 C.3     1  UNL1        0.0063
     37 C         -21.0662  -12.9394  -14.7093 C.3     1  UNL1        0.0063
@<TRIPOS>BOND
     1    29    30    1
     2    30    19    1
     3    19    20   ar
     4    20    21   ar
     5    21    22   ar
     6    22    23   ar
     7    23    24   ar
     8    24    25   ar
     9    25    26   ar
    10    26     1    1
    11     1     2    2
    12     1     3   am
    13     3     4    1
    14     4     5    1
    15     5     6    1
    16     6     7    1
    17     7     8    1
    18     6     9    1
    19     9    10    1
    20    10    11   ar
    21    11    12   ar
    22    12    13   ar
    23    13    31    1
    24    31    32    1
    25    31    33    1
    26    31    34    1
    27    13    14   ar
    28    14    35    1
    29    35    36    1
    30    35    37    1
    31    11    15    1
    32    15    16    2
    33    15    17   am
    34    26    27   ar
    35    27    28   ar
    36    28    19   ar
    37    28    23   ar
    38     8     3    1
    39    14    10   ar
    40    17     6    1
    41    17    18    1
@<TRIPOS>MOLECULE
*****
 37 41 0 0 0
SMALL
GASTEIGER

@<TRIPOS>ATOM
      1 C         -21.3100   -7.2866   -8.9985 C.2     1  UNL1        0.2490
      2 O         -22.0874   -6.4872   -8.4083 O.2     1  UNL1       -0.2699
      3 N         -21.4259   -7.4678  -10.4231 N.am    1  UNL1       -0.2760
      4 C         -20.2056   -7.5412  -11.2425 C.3     1  UNL1        0.0954
      5 C         -20.5151   -7.3410  -12.7315 C.3     1  UNL1        0.0399
      6 C         -21.6601   -8.2701  -13.2214 C.3     1  UNL1        0.0645
      7 C         -22.8977   -8.2080  -12.2588 C.3     1  UNL1        0.0399
      8 C         -22.7251   -7.2524  -11.0717 C.3     1  UNL1        0.0954
      9 C         -21.1227   -9.7454  -13.2952 C.3     1  UNL1        0.0474
     10 C         -22.0298  -10.6166  -14.1251 C.ar    1  UNL1        0.0164
     11 C         -22.7571  -10.1167  -15.1574 C.ar    1  UNL1        0.1511
     12 N         -23.3890  -11.0966  -15.8135 N.ar    1  UNL1       -0.1654
     13 N         -23.0793  -12.2512  -15.2286 N.ar    1  UNL1       -0.2588
     14 C         -22.2079  -11.9970  -14.1962 C.ar    1  UNL1        0.0527
     15 C         -22.7777   -8.6942  -15.4606 C.2     1  UNL1        0.2649
     16 O         -23.3691   -8.2499  -16.4797 O.2     1  UNL1       -0.2684
     17 N         -22.0866   -7.8125  -14.5650 N.am    1  UNL1       -0.3023
     18 H         -22.0706   -6.7930  -14.7958 H       1  UNL1        0.1497
     19 C         -17.9737  -10.9271   -8.4998 C.ar    1  UNL1        0.2248
     20 N         -17.0385  -11.5554   -7.7325 N.ar    1  UNL1       -0.2101
     21 C         -16.7363  -11.1422   -6.4745 C.ar    1  UNL1        0.1021
     22 C         -17.3894  -10.0413   -5.9222 C.ar    1  UNL1        0.0209
     23 C         -18.3568   -9.3662   -6.6765 C.ar    1  UNL1        0.0060
     24 C         -19.0316   -8.2603   -6.1424 C.ar    1  UNL1        0.0003
     25 C         -19.9927   -7.5895   -6.9013 C.ar    1  UNL1        0.0045
     26 C         -20.2869   -8.0057   -8.2090 C.ar    1  UNL1        0.0537
     27 C         -19.6296   -9.1280   -8.7407 C.ar    1  UNL1        0.0092
     28 C         -18.6580   -9.8089   -7.9860 C.ar    1  UNL1        0.0534
     29 C         -18.0963  -12.7564  -10.1650 C.3     1  UNL1        0.2542
     30 O         -18.2500  -11.3925   -9.7913 O.3     1  UNL1       -0.4561
     31 C         -23.6360  -13.5412  -15.7241 C.3     1  UNL1        0.0863
     32 C         -24.5793  -14.1808  -14.6783 C.3     1  UNL1        0.0244
     33 C         -24.4848  -13.2919  -16.9988 C.3     1  UNL1        0.0244
     34 C         -22.4967  -14.5037  -16.1204 C.3     1  UNL1        0.0244
     35 C         -21.5626  -13.0158  -13.2680 C.3     1  UNL1        0.0397
     36 C         -21.2695  -12.3996  -11.8957 C.3     1  UNL1        0.0063
     37 C         -20.3085  -13.6521  -13.8837 C.3     1  UNL1        0.0063
@<TRIPOS>BOND
     1    29    30    1
     2    30    19    1
     3    19    20   ar
     4    20    21   ar
     5    21    22   ar
     6    22    23   ar
     7    23    24   ar
     8    24    25   ar
     9    25    26   ar
    10    26     1    1
    11     1     2    2
    12     1     3   am
    13     3     4    1
    14     4     5    1
    15     5     6    1
    16     6     7    1
    17     7     8    1
    18     6     9    1
    19     9    10    1
    20    10    11   ar
    21    11    12   ar
    22    12    13   ar
    23    13    31    1
    24    31    32    1
    25    31    33    1
    26    31    34    1
    27    13    14   ar
    28    14    35    1
    29    35    36    1
    30    35    37    1
    31    11    15    1
    32    15    16    2
    33    15    17   am
    34    26    27   ar
    35    27    28   ar
    36    28    19   ar
    37    28    23   ar
    38     8     3    1
    39    14    10   ar
    40    17     6    1
    41    17    18    1
@<TRIPOS>MOLECULE
*****
 37 41 0 0 0
SMALL
GASTEIGER

@<TRIPOS>ATOM
      1 C         -25.3728   -5.7067  -12.7942 C.2     1  UNL1        0.2490
      2 O         -24.7887   -4.5894  -12.7482 O.2     1  UNL1       -0.2699
      3 N         -24.7169   -6.8731  -12.2603 N.am    1  UNL1       -0.2760
      4 C         -25.4930   -7.8347  -11.4610 C.3     1  UNL1        0.0954
      5 C         -24.5771   -8.7742  -10.6663 C.3     1  UNL1        0.0399
      6 C         -23.4922   -9.4312  -11.5638 C.3     1  UNL1        0.0645
      7 C         -22.7605   -8.3632  -12.4505 C.3     1  UNL1        0.0399
      8 C         -23.2500   -6.9254  -12.2373 C.3     1  UNL1        0.0954
      9 C         -24.1759  -10.5042  -12.4868 C.3     1  UNL1        0.0474
     10 C         -23.1577  -11.4426  -13.0810 C.ar    1  UNL1        0.0164
     11 C         -22.0048  -11.7535  -12.4337 C.ar    1  UNL1        0.1511
     12 N         -21.3220  -12.6910  -13.1006 N.ar    1  UNL1       -0.1654
     13 N         -22.0189  -13.0145  -14.1872 N.ar    1  UNL1       -0.2588
     14 C         -23.1838  -12.2844  -14.1914 C.ar    1  UNL1        0.0527
     15 C         -21.6410  -11.1236  -11.1741 C.2     1  UNL1        0.2649
     16 O         -20.6245  -11.4905  -10.5275 O.2     1  UNL1       -0.2684
     17 N         -22.4900  -10.0769  -10.6834 N.am    1  UNL1       -0.3023
     18 H         -22.2513   -9.6432   -9.7625 H       1  UNL1        0.1497
     19 C         -28.8263   -4.0919  -15.9720 C.ar    1  UNL1        0.2248
     20 N         -30.0852   -4.2037  -16.4827 N.ar    1  UNL1       -0.2101
     21 C         -30.9677   -5.1357  -16.0386 C.ar    1  UNL1        0.1021
     22 C         -30.6019   -6.0213  -15.0259 C.ar    1  UNL1        0.0209
     23 C         -29.3177   -5.9415  -14.4735 C.ar    1  UNL1        0.0060
     24 C         -28.9273   -6.8163  -13.4508 C.ar    1  UNL1        0.0003
     25 C         -27.6440   -6.7336  -12.9068 C.ar    1  UNL1        0.0045
     26 C         -26.7271   -5.7837  -13.3832 C.ar    1  UNL1        0.0537
     27 C         -27.1213   -4.8892  -14.3927 C.ar    1  UNL1        0.0092
     28 C         -28.4103   -4.9659  -14.9493 C.ar    1  UNL1        0.0534
     29 C         -27.5440   -3.0640  -17.8249 C.3     1  UNL1        0.2542
     30 O         -27.9537   -3.1133  -16.4635 O.3     1  UNL1       -0.4561
     31 C         -21.5175  -14.0344  -15.1505 C.3     1  UNL1        0.0863
     32 C         -22.3155  -15.3542  -15.0320 C.3     1  UNL1        0.0244
     33 C         -21.7099  -13.5242  -16.6031 C.3     1  UNL1        0.0244
     34 C         -20.0055  -14.2687  -14.9499 C.3     1  UNL1        0.0244
     35 C         -24.3014  -12.3454  -15.2225 C.3     1  UNL1        0.0397
     36 C         -24.4841  -10.9901  -15.9144 C.3     1  UNL1        0.0063
     37 C         -25.6184  -12.8590  -14.6240 C.3     1  UNL1        0.0063
@<TRIPOS>BOND
     1    29    30    1
     2    30    19    1
     3    19    20   ar
     4    20    21   ar
     5    21    22   ar
     6    22    23   ar
     7    23    24   ar
     8    24    25   ar
     9    25    26   ar
    10    26     1    1
    11     1     2    2
    12     1     3   am
    13     3     4    1
    14     4     5    1
    15     5     6    1
    16     6     7    1
    17     7     8    1
    18     6     9    1
    19     9    10    1
    20    10    11   ar
    21    11    12   ar
    22    12    13   ar
    23    13    31    1
    24    31    32    1
    25    31    33    1
    26    31    34    1
    27    13    14   ar
    28    14    35    1
    29    35    36    1
    30    35    37    1
    31    11    15    1
    32    15    16    2
    33    15    17   am
    34    26    27   ar
    35    27    28   ar
    36    28    19   ar
    37    28    23   ar
    38     8     3    1
    39    14    10   ar
    40    17     6    1
    41    17    18    1
@<TRIPOS>MOLECULE
*****
 37 41 0 0 0
SMALL
GASTEIGER

@<TRIPOS>ATOM
      1 C         -20.1141   -8.8014   -6.9813 C.2     1  UNL1        0.2490
      2 O         -20.6543   -8.4230   -5.9057 O.2     1  UNL1       -0.2699
      3 N         -20.7091   -8.4357   -8.2414 N.am    1  UNL1       -0.2760
      4 C         -19.8432   -7.9963   -9.3474 C.3     1  UNL1        0.0954
      5 C         -20.6482   -7.2892  -10.4451 C.3     1  UNL1        0.0399
      6 C         -21.8768   -8.1244  -10.9001 C.3     1  UNL1        0.0645
      7 C         -22.7096   -8.6320   -9.6709 C.3     1  UNL1        0.0399
      8 C         -22.1553   -8.1930   -8.3099 C.3     1  UNL1        0.0954
      9 C         -21.3740   -9.3539  -11.7405 C.3     1  UNL1        0.0474
     10 C         -22.4968   -9.9685  -12.5356 C.ar    1  UNL1        0.0164
     11 C         -23.5422   -9.2298  -12.9897 C.ar    1  UNL1        0.1511
     12 N         -24.3451   -9.9672  -13.7652 N.ar    1  UNL1       -0.1654
     13 N         -23.8352  -11.1942  -13.8384 N.ar    1  UNL1       -0.2588
     14 C         -22.6665  -11.2245  -13.1151 C.ar    1  UNL1        0.0527
     15 C         -23.6882   -7.8225  -12.6524 C.2     1  UNL1        0.2649
     16 O         -24.6006   -7.1182  -13.1599 O.2     1  UNL1       -0.2684
     17 N         -22.7459   -7.2575  -11.7305 N.am    1  UNL1       -0.3023
     18 H         -22.8264   -6.2388  -11.5098 H       1  UNL1        0.1497
     19 C         -16.9455  -12.0744   -8.9513 C.ar    1  UNL1        0.2248
     20 N         -15.7896  -12.7888   -8.8442 N.ar    1  UNL1       -0.2101
     21 C         -14.9854  -12.7074   -7.7527 C.ar    1  UNL1        0.1021
     22 C         -15.3287  -11.8735   -6.6895 C.ar    1  UNL1        0.0209
     23 C         -16.5076  -11.1213   -6.7586 C.ar    1  UNL1        0.0060
     24 C         -16.8781  -10.2799   -5.7010 C.ar    1  UNL1        0.0003
     25 C         -18.0533   -9.5298   -5.7780 C.ar    1  UNL1        0.0045
     26 C         -18.8709   -9.5997   -6.9167 C.ar    1  UNL1        0.0537
     27 C         -18.5156  -10.4592   -7.9701 C.ar    1  UNL1        0.0092
     28 C         -17.3328  -11.2167   -7.9038 C.ar    1  UNL1        0.0534
     29 C         -18.0997  -13.4524  -10.6551 C.3     1  UNL1        0.2542
     30 O         -17.7410  -12.1939  -10.0975 O.3     1  UNL1       -0.4561
     31 C         -24.5074  -12.2637  -14.6283 C.3     1  UNL1        0.0863
     32 C         -24.5836  -13.5849  -13.8276 C.3     1  UNL1        0.0244
     33 C         -25.9684  -11.8456  -14.9416 C.3     1  UNL1        0.0244
     34 C         -23.7941  -12.4640  -15.9819 C.3     1  UNL1        0.0244
     35 C         -21.7256  -12.4078  -12.9406 C.3     1  UNL1        0.0397
     36 C         -20.8739  -12.2498  -11.6763 C.3     1  UNL1        0.0063
     37 C         -20.8571  -12.6493  -14.1832 C.3     1  UNL1        0.0063
@<TRIPOS>BOND
     1    29    30    1
     2    30    19    1
     3    19    20   ar
     4    20    21   ar
     5    21    22   ar
     6    22    23   ar
     7    23    24   ar
     8    24    25   ar
     9    25    26   ar
    10    26     1    1
    11     1     2    2
    12     1     3   am
    13     3     4    1
    14     4     5    1
    15     5     6    1
    16     6     7    1
    17     7     8    1
    18     6     9    1
    19     9    10    1
    20    10    11   ar
    21    11    12   ar
    22    12    13   ar
    23    13    31    1
    24    31    32    1
    25    31    33    1
    26    31    34    1
    27    13    14   ar
    28    14    35    1
    29    35    36    1
    30    35    37    1
    31    11    15    1
    32    15    16    2
    33    15    17   am
    34    26    27   ar
    35    27    28   ar
    36    28    19   ar
    37    28    23   ar
    38     8     3    1
    39    14    10   ar
    40    17     6    1
    41    17    18    1
@<TRIPOS>MOLECULE
*****
 37 41 0 0 0
SMALL
GASTEIGER

@<TRIPOS>ATOM
      1 C         -27.4657   -4.8243  -13.8725 C.2     1  UNL1        0.2490
      2 O         -28.0614   -3.8516  -13.3333 O.2     1  UNL1       -0.2699
      3 N         -27.1221   -5.9754  -13.0771 N.am    1  UNL1       -0.2760
      4 C         -27.3234   -7.3229  -13.6337 C.3     1  UNL1        0.0954
      5 C         -27.2813   -8.3959  -12.5383 C.3     1  UNL1        0.0399
      6 C         -26.0198   -8.2668  -11.6406 C.3     1  UNL1        0.0645
      7 C         -25.8165   -6.7904  -11.1496 C.3     1  UNL1        0.0399
      8 C         -26.8916   -5.8109  -11.6367 C.3     1  UNL1        0.0954
      9 C         -24.7611   -8.7277  -12.4615 C.3     1  UNL1        0.0474
     10 C         -23.5901   -9.0075  -11.5554 C.ar    1  UNL1        0.0164
     11 C         -23.7578   -9.4502  -10.2823 C.ar    1  UNL1        0.1511
     12 N         -22.5791   -9.7389   -9.7193 N.ar    1  UNL1       -0.1654
     13 N         -21.6243   -9.4994  -10.6147 N.ar    1  UNL1       -0.2588
     14 C         -22.2165   -9.0766  -11.7811 C.ar    1  UNL1        0.0527
     15 C         -25.0782   -9.5868   -9.6877 C.2     1  UNL1        0.2649
     16 O         -25.2333  -10.0951   -8.5460 O.2     1  UNL1       -0.2684
     17 N         -26.2035   -9.1353  -10.4539 N.am    1  UNL1       -0.3023
     18 H         -27.1573   -9.2611  -10.0449 H       1  UNL1        0.1497
     19 C         -24.5554   -5.9336  -17.7368 C.ar    1  UNL1        0.2248
     20 N         -24.3092   -5.8466  -19.0747 N.ar    1  UNL1       -0.2101
     21 C         -25.1323   -5.1753  -19.9212 C.ar    1  UNL1        0.1021
     22 C         -26.2751   -4.5429  -19.4336 C.ar    1  UNL1        0.0209
     23 C         -26.5660   -4.6079  -18.0656 C.ar    1  UNL1        0.0060
     24 C         -27.7054   -3.9761  -17.5494 C.ar    1  UNL1        0.0003
     25 C         -27.9915   -4.0478  -16.1847 C.ar    1  UNL1        0.0045
     26 C         -27.1506   -4.7607  -15.3160 C.ar    1  UNL1        0.0537
     27 C         -25.9947   -5.3767  -15.8249 C.ar    1  UNL1        0.0092
     28 C         -25.6989   -5.3130  -17.1981 C.ar    1  UNL1        0.0534
     29 C         -23.1190   -7.8955  -17.2660 C.3     1  UNL1        0.2542
     30 O         -23.6753   -6.6370  -16.9053 O.3     1  UNL1       -0.4561
     31 C         -20.1871   -9.7167  -10.2876 C.3     1  UNL1        0.0863
     32 C         -19.2838   -8.7196  -11.0509 C.3     1  UNL1        0.0244
     33 C         -19.9493   -9.4679   -8.7747 C.3     1  UNL1        0.0244
     34 C         -19.7834  -11.1782  -10.5746 C.3     1  UNL1        0.0244
     35 C         -21.5207   -8.7171  -13.0859 C.3     1  UNL1        0.0397
     36 C         -21.8796   -7.2933  -13.5250 C.3     1  UNL1        0.0063
     37 C         -21.7996   -9.7404  -14.1957 C.3     1  UNL1        0.0063
@<TRIPOS>BOND
     1    29    30    1
     2    30    19    1
     3    19    20   ar
     4    20    21   ar
     5    21    22   ar
     6    22    23   ar
     7    23    24   ar
     8    24    25   ar
     9    25    26   ar
    10    26     1    1
    11     1     2    2
    12     1     3   am
    13     3     4    1
    14     4     5    1
    15     5     6    1
    16     6     7    1
    17     7     8    1
    18     6     9    1
    19     9    10    1
    20    10    11   ar
    21    11    12   ar
    22    12    13   ar
    23    13    31    1
    24    31    32    1
    25    31    33    1
    26    31    34    1
    27    13    14   ar
    28    14    35    1
    29    35    36    1
    30    35    37    1
    31    11    15    1
    32    15    16    2
    33    15    17   am
    34    26    27   ar
    35    27    28   ar
    36    28    19   ar
    37    28    23   ar
    38     8     3    1
    39    14    10   ar
    40    17     6    1
    41    17    18    1
@<TRIPOS>MOLECULE
*****
 37 41 0 0 0
SMALL
GASTEIGER

@<TRIPOS>ATOM
      1 C         -22.9856   -6.5019  -11.8604 C.2     1  UNL1        0.2490
      2 O         -23.9293   -5.6778  -11.7123 O.2     1  UNL1       -0.2699
      3 N         -22.8293   -7.1833  -13.1202 N.am    1  UNL1       -0.2760
      4 C         -21.4820   -7.3473  -13.6893 C.3     1  UNL1        0.0954
      5 C         -21.5411   -7.7286  -15.1739 C.3     1  UNL1        0.0399
      6 C         -22.4853   -8.9355  -15.4312 C.3     1  UNL1        0.0645
      7 C         -23.8738   -8.7347  -14.7284 C.3     1  UNL1        0.0399
      8 C         -24.0080   -7.4112  -13.9651 C.3     1  UNL1        0.0954
      9 C         -21.8021  -10.2419  -14.8861 C.3     1  UNL1        0.0474
     10 C         -22.4587  -11.4768  -15.4467 C.ar    1  UNL1        0.0164
     11 C         -23.0371  -11.4867  -16.6756 C.ar    1  UNL1        0.1511
     12 N         -23.4443  -12.7189  -17.0005 N.ar    1  UNL1       -0.1654
     13 N         -23.1320  -13.5348  -15.9967 N.ar    1  UNL1       -0.2588
     14 C         -22.4860  -12.8054  -15.0268 C.ar    1  UNL1        0.0527
     15 C         -23.1422  -10.2802  -17.4813 C.2     1  UNL1        0.2649
     16 O         -23.5844  -10.3158  -18.6599 O.2     1  UNL1       -0.2684
     17 N         -22.7099   -9.0462  -16.8919 N.am    1  UNL1       -0.3023
     18 H         -22.7527   -8.1815  -17.4779 H       1  UNL1        0.1497
     19 C         -19.8707   -9.4226   -9.3306 C.ar    1  UNL1        0.2248
     20 N         -19.0201   -9.5862   -8.2781 N.ar    1  UNL1       -0.2101
     21 C         -18.7821   -8.5975   -7.3778 C.ar    1  UNL1        0.1021
     22 C         -19.4160   -7.3627   -7.5084 C.ar    1  UNL1        0.0209
     23 C         -20.2973   -7.1519   -8.5758 C.ar    1  UNL1        0.0060
     24 C         -20.9514   -5.9217   -8.7264 C.ar    1  UNL1        0.0003
     25 C         -21.8263   -5.7170   -9.7951 C.ar    1  UNL1        0.0045
     26 C         -22.0532   -6.7334  -10.7361 C.ar    1  UNL1        0.0537
     27 C         -21.4176   -7.9764  -10.5766 C.ar    1  UNL1        0.0092
     28 C         -20.5323   -8.1920   -9.5056 C.ar    1  UNL1        0.0534
     29 C         -19.2502  -11.6256  -10.2771 C.3     1  UNL1        0.2542
     30 O         -20.0832  -10.4735  -10.2314 O.3     1  UNL1       -0.4561
     31 C         -23.4637  -14.9863  -16.0499 C.3     1  UNL1        0.0863
     32 C         -22.3935  -15.7750  -16.8408 C.3     1  UNL1        0.0244
     33 C         -23.4820  -15.5739  -14.6140 C.3     1  UNL1        0.0244
     34 C         -24.8728  -15.1964  -16.6427 C.3     1  UNL1        0.0244
     35 C         -21.9189  -13.3243  -13.7134 C.3     1  UNL1        0.0397
     36 C         -22.1898  -12.3388  -12.5714 C.3     1  UNL1        0.0063
     37 C         -20.4277  -13.6729  -13.8203 C.3     1  UNL1        0.0063
@<TRIPOS>BOND
     1    29    30    1
     2    30    19    1
     3    19    20   ar
     4    20    21   ar
     5    21    22   ar
     6    22    23   ar
     7    23    24   ar
     8    24    25   ar
     9    25    26   ar
    10    26     1    1
    11     1     2    2
    12     1     3   am
    13     3     4    1
    14     4     5    1
    15     5     6    1
    16     6     7    1
    17     7     8    1
    18     6     9    1
    19     9    10    1
    20    10    11   ar
    21    11    12   ar
    22    12    13   ar
    23    13    31    1
    24    31    32    1
    25    31    33    1
    26    31    34    1
    27    13    14   ar
    28    14    35    1
    29    35    36    1
    30    35    37    1
    31    11    15    1
    32    15    16    2
    33    15    17   am
    34    26    27   ar
    35    27    28   ar
    36    28    19   ar
    37    28    23   ar
    38     8     3    1
    39    14    10   ar
    40    17     6    1
    41    17    18    1
@<TRIPOS>MOLECULE
*****
 37 41 0 0 0
SMALL
GASTEIGER

@<TRIPOS>ATOM
      1 C         -27.3154   -5.0528  -13.7527 C.2     1  UNL1        0.2490
      2 O         -28.0088   -4.1512  -13.2066 O.2     1  UNL1       -0.2699
      3 N         -26.9363   -6.2156  -12.9913 N.am    1  UNL1       -0.2760
      4 C         -27.0088   -7.5444  -13.6198 C.3     1  UNL1        0.0954
      5 C         -26.9526   -8.6651  -12.5740 C.3     1  UNL1        0.0399
      6 C         -25.7568   -8.4944  -11.5968 C.3     1  UNL1        0.0645
      7 C         -25.6879   -7.0338  -11.0276 C.3     1  UNL1        0.0399
      8 C         -26.8006   -6.1075  -11.5336 C.3     1  UNL1        0.0954
      9 C         -24.4236   -8.8265  -12.3603 C.3     1  UNL1        0.0474
     10 C         -23.2891   -9.0699  -11.3990 C.ar    1  UNL1        0.0164
     11 C         -23.4971   -9.5858  -10.1598 C.ar    1  UNL1        0.1511
     12 N         -22.3348   -9.8205   -9.5404 N.ar    1  UNL1       -0.1654
     13 N         -21.3500   -9.4718  -10.3647 N.ar    1  UNL1       -0.2588
     14 C         -21.9036   -9.0332  -11.5442 C.ar    1  UNL1        0.0527
     15 C         -24.8361   -9.8421   -9.6528 C.2     1  UNL1        0.2649
     16 O         -25.0193  -10.4160   -8.5469 O.2     1  UNL1       -0.2684
     17 N         -25.9452   -9.4315  -10.4641 N.am    1  UNL1       -0.3023
     18 H         -26.9095   -9.6426  -10.1196 H       1  UNL1        0.1497
     19 C         -27.9789   -3.0558  -18.2477 C.ar    1  UNL1        0.2248
     20 N         -27.5779   -2.9452  -19.5458 N.ar    1  UNL1       -0.2101
     21 C         -26.5144   -3.6323  -20.0372 C.ar    1  UNL1        0.1021
     22 C         -25.7894   -4.4883  -19.2094 C.ar    1  UNL1        0.0209
     23 C         -26.1669   -4.6310  -17.8686 C.ar    1  UNL1        0.0060
     24 C         -25.4582   -5.4892  -17.0172 C.ar    1  UNL1        0.0003
     25 C         -25.8379   -5.6242  -15.6803 C.ar    1  UNL1        0.0045
     26 C         -26.9239   -4.8960  -15.1701 C.ar    1  UNL1        0.0537
     27 C         -27.6519   -4.0517  -16.0254 C.ar    1  UNL1        0.0092
     28 C         -27.2762   -3.9063  -17.3726 C.ar    1  UNL1        0.0534
     29 C         -30.4233   -2.7643  -17.9765 C.3     1  UNL1        0.2542
     30 O         -29.0829   -2.3265  -17.7893 O.3     1  UNL1       -0.4561
     31 C         -19.9220   -9.6059   -9.9617 C.3     1  UNL1        0.0863
     32 C         -19.3941  -11.0324  -10.2431 C.3     1  UNL1        0.0244
     33 C         -19.0473   -8.6327  -10.7956 C.3     1  UNL1        0.0244
     34 C         -19.7412   -9.2191   -8.4788 C.3     1  UNL1        0.0244
     35 C         -21.1619   -8.5624  -12.7869 C.3     1  UNL1        0.0397
     36 C         -21.3364   -7.0536  -12.9913 C.3     1  UNL1        0.0063
     37 C         -21.5626   -9.3547  -14.0392 C.3     1  UNL1        0.0063
@<TRIPOS>BOND
     1    29    30    1
     2    30    19    1
     3    19    20   ar
     4    20    21   ar
     5    21    22   ar
     6    22    23   ar
     7    23    24   ar
     8    24    25   ar
     9    25    26   ar
    10    26     1    1
    11     1     2    2
    12     1     3   am
    13     3     4    1
    14     4     5    1
    15     5     6    1
    16     6     7    1
    17     7     8    1
    18     6     9    1
    19     9    10    1
    20    10    11   ar
    21    11    12   ar
    22    12    13   ar
    23    13    31    1
    24    31    32    1
    25    31    33    1
    26    31    34    1
    27    13    14   ar
    28    14    35    1
    29    35    36    1
    30    35    37    1
    31    11    15    1
    32    15    16    2
    33    15    17   am
    34    26    27   ar
    35    27    28   ar
    36    28    19   ar
    37    28    23   ar
    38     8     3    1
    39    14    10   ar
    40    17     6    1
    41    17    18    1
@<TRIPOS>MOLECULE
*****
 37 41 0 0 0
SMALL
GASTEIGER

@<TRIPOS>ATOM
      1 C         -23.9462   -8.1047  -18.4714 C.2     1  UNL1        0.2490
      2 O         -23.8336   -8.9118  -19.4346 O.2     1  UNL1       -0.2699
      3 N         -23.2558   -8.3735  -17.2357 N.am    1  UNL1       -0.2760
      4 C         -22.5802   -7.2712  -16.5325 C.3     1  UNL1        0.0954
      5 C         -21.5938   -7.7956  -15.4812 C.3     1  UNL1        0.0399
      6 C         -22.2474   -8.8404  -14.5350 C.3     1  UNL1        0.0645
      7 C         -23.0210   -9.9396  -15.3446 C.3     1  UNL1        0.0399
      8 C         -22.9570   -9.7626  -16.8668 C.3     1  UNL1        0.0954
      9 C         -23.2411   -8.1003  -13.5678 C.3     1  UNL1        0.0474
     10 C         -23.5990   -8.9642  -12.3862 C.ar    1  UNL1        0.0164
     11 C         -22.7364   -9.8849  -11.8833 C.ar    1  UNL1        0.1511
     12 N         -23.2283  -10.4403  -10.7700 N.ar    1  UNL1       -0.1654
     13 N         -24.4132   -9.8875  -10.5218 N.ar    1  UNL1       -0.2588
     14 C         -24.6624   -8.9395  -11.4857 C.ar    1  UNL1        0.0527
     15 C         -21.4554  -10.1586  -12.5156 C.2     1  UNL1        0.2649
     16 O         -20.6170  -10.9360  -11.9879 O.2     1  UNL1       -0.2684
     17 N         -21.1716   -9.4997  -13.7575 N.am    1  UNL1       -0.3023
     18 H         -20.2393   -9.6675  -14.1997 H       1  UNL1        0.1497
     19 C         -26.3366   -4.1725  -16.6122 C.ar    1  UNL1        0.2248
     20 N         -27.1005   -3.0638  -16.8250 N.ar    1  UNL1       -0.2101
     21 C         -27.5096   -2.6925  -18.0658 C.ar    1  UNL1        0.1021
     22 C         -27.1522   -3.4524  -19.1786 C.ar    1  UNL1        0.0209
     23 C         -26.3677   -4.5991  -19.0049 C.ar    1  UNL1        0.0060
     24 C         -25.9996   -5.3832  -20.1064 C.ar    1  UNL1        0.0003
     25 C         -25.2141   -6.5235  -19.9265 C.ar    1  UNL1        0.0045
     26 C         -24.7747   -6.8922  -18.6456 C.ar    1  UNL1        0.0537
     27 C         -25.1602   -6.1222  -17.5352 C.ar    1  UNL1        0.0092
     28 C         -25.9486   -4.9704  -17.7057 C.ar    1  UNL1        0.0534
     29 C         -26.8558   -4.9845  -14.3307 C.3     1  UNL1        0.2542
     30 O         -25.9410   -4.5137  -15.3130 O.3     1  UNL1       -0.4561
     31 C         -25.2269  -10.3018   -9.3447 C.3     1  UNL1        0.0863
     32 C         -26.3473   -9.2763   -9.0517 C.3     1  UNL1        0.0244
     33 C         -25.9255  -11.6556   -9.6393 C.3     1  UNL1        0.0244
     34 C         -24.3229  -10.5179   -8.1129 C.3     1  UNL1        0.0244
     35 C         -25.8813   -8.0342  -11.5891 C.3     1  UNL1        0.0397
     36 C         -26.7465   -8.4145  -12.7955 C.3     1  UNL1        0.0063
     37 C         -25.5018   -6.5468  -11.6094 C.3     1  UNL1        0.0063
@<TRIPOS>BOND
     1    29    30    1
     2    30    19    1
     3    19    20   ar
     4    20    21   ar
     5    21    22   ar
     6    22    23   ar
     7    23    24   ar
     8    24    25   ar
     9    25    26   ar
    10    26     1    1
    11     1     2    2
    12     1     3   am
    13     3     4    1
    14     4     5    1
    15     5     6    1
    16     6     7    1
    17     7     8    1
    18     6     9    1
    19     9    10    1
    20    10    11   ar
    21    11    12   ar
    22    12    13   ar
    23    13    31    1
    24    31    32    1
    25    31    33    1
    26    31    34    1
    27    13    14   ar
    28    14    35    1
    29    35    36    1
    30    35    37    1
    31    11    15    1
    32    15    16    2
    33    15    17   am
    34    26    27   ar
    35    27    28   ar
    36    28    19   ar
    37    28    23   ar
    38     8     3    1
    39    14    10   ar
    40    17     6    1
    41    17    18    1
