@<TRIPOS>MOLECULE
*****
 47 52 0 0 0
SMALL
GASTEIGER

@<TRIPOS>ATOM
      1 C          60.6666   89.8068    9.3084 C.ar    1  UNL1        0.0702
      2 C          61.1287   88.5164    9.6052 C.ar    1  UNL1        0.0191
      3 C          61.0159   88.0118   10.9019 C.ar    1  UNL1        0.0356
      4 C          60.4512   88.8089   11.9148 C.ar    1  UNL1        0.1318
      5 N          60.0351   90.0684   11.6011 N.ar    1  UNL1       -0.2279
      6 C          60.1359   90.5803   10.3465 C.ar    1  UNL1        0.1149
      7 N          60.3059   88.3180   13.2691 N.pl3   1  UNL1       -0.2919
      8 C          61.0736   88.9193   14.3734 C.3     1  UNL1        0.0924
      9 C          60.9982   88.0700   15.6504 C.3     1  UNL1        0.0266
     10 C          61.2431   86.5812   15.3281 C.3     1  UNL1        0.0613
     11 C          60.2733   86.0367   14.2222 C.3     1  UNL1        0.0745
     12 N          61.0368   85.3234   13.1935 N.3     1  UNL1       -0.3207
     13 C          59.4476   87.1601   13.5622 C.3     1  UNL1        0.1077
     14 H          60.3650   84.8946   12.5157 H       1  UNL1        0.1189
     15 H          61.5312   84.5204   13.6444 H       1  UNL1        0.1189
     16 C          61.1512   85.7473   16.6229 C.3     1  UNL1        0.2067
     17 O          62.2656   84.8627   16.7501 O.3     1  UNL1       -0.4754
     18 C          63.3453   84.7740   15.8559 C.ar    1  UNL1        0.1388
     19 C          64.4104   85.6945   15.8530 C.ar    1  UNL1        0.0369
     20 C          65.4543   85.5576   14.9360 C.ar    1  UNL1        0.0033
     21 C          65.4514   84.5059   14.0175 C.ar    1  UNL1        0.0066
     22 C          64.3991   83.5741   14.0081 C.ar    1  UNL1        0.0785
     23 C          63.3518   83.7185   14.9351 C.ar    1  UNL1        0.0433
     24 C          64.3895   82.4567   13.0381 C.2     1  UNL1        0.3381
     25 O          63.7713   81.3893   13.2994 O.2     1  UNL1       -0.2451
     26 O          65.0645   82.5737   11.8256 O.3     1  UNL1       -0.4771
     27 H          65.0642   81.8147   11.1546 H       1  UNL1        0.2954
     28 C          59.8702   90.1173    6.9164 C.2     1  UNL1        0.2839
     29 O          58.9247   89.2978    7.0645 O.2     1  UNL1       -0.2665
     30 N          60.7889   90.3734    7.9934 N.am    1  UNL1       -0.2766
     31 H          61.5654   91.0530    7.8404 H       1  UNL1        0.1553
     32 C          57.5256   91.2531    4.9933 C.3     1  UNL1        0.0345
     33 C          59.0094   91.2921    4.7867 C.ar    1  UNL1        0.0202
     34 C          60.0209   90.7827    5.6107 C.ar    1  UNL1        0.1946
     35 O          61.1999   90.9601    5.0409 O.2     1  UNL1       -0.4492
     36 C          61.0077   91.5800    3.9021 C.ar    1  UNL1        0.1452
     37 C          61.9713   91.9742    2.9803 C.ar    1  UNL1        0.0375
     38 C          61.5395   92.6313    1.8146 C.ar    1  UNL1        0.0031
     39 C          60.1588   92.8823    1.5883 C.ar    1  UNL1        0.0002
     40 C          59.2107   92.4623    2.5520 C.ar    1  UNL1        0.0028
     41 C          59.6756   91.8153    3.6969 C.ar    1  UNL1        0.0337
     42 C          59.7142   93.5771    0.3535 C.ar    1  UNL1        0.0000
     43 C          58.3475   93.6435    0.0219 C.ar    1  UNL1        0.0000
     44 C          57.9321   94.2976   -1.1421 C.ar    1  UNL1        0.0000
     45 C          58.8727   94.8920   -1.9860 C.ar    1  UNL1        0.0000
     46 C          60.2313   94.8333   -1.6681 C.ar    1  UNL1        0.0000
     47 C          60.6526   94.1798   -0.5059 C.ar    1  UNL1        0.0000
@<TRIPOS>BOND
     1    32    33    1
     2    33    34   ar
     3    34    28    1
     4    28    29    2
     5    28    30   am
     6    30     1    1
     7     1     2   ar
     8     2     3   ar
     9     3     4   ar
    10     4     7    1
    11     7     8    1
    12     8     9    1
    13     9    10    1
    14    10    16    1
    15    16    17    1
    16    17    18    1
    17    18    19   ar
    18    19    20   ar
    19    20    21   ar
    20    21    22   ar
    21    22    24    1
    22    24    25    2
    23    24    26    1
    24    22    23   ar
    25    10    11    1
    26    11    12    1
    27    11    13    1
    28     4     5   ar
    29     5     6   ar
    30    34    35   ar
    31    35    36   ar
    32    36    37   ar
    33    37    38   ar
    34    38    39   ar
    35    39    42    1
    36    42    43   ar
    37    43    44   ar
    38    44    45   ar
    39    45    46   ar
    40    46    47   ar
    41    39    40   ar
    42    40    41   ar
    43    41    33   ar
    44     6     1   ar
    45    41    36   ar
    46    13     7    1
    47    47    42   ar
    48    23    18   ar
    49    30    31    1
    50    26    27    1
    51    12    14    1
    52    12    15    1
@<TRIPOS>MOLECULE
*****
 47 52 0 0 0
SMALL
GASTEIGER

@<TRIPOS>ATOM
      1 C          60.8186   89.9241    9.3871 C.ar    1  UNL1        0.0702
      2 C          59.8971   90.4323   10.3142 C.ar    1  UNL1        0.0191
      3 C          59.7911   89.8607   11.5834 C.ar    1  UNL1        0.0356
      4 C          60.6013   88.7617   11.9243 C.ar    1  UNL1        0.1318
      5 N          61.4687   88.2740   10.9928 N.ar    1  UNL1       -0.2279
      6 C          61.5879   88.8138    9.7516 C.ar    1  UNL1        0.1149
      7 N          60.5297   88.1483   13.2338 N.pl3   1  UNL1       -0.2919
      8 C          61.2869   88.7059   14.3679 C.3     1  UNL1        0.0924
      9 C          61.3071   87.7477   15.5676 C.3     1  UNL1        0.0266
     10 C          61.6430   86.3127   15.1113 C.3     1  UNL1        0.0613
     11 C          60.6802   85.7975   13.9853 C.3     1  UNL1        0.0745
     12 N          61.4598   85.2298   12.8808 N.3     1  UNL1       -0.3207
     13 C          59.7610   86.9123   13.4451 C.3     1  UNL1        0.1077
     14 H          60.7991   84.8142   12.1842 H       1  UNL1        0.1189
     15 H          62.0208   84.4280   13.2484 H       1  UNL1        0.1189
     16 C          61.6462   85.3671   16.3304 C.3     1  UNL1        0.2067
     17 O          62.7567   84.4697   16.2877 O.3     1  UNL1       -0.4754
     18 C          63.1903   83.7586   15.1564 C.ar    1  UNL1        0.1388
     19 C          64.3039   84.1512   14.3898 C.ar    1  UNL1        0.0369
     20 C          64.6845   83.4066   13.2718 C.ar    1  UNL1        0.0033
     21 C          63.9659   82.2661   12.9074 C.ar    1  UNL1        0.0066
     22 C          62.8542   81.8555   13.6632 C.ar    1  UNL1        0.0785
     23 C          62.4776   82.6105   14.7880 C.ar    1  UNL1        0.0433
     24 C          62.0883   80.6478   13.2835 C.2     1  UNL1        0.3381
     25 O          62.4973   79.8973   12.3565 O.2     1  UNL1       -0.2451
     26 O          60.9065   80.3283   13.9473 O.3     1  UNL1       -0.4771
     27 H          60.3745   79.5039   13.6951 H       1  UNL1        0.2954
     28 C          60.0353   90.1685    6.9831 C.2     1  UNL1        0.2839
     29 O          59.1062   89.3323    7.1408 O.2     1  UNL1       -0.2665
     30 N          60.9396   90.4661    8.0616 N.am    1  UNL1       -0.2766
     31 H          61.7028   91.1589    7.9007 H       1  UNL1        0.1553
     32 C          57.6987   91.4069    5.1144 C.3     1  UNL1        0.0345
     33 C          59.1758   91.3639    4.8644 C.ar    1  UNL1        0.0202
     34 C          60.1826   90.8101    5.6651 C.ar    1  UNL1        0.1946
     35 O          61.3520   90.9176    5.0592 O.2     1  UNL1       -0.4492
     36 C          61.1594   91.5340    3.9187 C.ar    1  UNL1        0.1452
     37 C          62.1150   91.8655    2.9643 C.ar    1  UNL1        0.0375
     38 C          61.6845   92.5316    1.8033 C.ar    1  UNL1        0.0031
     39 C          60.3131   92.8539    1.6139 C.ar    1  UNL1        0.0002
     40 C          59.3729   92.4963    2.6100 C.ar    1  UNL1        0.0028
     41 C          59.8364   91.8382    3.7492 C.ar    1  UNL1        0.0337
     42 C          59.8698   93.5577    0.3837 C.ar    1  UNL1        0.0000
     43 C          58.4999   93.7565    0.1268 C.ar    1  UNL1        0.0000
     44 C          58.0856   94.4186   -1.0330 C.ar    1  UNL1        0.0000
     45 C          59.0306   94.8894   -1.9471 C.ar    1  UNL1        0.0000
     46 C          60.3924   94.6987   -1.7036 C.ar    1  UNL1        0.0000
     47 C          60.8126   94.0365   -0.5459 C.ar    1  UNL1        0.0000
@<TRIPOS>BOND
     1    32    33    1
     2    33    34   ar
     3    34    28    1
     4    28    29    2
     5    28    30   am
     6    30     1    1
     7     1     2   ar
     8     2     3   ar
     9     3     4   ar
    10     4     7    1
    11     7     8    1
    12     8     9    1
    13     9    10    1
    14    10    16    1
    15    16    17    1
    16    17    18    1
    17    18    19   ar
    18    19    20   ar
    19    20    21   ar
    20    21    22   ar
    21    22    24    1
    22    24    25    2
    23    24    26    1
    24    22    23   ar
    25    10    11    1
    26    11    12    1
    27    11    13    1
    28     4     5   ar
    29     5     6   ar
    30    34    35   ar
    31    35    36   ar
    32    36    37   ar
    33    37    38   ar
    34    38    39   ar
    35    39    42    1
    36    42    43   ar
    37    43    44   ar
    38    44    45   ar
    39    45    46   ar
    40    46    47   ar
    41    39    40   ar
    42    40    41   ar
    43    41    33   ar
    44     6     1   ar
    45    41    36   ar
    46    13     7    1
    47    47    42   ar
    48    23    18   ar
    49    30    31    1
    50    26    27    1
    51    12    14    1
    52    12    15    1
@<TRIPOS>MOLECULE
*****
 47 52 0 0 0
SMALL
GASTEIGER

@<TRIPOS>ATOM
      1 C          61.2069   89.8854    9.4022 C.ar    1  UNL1        0.0702
      2 C          60.1808   90.1251   10.3278 C.ar    1  UNL1        0.0191
      3 C          60.2246   89.5351   11.5922 C.ar    1  UNL1        0.0356
      4 C          61.2944   88.6856   11.9298 C.ar    1  UNL1        0.1318
      5 N          62.2630   88.4514   10.9997 N.ar    1  UNL1       -0.2279
      6 C          62.2403   89.0139    9.7631 C.ar    1  UNL1        0.1149
      7 N          61.3823   88.0639   13.2345 N.pl3   1  UNL1       -0.2919
      8 C          62.6264   88.1370   14.0200 C.3     1  UNL1        0.0924
      9 C          62.6034   87.1756   15.2171 C.3     1  UNL1        0.0266
     10 C          62.1035   85.7814   14.7848 C.3     1  UNL1        0.0613
     11 C          60.7086   85.8364   14.0698 C.3     1  UNL1        0.0745
     12 N          60.7567   85.0735   12.8186 N.3     1  UNL1       -0.3207
     13 C          60.2591   87.2818   13.7729 C.3     1  UNL1        0.1077
     14 H          59.7963   85.0496   12.4045 H       1  UNL1        0.1189
     15 H          60.9895   84.0798   13.0447 H       1  UNL1        0.1189
     16 C          62.0782   84.8372   16.0047 C.3     1  UNL1        0.2067
     17 O          62.7753   83.6203   15.7333 O.3     1  UNL1       -0.4754
     18 C          62.5928   82.8086   14.6014 C.ar    1  UNL1        0.1388
     19 C          61.6209   81.7919   14.5412 C.ar    1  UNL1        0.0369
     20 C          61.4896   81.0133   13.3897 C.ar    1  UNL1        0.0033
     21 C          62.3185   81.2388   12.2889 C.ar    1  UNL1        0.0066
     22 C          63.2915   82.2524   12.3283 C.ar    1  UNL1        0.0785
     23 C          63.4171   83.0325   13.4914 C.ar    1  UNL1        0.0433
     24 C          64.1732   82.4976   11.1655 C.2     1  UNL1        0.3381
     25 O          63.8584   82.0665   10.0232 O.2     1  UNL1       -0.2451
     26 O          65.3608   83.2076   11.3222 O.3     1  UNL1       -0.4771
     27 H          65.9715   83.3809   10.5327 H       1  UNL1        0.2954
     28 C          60.2584   90.0625    7.0525 C.2     1  UNL1        0.2839
     29 O          59.4422   89.1232    7.2498 O.2     1  UNL1       -0.2665
     30 N          61.1856   90.4512    8.0814 N.am    1  UNL1       -0.2766
     31 H          61.8535   91.2289    7.8881 H       1  UNL1        0.1553
     32 C          57.6861   90.9358    5.2902 C.3     1  UNL1        0.0345
     33 C          59.1408   91.1263    4.9847 C.ar    1  UNL1        0.0202
     34 C          60.2522   90.7301    5.7393 C.ar    1  UNL1        0.1946
     35 O          61.3659   91.0242    5.0917 O.2     1  UNL1       -0.4492
     36 C          61.0352   91.6125    3.9681 C.ar    1  UNL1        0.1452
     37 C          61.8893   92.0972    2.9836 C.ar    1  UNL1        0.0375
     38 C          61.3152   92.6975    1.8492 C.ar    1  UNL1        0.0031
     39 C          59.9039   92.8030    1.7158 C.ar    1  UNL1        0.0002
     40 C          59.0706   92.2944    2.7410 C.ar    1  UNL1        0.0028
     41 C          59.6753   91.7074    3.8525 C.ar    1  UNL1        0.0337
     42 C          59.3086   93.4390    0.5132 C.ar    1  UNL1        0.0000
     43 C          57.9649   93.1997    0.1677 C.ar    1  UNL1        0.0000
     44 C          57.4075   93.7992   -0.9659 C.ar    1  UNL1        0.0000
     45 C          58.1818   94.6427   -1.7654 C.ar    1  UNL1        0.0000
     46 C          59.5159   94.8883   -1.4333 C.ar    1  UNL1        0.0000
     47 C          60.0789   94.2908   -0.3014 C.ar    1  UNL1        0.0000
@<TRIPOS>BOND
     1    32    33    1
     2    33    34   ar
     3    34    28    1
     4    28    29    2
     5    28    30   am
     6    30     1    1
     7     1     2   ar
     8     2     3   ar
     9     3     4   ar
    10     4     7    1
    11     7     8    1
    12     8     9    1
    13     9    10    1
    14    10    16    1
    15    16    17    1
    16    17    18    1
    17    18    19   ar
    18    19    20   ar
    19    20    21   ar
    20    21    22   ar
    21    22    24    1
    22    24    25    2
    23    24    26    1
    24    22    23   ar
    25    10    11    1
    26    11    12    1
    27    11    13    1
    28     4     5   ar
    29     5     6   ar
    30    34    35   ar
    31    35    36   ar
    32    36    37   ar
    33    37    38   ar
    34    38    39   ar
    35    39    42    1
    36    42    43   ar
    37    43    44   ar
    38    44    45   ar
    39    45    46   ar
    40    46    47   ar
    41    39    40   ar
    42    40    41   ar
    43    41    33   ar
    44     6     1   ar
    45    41    36   ar
    46    13     7    1
    47    47    42   ar
    48    23    18   ar
    49    30    31    1
    50    26    27    1
    51    12    14    1
    52    12    15    1
@<TRIPOS>MOLECULE
*****
 47 52 0 0 0
SMALL
GASTEIGER

@<TRIPOS>ATOM
      1 C          61.9990   87.5016   10.1358 C.ar    1  UNL1        0.0702
      2 C          60.9739   87.9029    9.2669 C.ar    1  UNL1        0.0191
      3 C          60.0976   86.9571    8.7316 C.ar    1  UNL1        0.0356
      4 C          60.2562   85.5966    9.0543 C.ar    1  UNL1        0.1318
      5 N          61.2780   85.2347    9.8808 N.ar    1  UNL1       -0.2279
      6 C          62.1430   86.1377   10.4124 C.ar    1  UNL1        0.1149
      7 N          59.3614   84.5867    8.5292 N.pl3   1  UNL1       -0.2919
      8 C          57.9952   84.4426    9.0612 C.3     1  UNL1        0.0924
      9 C          57.3307   83.1430    8.5844 C.3     1  UNL1        0.0266
     10 C          58.2960   81.9498    8.7415 C.3     1  UNL1        0.0613
     11 C          59.6691   82.1866    8.0213 C.3     1  UNL1        0.0745
     12 N          60.7737   81.8759    8.9341 N.3     1  UNL1       -0.3207
     13 C          59.8192   83.6332    7.5073 C.3     1  UNL1        0.1077
     14 H          61.6745   81.9551    8.4080 H       1  UNL1        0.1189
     15 H          60.6999   80.8715    9.2144 H       1  UNL1        0.1189
     16 C          57.6115   80.6589    8.2462 C.3     1  UNL1        0.2067
     17 O          57.4613   79.7122    9.3053 O.3     1  UNL1       -0.4754
     18 C          57.9837   79.8469   10.6023 C.ar    1  UNL1        0.1388
     19 C          58.2574   78.7432   11.4323 C.ar    1  UNL1        0.0369
     20 C          58.7719   78.9399   12.7153 C.ar    1  UNL1        0.0033
     21 C          59.0215   80.2315   13.1835 C.ar    1  UNL1        0.0066
     22 C          58.7593   81.3457   12.3677 C.ar    1  UNL1        0.0785
     23 C          58.2417   81.1393   11.0768 C.ar    1  UNL1        0.0433
     24 C          59.0218   82.7174   12.8569 C.2     1  UNL1        0.3381
     25 O          58.1178   83.5952   12.8125 O.2     1  UNL1       -0.2451
     26 O          60.2718   83.0520   13.3714 O.3     1  UNL1       -0.4771
     27 H          60.4620   83.9882   13.7088 H       1  UNL1        0.2954
     28 C          62.6760   89.2624   11.8369 C.2     1  UNL1        0.2839
     29 O          61.5430   89.2478   12.3877 O.2     1  UNL1       -0.2665
     30 N          62.9383   88.4396   10.6863 N.am    1  UNL1       -0.2766
     31 H          63.8841   88.4762   10.2476 H       1  UNL1        0.1553
     32 C          64.4862   88.8045   14.4824 C.3     1  UNL1        0.0345
     33 C          64.5067   89.9522   13.5189 C.ar    1  UNL1        0.0202
     34 C          63.7092   90.1575   12.3861 C.ar    1  UNL1        0.1946
     35 O          63.9920   91.3275   11.8406 O.2     1  UNL1       -0.4492
     36 C          64.9483   91.8802   12.5462 C.ar    1  UNL1        0.1452
     37 C          65.5591   93.1100   12.3265 C.ar    1  UNL1        0.0375
     38 C          66.5723   93.5115   13.2149 C.ar    1  UNL1        0.0031
     39 C          66.9571   92.6831   14.3040 C.ar    1  UNL1        0.0002
     40 C          66.3078   91.4394   14.4924 C.ar    1  UNL1        0.0028
     41 C          65.3090   91.0731   13.5904 C.ar    1  UNL1        0.0337
     42 C          68.0286   93.1175   15.2360 C.ar    1  UNL1        0.0000
     43 C          68.8388   92.1682   15.8877 C.ar    1  UNL1        0.0000
     44 C          69.8462   92.5802   16.7655 C.ar    1  UNL1        0.0000
     45 C          70.0569   93.9404   17.0022 C.ar    1  UNL1        0.0000
     46 C          69.2601   94.8918   16.3618 C.ar    1  UNL1        0.0000
     47 C          68.2506   94.4856   15.4836 C.ar    1  UNL1        0.0000
@<TRIPOS>BOND
     1    32    33    1
     2    33    34   ar
     3    34    28    1
     4    28    29    2
     5    28    30   am
     6    30     1    1
     7     1     2   ar
     8     2     3   ar
     9     3     4   ar
    10     4     7    1
    11     7     8    1
    12     8     9    1
    13     9    10    1
    14    10    16    1
    15    16    17    1
    16    17    18    1
    17    18    19   ar
    18    19    20   ar
    19    20    21   ar
    20    21    22   ar
    21    22    24    1
    22    24    25    2
    23    24    26    1
    24    22    23   ar
    25    10    11    1
    26    11    12    1
    27    11    13    1
    28     4     5   ar
    29     5     6   ar
    30    34    35   ar
    31    35    36   ar
    32    36    37   ar
    33    37    38   ar
    34    38    39   ar
    35    39    42    1
    36    42    43   ar
    37    43    44   ar
    38    44    45   ar
    39    45    46   ar
    40    46    47   ar
    41    39    40   ar
    42    40    41   ar
    43    41    33   ar
    44     6     1   ar
    45    41    36   ar
    46    13     7    1
    47    47    42   ar
    48    23    18   ar
    49    30    31    1
    50    26    27    1
    51    12    14    1
    52    12    15    1
@<TRIPOS>MOLECULE
*****
 47 52 0 0 0
SMALL
GASTEIGER

@<TRIPOS>ATOM
      1 C          59.9395   88.4309    7.4434 C.ar    1  UNL1        0.0702
      2 C          60.2147   88.8300    8.7594 C.ar    1  UNL1        0.0191
      3 C          59.8378   88.0196    9.8318 C.ar    1  UNL1        0.0356
      4 C          59.1660   86.8072    9.5885 C.ar    1  UNL1        0.1318
      5 N          58.8896   86.4591    8.2999 N.ar    1  UNL1       -0.2279
      6 C          59.2461   87.2326    7.2413 C.ar    1  UNL1        0.1149
      7 N          58.7689   85.9334   10.6725 N.pl3   1  UNL1       -0.2919
      8 C          59.5830   85.8356   11.8964 C.3     1  UNL1        0.0924
      9 C          59.1536   84.6518   12.7750 C.3     1  UNL1        0.0266
     10 C          58.9767   83.3783   11.9222 C.3     1  UNL1        0.0613
     11 C          57.9870   83.5883   10.7237 C.3     1  UNL1        0.0745
     12 N          58.5914   83.0945    9.4825 N.3     1  UNL1       -0.3207
     13 C          57.5867   85.0674   10.5468 C.3     1  UNL1        0.1077
     14 H          57.8832   83.1628    8.7155 H       1  UNL1        0.1189
     15 H          58.7881   82.0737    9.5925 H       1  UNL1        0.1189
     16 C          58.5347   82.2066   12.8234 C.3     1  UNL1        0.2067
     17 O          59.4315   81.1002   12.7128 O.3     1  UNL1       -0.4754
     18 C          60.4927   80.9964   11.7982 C.ar    1  UNL1        0.1388
     19 C          60.4944   80.0749   10.7339 C.ar    1  UNL1        0.0369
     20 C          61.5810   80.0145    9.8592 C.ar    1  UNL1        0.0033
     21 C          62.6720   80.8687   10.0314 C.ar    1  UNL1        0.0066
     22 C          62.6864   81.7987   11.0853 C.ar    1  UNL1        0.0785
     23 C          61.5882   81.8538   11.9616 C.ar    1  UNL1        0.0433
     24 C          63.8388   82.7076   11.2737 C.2     1  UNL1        0.3381
     25 O          63.7632   83.9162   10.9225 O.2     1  UNL1       -0.2451
     26 O          65.0197   82.2357   11.8413 O.3     1  UNL1       -0.4771
     27 H          65.8145   82.8496   11.9747 H       1  UNL1        0.2954
     28 C          59.5636   90.4288    5.9205 C.2     1  UNL1        0.2839
     29 O          58.5141   90.7678    6.5295 O.2     1  UNL1       -0.2665
     30 N          60.2861   89.2486    6.3137 N.am    1  UNL1       -0.2766
     31 H          61.1490   88.9893    5.7878 H       1  UNL1        0.1553
     32 C          62.3557   90.2083    4.2954 C.3     1  UNL1        0.0345
     33 C          61.2115   91.1498    4.0708 C.ar    1  UNL1        0.0202
     34 C          60.0130   91.2563    4.7875 C.ar    1  UNL1        0.1946
     35 O          59.2921   92.2584    4.3158 O.2     1  UNL1       -0.4492
     36 C          59.9496   92.7912    3.3149 C.ar    1  UNL1        0.1452
     37 C          59.5590   93.8648    2.5221 C.ar    1  UNL1        0.0375
     38 C          60.4258   94.2754    1.4939 C.ar    1  UNL1        0.0031
     39 C          61.6635   93.6114    1.2753 C.ar    1  UNL1        0.0002
     40 C          62.0232   92.5239    2.1071 C.ar    1  UNL1        0.0028
     41 C          61.1379   92.1432    3.1154 C.ar    1  UNL1        0.0337
     42 C          62.5710   94.0537    0.1863 C.ar    1  UNL1        0.0000
     43 C          62.0509   94.4754   -1.0522 C.ar    1  UNL1        0.0000
     44 C          62.9080   94.8904   -2.0760 C.ar    1  UNL1        0.0000
     45 C          64.2902   94.8901   -1.8766 C.ar    1  UNL1        0.0000
     46 C          64.8186   94.4743   -0.6525 C.ar    1  UNL1        0.0000
     47 C          63.9663   94.0575    0.3747 C.ar    1  UNL1        0.0000
@<TRIPOS>BOND
     1    32    33    1
     2    33    34   ar
     3    34    28    1
     4    28    29    2
     5    28    30   am
     6    30     1    1
     7     1     2   ar
     8     2     3   ar
     9     3     4   ar
    10     4     7    1
    11     7     8    1
    12     8     9    1
    13     9    10    1
    14    10    16    1
    15    16    17    1
    16    17    18    1
    17    18    19   ar
    18    19    20   ar
    19    20    21   ar
    20    21    22   ar
    21    22    24    1
    22    24    25    2
    23    24    26    1
    24    22    23   ar
    25    10    11    1
    26    11    12    1
    27    11    13    1
    28     4     5   ar
    29     5     6   ar
    30    34    35   ar
    31    35    36   ar
    32    36    37   ar
    33    37    38   ar
    34    38    39   ar
    35    39    42    1
    36    42    43   ar
    37    43    44   ar
    38    44    45   ar
    39    45    46   ar
    40    46    47   ar
    41    39    40   ar
    42    40    41   ar
    43    41    33   ar
    44     6     1   ar
    45    41    36   ar
    46    13     7    1
    47    47    42   ar
    48    23    18   ar
    49    30    31    1
    50    26    27    1
    51    12    14    1
    52    12    15    1
