@<TRIPOS>MOLECULE
*****
 38 42 0 0 0
SMALL
GASTEIGER

@<TRIPOS>ATOM
      1 C          47.9795   11.2112  -21.6366 C.2     1  UNL1        0.2492
      2 O          47.2414   10.2521  -21.9909 O.2     1  UNL1       -0.2699
      3 N          48.5777   12.0724  -22.6304 N.am    1  UNL1       -0.2680
      4 C          48.9461   13.4523  -22.3021 C.3     1  UNL1        0.1412
      5 C          47.6921   14.3250  -22.2319 C.3     1  UNL1        0.2268
      6 O          46.5785   13.7202  -22.8912 O.3     1  UNL1       -0.4739
      7 C          46.5644   13.3812  -24.2501 C.ar    1  UNL1        0.1362
      8 C          45.5678   13.9544  -25.0461 C.ar    1  UNL1        0.0366
      9 C          45.4894   13.6705  -26.4089 C.ar    1  UNL1        0.0031
     10 C          46.4052   12.7918  -27.0055 C.ar    1  UNL1       -0.0000
     11 C          47.3936   12.1933  -26.2059 C.ar    1  UNL1        0.0004
     12 C          47.4845   12.4661  -24.8296 C.ar    1  UNL1        0.0317
     13 C          48.5439   11.7093  -24.0499 C.3     1  UNL1        0.1236
     14 C          46.3260   12.4914  -28.4575 C.ar    1  UNL1        0.0015
     15 C          46.5350   11.1658  -28.9320 C.ar    1  UNL1        0.0016
     16 C          46.4616   10.8714  -30.3064 C.ar    1  UNL1        0.0206
     17 C          46.1789   11.9168  -31.1789 C.ar    1  UNL1        0.0985
     18 N          46.0605   11.8632  -32.5176 N.ar    1  UNL1       -0.2241
     19 C          45.7809   13.1519  -32.8477 C.ar    1  UNL1        0.1750
     20 N          45.7235   13.9833  -31.7795 N.ar    1  UNL1       -0.3349
     21 C          45.9782   13.1868  -30.7349 C.ar    1  UNL1        0.0757
     22 C          46.0414   13.5229  -29.3856 C.ar    1  UNL1        0.0185
     23 H          45.5261   15.0086  -31.7759 H       1  UNL1        0.1675
     24 C          47.0832   11.6944  -19.3246 C.ar    1  UNL1       -0.0163
     25 C          47.3343   11.9102  -17.9602 C.ar    1  UNL1        0.0173
     26 C          48.6413   11.8902  -17.4527 C.ar    1  UNL1        0.1392
     27 C          49.7229   11.6553  -18.3189 C.ar    1  UNL1        0.1558
     28 C          49.4776   11.4471  -19.6879 C.ar    1  UNL1        0.0424
     29 C          48.1716   11.4558  -20.1941 C.ar    1  UNL1        0.0527
     30 S          48.9388   12.1652  -15.7307 S.O2    1  UNL1        0.0133
     31 C          48.6696   13.8595  -15.2483 C.3     1  UNL1        0.1817
     32 O          48.0171   11.2905  -14.9283 O.2     1  UNL1       -0.1685
     33 O          50.3644   11.8084  -15.4161 O.2     1  UNL1       -0.1685
     34 O          51.0241   11.6336  -17.7896 O.3     1  UNL1       -0.4701
     35 C          52.0988   12.4471  -18.2487 C.3     1  UNL1        0.2525
     36 C          45.6585   11.7978  -19.8309 C.3     1  UNL1        0.0265
     37 C          43.2138   11.8649  -19.1177 C.3     1  UNL1        0.0004
     38 C          44.6644   12.1077  -18.7023 C.3     1  UNL1        0.0047
@<TRIPOS>BOND
     1    37    38    1
     2    38    36    1
     3    36    24    1
     4    24    25   ar
     5    25    26   ar
     6    26    30    1
     7    30    31    1
     8    30    32    2
     9    30    33    2
    10    26    27   ar
    11    27    34    1
    12    34    35    1
    13    27    28   ar
    14    28    29   ar
    15    29     1    1
    16     1     2    2
    17     1     3   am
    18     3     4    1
    19     4     5    1
    20     5     6    1
    21     6     7    1
    22     7     8   ar
    23     8     9   ar
    24     9    10   ar
    25    10    14    1
    26    14    15   ar
    27    15    16   ar
    28    16    17   ar
    29    17    18   ar
    30    18    19   ar
    31    19    20   ar
    32    20    21   ar
    33    21    22   ar
    34    10    11   ar
    35    11    12   ar
    36    12    13    1
    37    29    24   ar
    38    13     3    1
    39    12     7   ar
    40    22    14   ar
    41    21    17   ar
    42    20    23    1
@<TRIPOS>MOLECULE
*****
 38 42 0 0 0
SMALL
GASTEIGER

@<TRIPOS>ATOM
      1 C          46.5254   13.1720  -25.5617 C.2     1  UNL1        0.2492
      2 O          45.5655   12.8119  -24.8275 O.2     1  UNL1       -0.2699
      3 N          47.7923   13.5389  -24.9721 N.am    1  UNL1       -0.2680
      4 C          49.0373   13.4170  -25.7355 C.3     1  UNL1        0.1412
      5 C          49.4517   11.9476  -25.8275 C.3     1  UNL1        0.2268
      6 O          48.8050   11.1437  -24.8395 O.3     1  UNL1       -0.4739
      7 C          48.9327   11.3475  -23.4597 C.ar    1  UNL1        0.1362
      8 C          49.4279   10.2863  -22.6955 C.ar    1  UNL1        0.0366
      9 C          49.5886   10.4121  -21.3163 C.ar    1  UNL1        0.0031
     10 C          49.2436   11.6061  -20.6666 C.ar    1  UNL1       -0.0000
     11 C          48.7221   12.6674  -21.4257 C.ar    1  UNL1        0.0004
     12 C          48.5505   12.5560  -22.8167 C.ar    1  UNL1        0.0317
     13 C          47.9122   13.7367  -23.5249 C.3     1  UNL1        0.1236
     14 C          49.4180   11.7435  -19.1985 C.ar    1  UNL1        0.0015
     15 C          48.3152   11.5487  -18.3201 C.ar    1  UNL1        0.0016
     16 C          48.4708   11.6764  -16.9270 C.ar    1  UNL1        0.0206
     17 C          49.7342   11.9980  -16.4430 C.ar    1  UNL1        0.0985
     18 N          50.1072   12.1660  -15.1616 N.ar    1  UNL1       -0.2241
     19 C          51.4300   12.4606  -15.2684 C.ar    1  UNL1        0.1750
     20 N          51.8780   12.4798  -16.5469 N.ar    1  UNL1       -0.3349
     21 C          50.7940   12.1867  -17.2745 C.ar    1  UNL1        0.0757
     22 C          50.6856   12.0706  -18.6575 C.ar    1  UNL1        0.0185
     23 H          52.8464   12.6782  -16.8832 H       1  UNL1        0.1675
     24 C          46.0999   14.3449  -27.7583 C.ar    1  UNL1       -0.0163
     25 C          45.9375   14.2649  -29.1506 C.ar    1  UNL1        0.0173
     26 C          46.0075   13.0338  -29.8180 C.ar    1  UNL1        0.1392
     27 C          46.2394   11.8558  -29.0872 C.ar    1  UNL1        0.1558
     28 C          46.3941   11.9293  -27.6914 C.ar    1  UNL1        0.0424
     29 C          46.3354   13.1598  -27.0249 C.ar    1  UNL1        0.0527
     30 S          45.7995   12.9521  -31.5729 S.O2    1  UNL1        0.0133
     31 C          44.2048   12.3136  -32.0473 C.3     1  UNL1        0.1817
     32 O          45.9494   14.3319  -32.1490 O.2     1  UNL1       -0.1685
     33 O          46.8560   12.0528  -32.1507 O.2     1  UNL1       -0.1685
     34 O          46.3117   10.6331  -29.7755 O.3     1  UNL1       -0.4701
     35 C          47.3116    9.6420  -29.5628 C.3     1  UNL1        0.2525
     36 C          45.9435   15.6913  -27.0803 C.3     1  UNL1        0.0265
     37 C          47.6388   17.1914  -25.9119 C.3     1  UNL1        0.0004
     38 C          47.1966   16.5655  -27.2342 C.3     1  UNL1        0.0047
@<TRIPOS>BOND
     1    37    38    1
     2    38    36    1
     3    36    24    1
     4    24    25   ar
     5    25    26   ar
     6    26    30    1
     7    30    31    1
     8    30    32    2
     9    30    33    2
    10    26    27   ar
    11    27    34    1
    12    34    35    1
    13    27    28   ar
    14    28    29   ar
    15    29     1    1
    16     1     2    2
    17     1     3   am
    18     3     4    1
    19     4     5    1
    20     5     6    1
    21     6     7    1
    22     7     8   ar
    23     8     9   ar
    24     9    10   ar
    25    10    14    1
    26    14    15   ar
    27    15    16   ar
    28    16    17   ar
    29    17    18   ar
    30    18    19   ar
    31    19    20   ar
    32    20    21   ar
    33    21    22   ar
    34    10    11   ar
    35    11    12   ar
    36    12    13    1
    37    29    24   ar
    38    13     3    1
    39    12     7   ar
    40    22    14   ar
    41    21    17   ar
    42    20    23    1
@<TRIPOS>MOLECULE
*****
 38 42 0 0 0
SMALL
GASTEIGER

@<TRIPOS>ATOM
      1 C          49.5718   11.6712  -21.8133 C.2     1  UNL1        0.2492
      2 O          49.7192   10.5234  -22.3144 O.2     1  UNL1       -0.2699
      3 N          49.1836   12.7838  -22.6491 N.am    1  UNL1       -0.2680
      4 C          48.4795   13.9371  -22.0820 C.3     1  UNL1        0.1412
      5 C          47.0197   13.5737  -21.8060 C.3     1  UNL1        0.2268
      6 O          46.6095   12.4108  -22.5272 O.3     1  UNL1       -0.4739
      7 C          46.6262   12.3109  -23.9242 C.ar    1  UNL1        0.1362
      8 C          45.4154   12.0270  -24.5636 C.ar    1  UNL1        0.0366
      9 C          45.3485   11.9162  -25.9518 C.ar    1  UNL1        0.0031
     10 C          46.5016   12.0761  -26.7338 C.ar    1  UNL1       -0.0000
     11 C          47.7258   12.3369  -26.0953 C.ar    1  UNL1        0.0004
     12 C          47.8114   12.4484  -24.6964 C.ar    1  UNL1        0.0317
     13 C          49.1948   12.6594  -24.1094 C.3     1  UNL1        0.1236
     14 C          46.4316   11.9626  -28.2127 C.ar    1  UNL1        0.0015
     15 C          46.6865   10.7173  -28.8531 C.ar    1  UNL1        0.0016
     16 C          46.6222   10.5999  -30.2542 C.ar    1  UNL1        0.0206
     17 C          46.3023   11.7384  -30.9859 C.ar    1  UNL1        0.0985
     18 N          46.1846   11.8536  -32.3209 N.ar    1  UNL1       -0.2241
     19 C          45.8596   13.1635  -32.4833 C.ar    1  UNL1        0.1750
     20 N          45.7742   13.8479  -31.3172 N.ar    1  UNL1       -0.3349
     21 C          46.0576   12.9329  -30.3829 C.ar    1  UNL1        0.0757
     22 C          46.1102   13.0945  -29.0013 C.ar    1  UNL1        0.0185
     23 H          45.5408   14.8567  -31.1824 H       1  UNL1        0.1675
     24 C          50.9230   12.4143  -19.8123 C.ar    1  UNL1       -0.0163
     25 C          51.0310   12.5480  -18.4189 C.ar    1  UNL1        0.0173
     26 C          50.0029   12.1169  -17.5684 C.ar    1  UNL1        0.1392
     27 C          48.8441   11.5367  -18.1125 C.ar    1  UNL1        0.1558
     28 C          48.7345   11.3926  -19.5071 C.ar    1  UNL1        0.0424
     29 C          49.7561   11.8328  -20.3582 C.ar    1  UNL1        0.0527
     30 S          50.1568   12.2925  -15.8148 S.O2    1  UNL1        0.0133
     31 C          51.7716   12.8613  -15.3199 C.3     1  UNL1        0.1817
     32 O          49.1352   13.2821  -15.3298 O.2     1  UNL1       -0.1685
     33 O          49.9088   10.9604  -15.1648 O.2     1  UNL1       -0.1685
     34 O          47.8231   11.1166  -17.2436 O.3     1  UNL1       -0.4701
     35 C          46.4523   10.9885  -17.6068 C.3     1  UNL1        0.2525
     36 C          52.0938   12.8313  -20.6796 C.3     1  UNL1        0.0265
     37 C          52.2751   14.7836  -22.3060 C.3     1  UNL1        0.0004
     38 C          52.1795   14.3558  -20.8418 C.3     1  UNL1        0.0047
@<TRIPOS>BOND
     1    37    38    1
     2    38    36    1
     3    36    24    1
     4    24    25   ar
     5    25    26   ar
     6    26    30    1
     7    30    31    1
     8    30    32    2
     9    30    33    2
    10    26    27   ar
    11    27    34    1
    12    34    35    1
    13    27    28   ar
    14    28    29   ar
    15    29     1    1
    16     1     2    2
    17     1     3   am
    18     3     4    1
    19     4     5    1
    20     5     6    1
    21     6     7    1
    22     7     8   ar
    23     8     9   ar
    24     9    10   ar
    25    10    14    1
    26    14    15   ar
    27    15    16   ar
    28    16    17   ar
    29    17    18   ar
    30    18    19   ar
    31    19    20   ar
    32    20    21   ar
    33    21    22   ar
    34    10    11   ar
    35    11    12   ar
    36    12    13    1
    37    29    24   ar
    38    13     3    1
    39    12     7   ar
    40    22    14   ar
    41    21    17   ar
    42    20    23    1
@<TRIPOS>MOLECULE
*****
 38 42 0 0 0
SMALL
GASTEIGER

@<TRIPOS>ATOM
      1 C          49.5598    9.8463  -22.1461 C.2     1  UNL1        0.2492
      2 O          48.9213    8.7791  -22.3547 O.2     1  UNL1       -0.2699
      3 N          50.4786   10.3488  -23.1414 N.am    1  UNL1       -0.2680
      4 C          50.7951   11.7778  -23.2153 C.3     1  UNL1        0.1412
      5 C          49.6260   12.5399  -23.8411 C.3     1  UNL1        0.2268
      6 O          48.7430   11.6757  -24.5582 O.3     1  UNL1       -0.4739
      7 C          49.1340   10.8894  -25.6493 C.ar    1  UNL1        0.1362
      8 C          48.4630   11.0891  -26.8598 C.ar    1  UNL1        0.0366
      9 C          48.7969   10.3490  -27.9932 C.ar    1  UNL1        0.0031
     10 C          49.8077    9.3786  -27.9359 C.ar    1  UNL1       -0.0000
     11 C          50.4686    9.1560  -26.7160 C.ar    1  UNL1        0.0004
     12 C          50.1419    9.8911  -25.5629 C.ar    1  UNL1        0.0317
     13 C          50.8684    9.5178  -24.2839 C.3     1  UNL1        0.1236
     14 C          50.1677    8.5923  -29.1430 C.ar    1  UNL1        0.0015
     15 C          51.5308    8.4359  -29.5215 C.ar    1  UNL1        0.0016
     16 C          51.8817    7.6922  -30.6638 C.ar    1  UNL1        0.0206
     17 C          50.8540    7.1189  -31.4047 C.ar    1  UNL1        0.0985
     18 N          50.9588    6.3733  -32.5193 N.ar    1  UNL1       -0.2241
     19 C          49.6634    6.0817  -32.8104 C.ar    1  UNL1        0.1750
     20 N          48.7793    6.6112  -31.9309 N.ar    1  UNL1       -0.3349
     21 C          49.5485    7.2633  -31.0512 C.ar    1  UNL1        0.0757
     22 C          49.1562    7.9897  -29.9304 C.ar    1  UNL1        0.0185
     23 H          47.7386    6.5278  -31.9403 H       1  UNL1        0.1675
     24 C          48.0216   11.0633  -20.5540 C.ar    1  UNL1       -0.0163
     25 C          47.8473   11.7496  -19.3416 C.ar    1  UNL1        0.0173
     26 C          48.9240   11.9625  -18.4690 C.ar    1  UNL1        0.1392
     27 C          50.2024   11.4877  -18.8090 C.ar    1  UNL1        0.1558
     28 C          50.3843   10.8072  -20.0261 C.ar    1  UNL1        0.0424
     29 C          49.3073   10.5842  -20.8935 C.ar    1  UNL1        0.0527
     30 S          48.6857   12.8303  -16.9460 S.O2    1  UNL1        0.0133
     31 C          48.5425   11.7364  -15.5464 C.3     1  UNL1        0.1817
     32 O          49.8546   13.7461  -16.7156 O.2     1  UNL1       -0.1685
     33 O          47.4252   13.6438  -17.0368 O.2     1  UNL1       -0.1685
     34 O          51.2667   11.7063  -17.9183 O.3     1  UNL1       -0.4701
     35 C          52.4114   12.5033  -18.2044 C.3     1  UNL1        0.2525
     36 C          46.8392   10.9240  -21.4917 C.3     1  UNL1        0.0265
     37 C          45.8430   12.3078  -23.3844 C.3     1  UNL1        0.0004
     38 C          46.2758   12.2872  -21.9188 C.3     1  UNL1        0.0047
@<TRIPOS>BOND
     1    37    38    1
     2    38    36    1
     3    36    24    1
     4    24    25   ar
     5    25    26   ar
     6    26    30    1
     7    30    31    1
     8    30    32    2
     9    30    33    2
    10    26    27   ar
    11    27    34    1
    12    34    35    1
    13    27    28   ar
    14    28    29   ar
    15    29     1    1
    16     1     2    2
    17     1     3   am
    18     3     4    1
    19     4     5    1
    20     5     6    1
    21     6     7    1
    22     7     8   ar
    23     8     9   ar
    24     9    10   ar
    25    10    14    1
    26    14    15   ar
    27    15    16   ar
    28    16    17   ar
    29    17    18   ar
    30    18    19   ar
    31    19    20   ar
    32    20    21   ar
    33    21    22   ar
    34    10    11   ar
    35    11    12   ar
    36    12    13    1
    37    29    24   ar
    38    13     3    1
    39    12     7   ar
    40    22    14   ar
    41    21    17   ar
    42    20    23    1
@<TRIPOS>MOLECULE
*****
 38 42 0 0 0
SMALL
GASTEIGER

@<TRIPOS>ATOM
      1 C          49.6324    9.7745  -22.4083 C.2     1  UNL1        0.2492
      2 O          49.0485    8.6720  -22.5917 O.2     1  UNL1       -0.2699
      3 N          50.5191   10.3034  -23.4189 N.am    1  UNL1       -0.2680
      4 C          50.7613   11.7449  -23.5232 C.3     1  UNL1        0.1412
      5 C          49.5514   12.4332  -24.1570 C.3     1  UNL1        0.2268
      6 O          48.7105   11.5105  -24.8514 O.3     1  UNL1       -0.4739
      7 C          49.1360   10.7235  -25.9290 C.ar    1  UNL1        0.1362
      8 C          48.4495   10.8639  -27.1391 C.ar    1  UNL1        0.0366
      9 C          48.8153   10.1193  -28.2595 C.ar    1  UNL1        0.0031
     10 C          49.8750    9.2034  -28.1890 C.ar    1  UNL1       -0.0000
     11 C          50.5525    9.0396  -26.9690 C.ar    1  UNL1        0.0004
     12 C          50.1943    9.7802  -25.8288 C.ar    1  UNL1        0.0317
     13 C          50.9455    9.4706  -24.5470 C.3     1  UNL1        0.1236
     14 C          50.2689    8.4123  -29.3824 C.ar    1  UNL1        0.0015
     15 C          49.2770    7.8331  -30.2229 C.ar    1  UNL1        0.0016
     16 C          49.6407    7.0819  -31.3563 C.ar    1  UNL1        0.0206
     17 C          50.9966    6.9275  -31.6236 C.ar    1  UNL1        0.0985
     18 N          51.5643    6.2587  -32.6432 N.ar    1  UNL1       -0.2241
     19 C          52.8931    6.4351  -32.4174 C.ar    1  UNL1        0.1750
     20 N          53.1604    7.1756  -31.3148 N.ar    1  UNL1       -0.3349
     21 C          51.9518    7.4768  -30.8259 C.ar    1  UNL1        0.0757
     22 C          51.6377    8.2264  -29.6957 C.ar    1  UNL1        0.0185
     23 H          54.0951    7.4467  -30.9365 H       1  UNL1        0.1675
     24 C          48.0568   11.0139  -20.8709 C.ar    1  UNL1       -0.0163
     25 C          47.8519   11.7106  -19.6693 C.ar    1  UNL1        0.0173
     26 C          48.9041   11.9230  -18.7672 C.ar    1  UNL1        0.1392
     27 C          50.1886   11.4371  -19.0661 C.ar    1  UNL1        0.1558
     28 C          50.4012   10.7460  -20.2723 C.ar    1  UNL1        0.0424
     29 C          49.3485   10.5237  -21.1691 C.ar    1  UNL1        0.0527
     30 S          48.6275   12.8040  -17.2583 S.O2    1  UNL1        0.0133
     31 C          48.6232   11.7377  -15.8304 C.3     1  UNL1        0.1817
     32 O          49.7128   13.8285  -17.0829 O.2     1  UNL1       -0.1685
     33 O          47.2954   13.4960  -17.3314 O.2     1  UNL1       -0.1685
     34 O          51.2280   11.6554  -18.1464 O.3     1  UNL1       -0.4701
     35 C          52.3703   12.4688  -18.3932 C.3     1  UNL1        0.2525
     36 C          46.9013   10.8754  -21.8418 C.3     1  UNL1        0.0265
     37 C          45.8138   12.3380  -23.6215 C.3     1  UNL1        0.0004
     38 C          46.2480   12.2280  -22.1603 C.3     1  UNL1        0.0047
@<TRIPOS>BOND
     1    37    38    1
     2    38    36    1
     3    36    24    1
     4    24    25   ar
     5    25    26   ar
     6    26    30    1
     7    30    31    1
     8    30    32    2
     9    30    33    2
    10    26    27   ar
    11    27    34    1
    12    34    35    1
    13    27    28   ar
    14    28    29   ar
    15    29     1    1
    16     1     2    2
    17     1     3   am
    18     3     4    1
    19     4     5    1
    20     5     6    1
    21     6     7    1
    22     7     8   ar
    23     8     9   ar
    24     9    10   ar
    25    10    14    1
    26    14    15   ar
    27    15    16   ar
    28    16    17   ar
    29    17    18   ar
    30    18    19   ar
    31    19    20   ar
    32    20    21   ar
    33    21    22   ar
    34    10    11   ar
    35    11    12   ar
    36    12    13    1
    37    29    24   ar
    38    13     3    1
    39    12     7   ar
    40    22    14   ar
    41    21    17   ar
    42    20    23    1
