@<TRIPOS>MOLECULE
*****
 50 55 0 0 0
SMALL
GASTEIGER

@<TRIPOS>ATOM
      1 C         -60.4101  -44.6811  -28.0857 C.3     1  UNL1        0.1535
      2 N         -60.7122  -44.0043  -26.8194 N.am    1  UNL1       -0.2945
      3 C         -60.7296  -44.7085  -25.5676 C.2     1  UNL1        0.2483
      4 O         -60.3056  -45.8953  -25.5109 O.2     1  UNL1       -0.2701
      5 H         -60.8693  -42.9709  -26.8176 H       1  UNL1        0.1501
      6 C         -61.2067  -44.0495  -24.3315 C.ar    1  UNL1        0.0808
      7 C         -62.1065  -44.7240  -23.4896 C.ar    1  UNL1        0.0080
      8 C         -62.5654  -44.1247  -22.3139 C.ar    1  UNL1        0.0148
      9 C         -62.1470  -42.8319  -21.9649 C.ar    1  UNL1        0.0502
     10 C         -61.2572  -42.1507  -22.8106 C.ar    1  UNL1        0.0443
     11 C         -60.7937  -42.7479  -23.9869 C.ar    1  UNL1        0.1457
     12 F         -59.9791  -42.0329  -24.8035 F       1  UNL1       -0.2040
     13 N         -62.6096  -42.2191  -20.7462 N.pl3   1  UNL1       -0.3040
     14 C         -63.9729  -42.4632  -20.2536 C.3     1  UNL1        0.1122
     15 C         -64.6943  -41.1271  -20.0435 C.3     1  UNL1        0.1122
     16 N         -63.8140  -40.1366  -19.4021 N.pl3   1  UNL1       -0.3040
     17 C         -62.4900  -40.5484  -18.9139 C.3     1  UNL1        0.1122
     18 C         -61.7323  -41.2802  -20.0276 C.3     1  UNL1        0.1122
     19 C         -64.2296  -38.7595  -19.3273 C.ar    1  UNL1        0.0488
     20 C         -65.5407  -38.3924  -19.6708 C.ar    1  UNL1        0.0154
     21 C         -65.9388  -37.0544  -19.6097 C.ar    1  UNL1        0.0135
     22 C         -65.0333  -36.0655  -19.2115 C.ar    1  UNL1        0.0683
     23 CL        -65.5717  -34.3928  -19.1479 Cl      1  UNL1       -0.0814
     24 C         -63.7171  -36.4212  -18.8735 C.ar    1  UNL1        0.0694
     25 CL        -62.5438  -35.2085  -18.3786 Cl      1  UNL1       -0.0813
     26 C         -63.3207  -37.7623  -18.9344 C.ar    1  UNL1        0.0268
     27 C         -61.0377  -46.0503  -28.0857 C.2     1  UNL1        0.2443
     28 O         -60.3108  -47.0643  -28.2738 O.2     1  UNL1       -0.2730
     29 N         -62.4551  -46.1949  -27.9006 N.am    1  UNL1       -0.2825
     30 H         -63.0572  -45.3535  -28.0489 H       1  UNL1        0.1549
     31 C         -63.1067  -47.4487  -27.6356 C.ar    1  UNL1        0.0535
     32 C         -63.5052  -48.3049  -28.6764 C.ar    1  UNL1        0.0353
     33 C         -64.1122  -49.5256  -28.3698 C.ar    1  UNL1        0.1002
     34 N         -64.3021  -49.8871  -27.0733 N.ar    1  UNL1       -0.2422
     35 C         -63.9098  -49.0874  -26.0467 C.ar    1  UNL1        0.1002
     36 C         -63.2980  -47.8593  -26.3092 C.ar    1  UNL1        0.0353
     37 C         -60.9353  -43.8698  -29.2883 C.3     1  UNL1        0.0569
     38 C         -61.7780  -43.2986  -32.4304 C.ar    1  UNL1        0.0084
     39 C         -61.8369  -43.1766  -33.8425 C.ar    1  UNL1       -0.0018
     40 C         -60.7661  -43.5937  -34.6550 C.ar    1  UNL1        0.0012
     41 C         -59.6101  -44.1369  -34.0834 C.ar    1  UNL1        0.0169
     42 C         -59.5523  -44.2434  -32.6977 C.ar    1  UNL1        0.0561
     43 N         -58.5305  -44.7422  -31.9862 N.ar    1  UNL1       -0.3523
     44 C         -58.8975  -44.6614  -30.6927 C.ar    1  UNL1        0.0681
     45 C         -60.1665  -44.0904  -30.5731 C.ar    1  UNL1       -0.0019
     46 C         -60.5880  -43.8358  -31.8824 C.ar    1  UNL1        0.0115
     47 H         -57.6320  -45.1249  -32.3560 H       1  UNL1        0.1660
     48 C         -62.9298  -42.8383  -31.5623 C.3     1  UNL1        0.1687
     49 C         -64.1911  -44.6454  -30.8204 C.3     1  UNL1        0.1746
     50 O         -64.0983  -43.6122  -31.7768 O.3     1  UNL1       -0.3463
@<TRIPOS>BOND
     1    49    50    1
     2    50    48    1
     3    48    38    1
     4    38    39   ar
     5    39    40   ar
     6    40    41   ar
     7    41    42   ar
     8    42    43   ar
     9    43    44   ar
    10    44    45   ar
    11    45    37    1
    12    37     1    1
    13     1     2    1
    14     2     3   am
    15     3     4    2
    16     3     6    1
    17     6     7   ar
    18     7     8   ar
    19     8     9   ar
    20     9    13    1
    21    13    14    1
    22    14    15    1
    23    15    16    1
    24    16    19    1
    25    19    20   ar
    26    20    21   ar
    27    21    22   ar
    28    22    23    1
    29    22    24   ar
    30    24    25    1
    31    24    26   ar
    32    16    17    1
    33    17    18    1
    34     9    10   ar
    35    10    11   ar
    36    11    12    1
    37     1    27    1
    38    27    28    2
    39    27    29   am
    40    29    31    1
    41    31    32   ar
    42    32    33   ar
    43    33    34   ar
    44    34    35   ar
    45    35    36   ar
    46    45    46   ar
    47    46    38   ar
    48    46    42   ar
    49    11     6   ar
    50    36    31   ar
    51    18    13    1
    52    26    19   ar
    53    43    47    1
    54     2     5    1
    55    29    30    1
@<TRIPOS>MOLECULE
*****
 50 55 0 0 0
SMALL
GASTEIGER

@<TRIPOS>ATOM
      1 C         -61.1618  -45.8641  -27.0144 C.3     1  UNL1        0.1535
      2 N         -61.5990  -44.9798  -25.9282 N.am    1  UNL1       -0.2945
      3 C         -61.0774  -45.0999  -24.5952 C.2     1  UNL1        0.2483
      4 O         -60.0931  -45.8573  -24.3738 O.2     1  UNL1       -0.2701
      5 H         -62.2704  -44.2068  -26.1380 H       1  UNL1        0.1501
      6 C         -61.6566  -44.3193  -23.4793 C.ar    1  UNL1        0.0808
      7 C         -62.1973  -44.9917  -22.3707 C.ar    1  UNL1        0.0080
      8 C         -62.7436  -44.2760  -21.3024 C.ar    1  UNL1        0.0148
      9 C         -62.7754  -42.8736  -21.3286 C.ar    1  UNL1        0.0502
     10 C         -62.2467  -42.1994  -22.4407 C.ar    1  UNL1        0.0443
     11 C         -61.6970  -42.9119  -23.5109 C.ar    1  UNL1        0.1457
     12 F         -61.2479  -42.2228  -24.5904 F       1  UNL1       -0.2040
     13 N         -63.3264  -42.1353  -20.2213 N.pl3   1  UNL1       -0.3040
     14 C         -64.7737  -42.1359  -19.9645 C.3     1  UNL1        0.1122
     15 C         -65.2906  -40.6937  -19.9113 C.3     1  UNL1        0.1122
     16 N         -64.3780  -39.8240  -19.1508 N.pl3   1  UNL1       -0.3040
     17 C         -63.2390  -40.4151  -18.4337 C.3     1  UNL1        0.1122
     18 C         -62.4381  -41.3122  -19.3842 C.3     1  UNL1        0.1122
     19 C         -64.5683  -38.3965  -19.1793 C.ar    1  UNL1        0.0488
     20 C         -65.7950  -37.8504  -19.5900 C.ar    1  UNL1        0.0154
     21 C         -65.9740  -36.4652  -19.6290 C.ar    1  UNL1        0.0135
     22 C         -64.9307  -35.6076  -19.2651 C.ar    1  UNL1        0.0683
     23 CL        -65.1944  -33.8702  -19.3280 Cl      1  UNL1       -0.0814
     24 C         -63.6970  -36.1437  -18.8605 C.ar    1  UNL1        0.0694
     25 CL        -62.3556  -35.1016  -18.4056 Cl      1  UNL1       -0.0813
     26 C         -63.5201  -37.5317  -18.8210 C.ar    1  UNL1        0.0268
     27 C         -61.5865  -47.2774  -26.7134 C.2     1  UNL1        0.2443
     28 O         -61.2556  -48.2045  -27.5026 O.2     1  UNL1       -0.2730
     29 N         -62.3843  -47.5600  -25.5523 N.am    1  UNL1       -0.2825
     30 H         -62.8867  -46.7644  -25.0974 H       1  UNL1        0.1549
     31 C         -62.6249  -48.8838  -25.0459 C.ar    1  UNL1        0.0535
     32 C         -61.6687  -49.5586  -24.2678 C.ar    1  UNL1        0.0353
     33 C         -61.9571  -50.8342  -23.7758 C.ar    1  UNL1        0.1002
     34 N         -63.1599  -51.4109  -24.0369 N.ar    1  UNL1       -0.2422
     35 C         -64.1103  -50.7739  -24.7707 C.ar    1  UNL1        0.1002
     36 C         -63.8632  -49.4970  -25.2804 C.ar    1  UNL1        0.0353
     37 C         -61.7583  -45.4201  -28.3662 C.3     1  UNL1        0.0569
     38 C         -62.0396  -43.9698  -31.3203 C.ar    1  UNL1        0.0084
     39 C         -61.8379  -43.4255  -32.6147 C.ar    1  UNL1       -0.0018
     40 C         -60.5850  -43.5046  -33.2510 C.ar    1  UNL1        0.0012
     41 C         -59.5025  -44.1217  -32.6143 C.ar    1  UNL1        0.0169
     42 C         -59.7022  -44.6432  -31.3403 C.ar    1  UNL1        0.0561
     43 N         -58.7830  -45.2695  -30.5906 N.ar    1  UNL1       -0.3523
     44 C         -59.4019  -45.6120  -29.4444 C.ar    1  UNL1        0.0681
     45 C         -60.7324  -45.1873  -29.4542 C.ar    1  UNL1       -0.0019
     46 C         -60.9203  -44.5717  -30.6962 C.ar    1  UNL1        0.0115
     47 H         -57.7882  -45.4624  -30.8432 H       1  UNL1        0.1660
     48 C         -63.3876  -43.8717  -30.6380 C.3     1  UNL1        0.1687
     49 C         -64.0171  -41.7042  -30.0789 C.3     1  UNL1        0.1746
     50 O         -64.1090  -42.7230  -31.0507 O.3     1  UNL1       -0.3463
@<TRIPOS>BOND
     1    49    50    1
     2    50    48    1
     3    48    38    1
     4    38    39   ar
     5    39    40   ar
     6    40    41   ar
     7    41    42   ar
     8    42    43   ar
     9    43    44   ar
    10    44    45   ar
    11    45    37    1
    12    37     1    1
    13     1     2    1
    14     2     3   am
    15     3     4    2
    16     3     6    1
    17     6     7   ar
    18     7     8   ar
    19     8     9   ar
    20     9    13    1
    21    13    14    1
    22    14    15    1
    23    15    16    1
    24    16    19    1
    25    19    20   ar
    26    20    21   ar
    27    21    22   ar
    28    22    23    1
    29    22    24   ar
    30    24    25    1
    31    24    26   ar
    32    16    17    1
    33    17    18    1
    34     9    10   ar
    35    10    11   ar
    36    11    12    1
    37     1    27    1
    38    27    28    2
    39    27    29   am
    40    29    31    1
    41    31    32   ar
    42    32    33   ar
    43    33    34   ar
    44    34    35   ar
    45    35    36   ar
    46    45    46   ar
    47    46    38   ar
    48    46    42   ar
    49    11     6   ar
    50    36    31   ar
    51    18    13    1
    52    26    19   ar
    53    43    47    1
    54     2     5    1
    55    29    30    1
@<TRIPOS>MOLECULE
*****
 50 55 0 0 0
SMALL
GASTEIGER

@<TRIPOS>ATOM
      1 C         -62.0104  -39.9872  -20.7777 C.3     1  UNL1        0.1535
      2 N         -62.3383  -40.1423  -22.1994 N.am    1  UNL1       -0.2945
      3 C         -63.5499  -40.7800  -22.6338 C.2     1  UNL1        0.2483
      4 O         -64.4466  -41.0604  -21.7918 O.2     1  UNL1       -0.2701
      5 H         -61.6996  -39.7330  -22.9184 H       1  UNL1        0.1501
      6 C         -63.7786  -41.0830  -24.0641 C.ar    1  UNL1        0.0808
      7 C         -64.8418  -40.4639  -24.7422 C.ar    1  UNL1        0.0080
      8 C         -65.0731  -40.7293  -26.0943 C.ar    1  UNL1        0.0148
      9 C         -64.2562  -41.6322  -26.7913 C.ar    1  UNL1        0.0502
     10 C         -63.2005  -42.2616  -26.1130 C.ar    1  UNL1        0.0443
     11 C         -62.9641  -41.9969  -24.7604 C.ar    1  UNL1        0.1457
     12 F         -61.9683  -42.6690  -24.1292 F       1  UNL1       -0.2040
     13 N         -64.4864  -41.8958  -28.1885 N.pl3   1  UNL1       -0.3040
     14 C         -65.0229  -43.1912  -28.6298 C.3     1  UNL1        0.1122
     15 C         -64.0878  -43.8098  -29.6752 C.3     1  UNL1        0.1122
     16 N         -63.6243  -42.8026  -30.6438 N.pl3   1  UNL1       -0.3040
     17 C         -64.1933  -41.4475  -30.6125 C.3     1  UNL1        0.1122
     18 C         -64.1099  -40.8839  -29.1895 C.3     1  UNL1        0.1122
     19 C         -62.5656  -43.1345  -31.5624 C.ar    1  UNL1        0.0488
     20 C         -62.7315  -42.9327  -32.9421 C.ar    1  UNL1        0.0154
     21 C         -61.7083  -43.2669  -33.8330 C.ar    1  UNL1        0.0135
     22 C         -60.5099  -43.8116  -33.3603 C.ar    1  UNL1        0.0683
     23 CL        -59.2462  -44.2198  -34.5128 Cl      1  UNL1       -0.0814
     24 C         -60.3371  -44.0249  -31.9827 C.ar    1  UNL1        0.0694
     25 CL        -58.8511  -44.7179  -31.3471 Cl      1  UNL1       -0.0813
     26 C         -61.3629  -43.6885  -31.0918 C.ar    1  UNL1        0.0268
     27 C         -63.0342  -39.0997  -20.1199 C.2     1  UNL1        0.2443
     28 O         -63.8946  -39.6113  -19.3518 O.2     1  UNL1       -0.2730
     29 N         -63.0454  -37.6883  -20.3882 N.am    1  UNL1       -0.2825
     30 H         -62.5366  -37.3462  -21.2346 H       1  UNL1        0.1549
     31 C         -63.8059  -36.7326  -19.6297 C.ar    1  UNL1        0.0535
     32 C         -65.2088  -36.6865  -19.7004 C.ar    1  UNL1        0.0353
     33 C         -65.9072  -35.7571  -18.9253 C.ar    1  UNL1        0.1002
     34 N         -65.2339  -34.9140  -18.0986 N.ar    1  UNL1       -0.2422
     35 C         -63.8790  -34.9491  -17.9963 C.ar    1  UNL1        0.1002
     36 C         -63.1424  -35.8638  -18.7526 C.ar    1  UNL1        0.0353
     37 C         -61.9739  -41.3545  -20.0638 C.3     1  UNL1        0.0569
     38 C         -62.7009  -44.4298  -21.0249 C.ar    1  UNL1        0.0084
     39 C         -62.6963  -45.7514  -21.5403 C.ar    1  UNL1       -0.0018
     40 C         -61.5353  -46.3073  -22.1093 C.ar    1  UNL1        0.0012
     41 C         -60.3535  -45.5617  -22.1839 C.ar    1  UNL1        0.0169
     42 C         -60.3665  -44.2622  -21.6879 C.ar    1  UNL1        0.0561
     43 N         -59.3286  -43.4126  -21.6730 N.ar    1  UNL1       -0.3523
     44 C         -59.7785  -42.2786  -21.1022 C.ar    1  UNL1        0.0681
     45 C         -61.1271  -42.3986  -20.7590 C.ar    1  UNL1       -0.0019
     46 C         -61.4947  -43.6959  -21.1312 C.ar    1  UNL1        0.0115
     47 H         -58.3617  -43.5918  -22.0247 H       1  UNL1        0.1660
     48 C         -63.9566  -43.8350  -20.4235 C.3     1  UNL1        0.1687
     49 C         -65.2487  -45.0558  -18.9245 C.3     1  UNL1        0.1746
     50 O         -64.9876  -44.7987  -20.2871 O.3     1  UNL1       -0.3463
@<TRIPOS>BOND
     1    49    50    1
     2    50    48    1
     3    48    38    1
     4    38    39   ar
     5    39    40   ar
     6    40    41   ar
     7    41    42   ar
     8    42    43   ar
     9    43    44   ar
    10    44    45   ar
    11    45    37    1
    12    37     1    1
    13     1     2    1
    14     2     3   am
    15     3     4    2
    16     3     6    1
    17     6     7   ar
    18     7     8   ar
    19     8     9   ar
    20     9    13    1
    21    13    14    1
    22    14    15    1
    23    15    16    1
    24    16    19    1
    25    19    20   ar
    26    20    21   ar
    27    21    22   ar
    28    22    23    1
    29    22    24   ar
    30    24    25    1
    31    24    26   ar
    32    16    17    1
    33    17    18    1
    34     9    10   ar
    35    10    11   ar
    36    11    12    1
    37     1    27    1
    38    27    28    2
    39    27    29   am
    40    29    31    1
    41    31    32   ar
    42    32    33   ar
    43    33    34   ar
    44    34    35   ar
    45    35    36   ar
    46    45    46   ar
    47    46    38   ar
    48    46    42   ar
    49    11     6   ar
    50    36    31   ar
    51    18    13    1
    52    26    19   ar
    53    43    47    1
    54     2     5    1
    55    29    30    1
@<TRIPOS>MOLECULE
*****
 50 55 0 0 0
SMALL
GASTEIGER

@<TRIPOS>ATOM
      1 C         -61.4339  -45.4116  -26.7721 C.3     1  UNL1        0.1535
      2 N         -61.9758  -46.7412  -26.4698 N.am    1  UNL1       -0.2945
      3 C         -62.3953  -47.1068  -25.1455 C.2     1  UNL1        0.2483
      4 O         -62.4734  -46.2243  -24.2474 O.2     1  UNL1       -0.2701
      5 H         -62.1096  -47.4270  -27.2471 H       1  UNL1        0.1501
      6 C         -62.7720  -48.5017  -24.8256 C.ar    1  UNL1        0.0808
      7 C         -64.0301  -48.9873  -25.2189 C.ar    1  UNL1        0.0080
      8 C         -64.4053  -50.3026  -24.9339 C.ar    1  UNL1        0.0148
      9 C         -63.5364  -51.1538  -24.2349 C.ar    1  UNL1        0.0502
     10 C         -62.2833  -50.6675  -23.8299 C.ar    1  UNL1        0.0443
     11 C         -61.9031  -49.3524  -24.1152 C.ar    1  UNL1        0.1457
     12 F         -60.7063  -48.9061  -23.6567 F       1  UNL1       -0.2040
     13 N         -63.9176  -52.5139  -23.9526 N.pl3   1  UNL1       -0.3040
     14 C         -64.8893  -53.2137  -24.8053 C.3     1  UNL1        0.1122
     15 C         -66.0411  -53.7482  -23.9465 C.3     1  UNL1        0.1122
     16 N         -65.5453  -54.3495  -22.6974 N.pl3   1  UNL1       -0.3040
     17 C         -64.0988  -54.5142  -22.4936 C.3     1  UNL1        0.1122
     18 C         -63.3845  -53.1832  -22.7546 C.3     1  UNL1        0.1122
     19 C         -66.4790  -54.7010  -21.6585 C.ar    1  UNL1        0.0488
     20 C         -66.2269  -55.7957  -20.8159 C.ar    1  UNL1        0.0154
     21 C         -67.1396  -56.1430  -19.8166 C.ar    1  UNL1        0.0135
     22 C         -68.3173  -55.4073  -19.6489 C.ar    1  UNL1        0.0683
     23 CL        -69.4415  -55.8759  -18.3806 Cl      1  UNL1       -0.0814
     24 C         -68.5827  -54.3154  -20.4917 C.ar    1  UNL1        0.0694
     25 CL        -70.0563  -53.3707  -20.3227 Cl      1  UNL1       -0.0813
     26 C         -67.6666  -53.9684  -21.4915 C.ar    1  UNL1        0.0268
     27 C         -60.7603  -45.4380  -28.1190 C.2     1  UNL1        0.2443
     28 O         -60.2381  -46.5110  -28.5288 O.2     1  UNL1       -0.2730
     29 N         -60.6905  -44.2440  -28.9150 N.am    1  UNL1       -0.2825
     30 H         -60.8527  -43.3276  -28.4394 H       1  UNL1        0.1549
     31 C         -60.3006  -44.2229  -30.2987 C.ar    1  UNL1        0.0535
     32 C         -59.0581  -44.7262  -30.7204 C.ar    1  UNL1        0.0353
     33 C         -58.7329  -44.7080  -32.0792 C.ar    1  UNL1        0.1002
     34 N         -59.6191  -44.2197  -32.9869 N.ar    1  UNL1       -0.2422
     35 C         -60.8351  -43.7440  -32.6094 C.ar    1  UNL1        0.1002
     36 C         -61.2005  -43.7451  -31.2611 C.ar    1  UNL1        0.0353
     37 C         -62.5480  -44.3443  -26.7702 C.3     1  UNL1        0.0569
     38 C         -63.9810  -42.2096  -28.8437 C.ar    1  UNL1        0.0084
     39 C         -64.7663  -41.5621  -29.8317 C.ar    1  UNL1       -0.0018
     40 C         -65.7234  -42.2711  -30.5814 C.ar    1  UNL1        0.0012
     41 C         -65.9191  -43.6406  -30.3704 C.ar    1  UNL1        0.0169
     42 C         -65.1382  -44.2733  -29.4088 C.ar    1  UNL1        0.0561
     43 N         -65.1960  -45.5709  -29.0738 N.ar    1  UNL1       -0.3523
     44 C         -64.2789  -45.7505  -28.1039 C.ar    1  UNL1        0.0681
     45 C         -63.6147  -44.5543  -27.8231 C.ar    1  UNL1       -0.0019
     46 C         -64.1908  -43.5987  -28.6667 C.ar    1  UNL1        0.0115
     47 H         -65.8286  -46.2983  -29.4754 H       1  UNL1        0.1660
     48 C         -62.9461  -41.4424  -28.0483 C.3     1  UNL1        0.1687
     49 C         -61.4339  -40.3566  -29.4416 C.3     1  UNL1        0.1746
     50 O         -61.6636  -41.5016  -28.6498 O.3     1  UNL1       -0.3463
@<TRIPOS>BOND
     1    49    50    1
     2    50    48    1
     3    48    38    1
     4    38    39   ar
     5    39    40   ar
     6    40    41   ar
     7    41    42   ar
     8    42    43   ar
     9    43    44   ar
    10    44    45   ar
    11    45    37    1
    12    37     1    1
    13     1     2    1
    14     2     3   am
    15     3     4    2
    16     3     6    1
    17     6     7   ar
    18     7     8   ar
    19     8     9   ar
    20     9    13    1
    21    13    14    1
    22    14    15    1
    23    15    16    1
    24    16    19    1
    25    19    20   ar
    26    20    21   ar
    27    21    22   ar
    28    22    23    1
    29    22    24   ar
    30    24    25    1
    31    24    26   ar
    32    16    17    1
    33    17    18    1
    34     9    10   ar
    35    10    11   ar
    36    11    12    1
    37     1    27    1
    38    27    28    2
    39    27    29   am
    40    29    31    1
    41    31    32   ar
    42    32    33   ar
    43    33    34   ar
    44    34    35   ar
    45    35    36   ar
    46    45    46   ar
    47    46    38   ar
    48    46    42   ar
    49    11     6   ar
    50    36    31   ar
    51    18    13    1
    52    26    19   ar
    53    43    47    1
    54     2     5    1
    55    29    30    1
@<TRIPOS>MOLECULE
*****
 50 55 0 0 0
SMALL
GASTEIGER

@<TRIPOS>ATOM
      1 C         -61.6096  -39.9617  -20.7935 C.3     1  UNL1        0.1535
      2 N         -61.8882  -40.3912  -22.1685 N.am    1  UNL1       -0.2945
      3 C         -63.2264  -40.4590  -22.6861 C.2     1  UNL1        0.2483
      4 O         -64.1812  -39.9746  -22.0188 O.2     1  UNL1       -0.2701
      5 H         -61.0899  -40.6055  -22.8082 H       1  UNL1        0.1501
      6 C         -63.4994  -41.0596  -24.0107 C.ar    1  UNL1        0.0808
      7 C         -62.7712  -42.1877  -24.4235 C.ar    1  UNL1        0.0080
      8 C         -63.0160  -42.7760  -25.6669 C.ar    1  UNL1        0.0148
      9 C         -63.9825  -42.2379  -26.5298 C.ar    1  UNL1        0.0502
     10 C         -64.7033  -41.1032  -26.1250 C.ar    1  UNL1        0.0443
     11 C         -64.4628  -40.5129  -24.8804 C.ar    1  UNL1        0.1457
     12 F         -65.1422  -39.3848  -24.5522 F       1  UNL1       -0.2040
     13 N         -64.2443  -42.8521  -27.8061 N.pl3   1  UNL1       -0.3040
     14 C         -64.1129  -44.3057  -27.9808 C.3     1  UNL1        0.1122
     15 C         -63.1528  -44.6033  -29.1382 C.3     1  UNL1        0.1122
     16 N         -63.4015  -43.7134  -30.2844 N.pl3   1  UNL1       -0.3040
     17 C         -64.5636  -42.8133  -30.2677 C.3     1  UNL1        0.1122
     18 C         -64.5741  -42.0058  -28.9647 C.3     1  UNL1        0.1122
     19 C         -62.4621  -43.6811  -31.3758 C.ar    1  UNL1        0.0488
     20 C         -62.8629  -43.2379  -32.6466 C.ar    1  UNL1        0.0154
     21 C         -61.9538  -43.2190  -33.7075 C.ar    1  UNL1        0.0135
     22 C         -60.6361  -43.6472  -33.5162 C.ar    1  UNL1        0.0683
     23 CL        -59.5218  -43.6092  -34.8760 Cl      1  UNL1       -0.0814
     24 C         -60.2272  -44.1000  -32.2510 C.ar    1  UNL1        0.0694
     25 CL        -58.5834  -44.6578  -31.9699 Cl      1  UNL1       -0.0813
     26 C         -61.1393  -44.1172  -31.1892 C.ar    1  UNL1        0.0268
     27 C         -62.2351  -38.6130  -20.5520 C.2     1  UNL1        0.2443
     28 O         -61.7910  -37.6056  -21.1682 O.2     1  UNL1       -0.2730
     29 N         -63.3088  -38.4736  -19.6076 N.am    1  UNL1       -0.2825
     30 H         -63.4490  -39.2378  -18.9084 H       1  UNL1        0.1549
     31 C         -64.1294  -37.2988  -19.4920 C.ar    1  UNL1        0.0535
     32 C         -65.5079  -37.3350  -19.7628 C.ar    1  UNL1        0.0353
     33 C         -66.2701  -36.1736  -19.6121 C.ar    1  UNL1        0.1002
     34 N         -65.6834  -35.0214  -19.1927 N.ar    1  UNL1       -0.2422
     35 C         -64.3561  -34.9622  -18.9058 C.ar    1  UNL1        0.1002
     36 C         -63.5581  -36.1007  -19.0418 C.ar    1  UNL1        0.0353
     37 C         -62.1591  -40.9787  -19.7718 C.3     1  UNL1        0.0569
     38 C         -64.7669  -43.0029  -19.8788 C.ar    1  UNL1        0.0084
     39 C         -65.6691  -44.0817  -20.0648 C.ar    1  UNL1       -0.0018
     40 C         -65.2441  -45.2970  -20.6334 C.ar    1  UNL1        0.0012
     41 C         -63.9144  -45.4670  -21.0347 C.ar    1  UNL1        0.0169
     42 C         -63.0365  -44.4021  -20.8612 C.ar    1  UNL1        0.0561
     43 N         -61.7341  -44.3925  -21.1821 N.ar    1  UNL1       -0.3523
     44 C         -61.2713  -43.1745  -20.8405 C.ar    1  UNL1        0.0681
     45 C         -62.2944  -42.3883  -20.3059 C.ar    1  UNL1       -0.0019
     46 C         -63.4332  -43.2006  -20.3112 C.ar    1  UNL1        0.0115
     47 H         -61.1829  -45.1723  -21.6046 H       1  UNL1        0.1660
     48 C         -65.2339  -41.6950  -19.2760 C.3     1  UNL1        0.1687
     49 C         -65.1414  -40.4411  -17.3199 C.3     1  UNL1        0.1746
     50 O         -65.2520  -41.7403  -17.8590 O.3     1  UNL1       -0.3463
@<TRIPOS>BOND
     1    49    50    1
     2    50    48    1
     3    48    38    1
     4    38    39   ar
     5    39    40   ar
     6    40    41   ar
     7    41    42   ar
     8    42    43   ar
     9    43    44   ar
    10    44    45   ar
    11    45    37    1
    12    37     1    1
    13     1     2    1
    14     2     3   am
    15     3     4    2
    16     3     6    1
    17     6     7   ar
    18     7     8   ar
    19     8     9   ar
    20     9    13    1
    21    13    14    1
    22    14    15    1
    23    15    16    1
    24    16    19    1
    25    19    20   ar
    26    20    21   ar
    27    21    22   ar
    28    22    23    1
    29    22    24   ar
    30    24    25    1
    31    24    26   ar
    32    16    17    1
    33    17    18    1
    34     9    10   ar
    35    10    11   ar
    36    11    12    1
    37     1    27    1
    38    27    28    2
    39    27    29   am
    40    29    31    1
    41    31    32   ar
    42    32    33   ar
    43    33    34   ar
    44    34    35   ar
    45    35    36   ar
    46    45    46   ar
    47    46    38   ar
    48    46    42   ar
    49    11     6   ar
    50    36    31   ar
    51    18    13    1
    52    26    19   ar
    53    43    47    1
    54     2     5    1
    55    29    30    1
@<TRIPOS>MOLECULE
*****
 50 55 0 0 0
SMALL
GASTEIGER

@<TRIPOS>ATOM
      1 C         -60.5937  -48.2100  -23.3494 C.3     1  UNL1        0.1535
      2 N         -61.5965  -49.2532  -23.1064 N.am    1  UNL1       -0.2945
      3 C         -61.4655  -50.5744  -23.6546 C.2     1  UNL1        0.2483
      4 O         -60.3865  -50.9173  -24.2111 O.2     1  UNL1       -0.2701
      5 H         -62.4040  -49.0481  -22.4753 H       1  UNL1        0.1501
      6 C         -62.5683  -51.5552  -23.5456 C.ar    1  UNL1        0.0808
      7 C         -62.3975  -52.7053  -22.7573 C.ar    1  UNL1        0.0080
      8 C         -63.4269  -53.6419  -22.6339 C.ar    1  UNL1        0.0148
      9 C         -64.6419  -53.4557  -23.3101 C.ar    1  UNL1        0.0502
     10 C         -64.8110  -52.3133  -24.1083 C.ar    1  UNL1        0.0443
     11 C         -63.7841  -51.3724  -24.2325 C.ar    1  UNL1        0.1457
     12 F         -63.9689  -50.3114  -25.0583 F       1  UNL1       -0.2040
     13 N         -65.7080  -54.4145  -23.1724 N.pl3   1  UNL1       -0.3040
     14 C         -66.7359  -54.5491  -24.2145 C.3     1  UNL1        0.1122
     15 C         -68.1275  -54.3817  -23.5937 C.3     1  UNL1        0.1122
     16 N         -68.2349  -55.1021  -22.3143 N.pl3   1  UNL1       -0.3040
     17 C         -67.1377  -55.9780  -21.8785 C.3     1  UNL1        0.1122
     18 C         -65.8100  -55.2144  -21.9406 C.3     1  UNL1        0.1122
     19 C         -69.3805  -54.8826  -21.4692 C.ar    1  UNL1        0.0488
     20 C         -69.2716  -54.0906  -20.3147 C.ar    1  UNL1        0.0154
     21 C         -70.3807  -53.8889  -19.4892 C.ar    1  UNL1        0.0135
     22 C         -71.6100  -54.4787  -19.8010 C.ar    1  UNL1        0.0683
     23 CL        -72.9823  -54.2018  -18.7370 Cl      1  UNL1       -0.0814
     24 C         -71.7274  -55.2792  -20.9492 C.ar    1  UNL1        0.0694
     25 CL        -73.2511  -56.0486  -21.3720 Cl      1  UNL1       -0.0813
     26 C         -70.6154  -55.4793  -21.7755 C.ar    1  UNL1        0.0268
     27 C         -61.1313  -47.2192  -24.3482 C.2     1  UNL1        0.2443
     28 O         -62.3725  -46.9967  -24.3925 O.2     1  UNL1       -0.2730
     29 N         -60.2399  -46.5559  -25.2591 N.am    1  UNL1       -0.2825
     30 H         -59.2914  -46.9697  -25.4052 H       1  UNL1        0.1549
     31 C         -60.6111  -45.4254  -26.0659 C.ar    1  UNL1        0.0535
     32 C         -60.8968  -44.1746  -25.4924 C.ar    1  UNL1        0.0353
     33 C         -61.2283  -43.0976  -26.3186 C.ar    1  UNL1        0.1002
     34 N         -61.2597  -43.2568  -27.6682 N.ar    1  UNL1       -0.2422
     35 C         -60.9697  -44.4500  -28.2510 C.ar    1  UNL1        0.1002
     36 C         -60.6322  -45.5520  -27.4616 C.ar    1  UNL1        0.0353
     37 C         -60.2241  -47.4796  -22.0416 C.3     1  UNL1        0.0569
     38 C         -61.1453  -44.3218  -21.7432 C.ar    1  UNL1        0.0084
     39 C         -61.2262  -42.9061  -21.7058 C.ar    1  UNL1       -0.0018
     40 C         -60.1191  -42.1041  -22.0405 C.ar    1  UNL1        0.0012
     41 C         -58.9048  -42.6899  -22.4152 C.ar    1  UNL1        0.0169
     42 C         -58.8270  -44.0786  -22.4386 C.ar    1  UNL1        0.0561
     43 N         -57.7503  -44.8033  -22.7771 N.ar    1  UNL1       -0.3523
     44 C         -58.1166  -46.0949  -22.6688 C.ar    1  UNL1        0.0681
     45 C         -59.4424  -46.1992  -22.2419 C.ar    1  UNL1       -0.0019
     46 C         -59.8981  -44.8834  -22.1092 C.ar    1  UNL1        0.0115
     47 H         -56.8157  -44.4436  -23.0734 H       1  UNL1        0.1660
     48 C         -62.3376  -45.1779  -21.3719 C.3     1  UNL1        0.1687
     49 C         -64.2586  -44.7214  -20.1437 C.3     1  UNL1        0.1746
     50 O         -63.5368  -44.4234  -21.3189 O.3     1  UNL1       -0.3463
@<TRIPOS>BOND
     1    49    50    1
     2    50    48    1
     3    48    38    1
     4    38    39   ar
     5    39    40   ar
     6    40    41   ar
     7    41    42   ar
     8    42    43   ar
     9    43    44   ar
    10    44    45   ar
    11    45    37    1
    12    37     1    1
    13     1     2    1
    14     2     3   am
    15     3     4    2
    16     3     6    1
    17     6     7   ar
    18     7     8   ar
    19     8     9   ar
    20     9    13    1
    21    13    14    1
    22    14    15    1
    23    15    16    1
    24    16    19    1
    25    19    20   ar
    26    20    21   ar
    27    21    22   ar
    28    22    23    1
    29    22    24   ar
    30    24    25    1
    31    24    26   ar
    32    16    17    1
    33    17    18    1
    34     9    10   ar
    35    10    11   ar
    36    11    12    1
    37     1    27    1
    38    27    28    2
    39    27    29   am
    40    29    31    1
    41    31    32   ar
    42    32    33   ar
    43    33    34   ar
    44    34    35   ar
    45    35    36   ar
    46    45    46   ar
    47    46    38   ar
    48    46    42   ar
    49    11     6   ar
    50    36    31   ar
    51    18    13    1
    52    26    19   ar
    53    43    47    1
    54     2     5    1
    55    29    30    1
@<TRIPOS>MOLECULE
*****
 50 55 0 0 0
SMALL
GASTEIGER

@<TRIPOS>ATOM
      1 C         -60.7549  -47.8596  -23.9291 C.3     1  UNL1        0.1535
      2 N         -61.7231  -48.9090  -23.5907 N.am    1  UNL1       -0.2945
      3 C         -61.4535  -50.2983  -23.8366 C.2     1  UNL1        0.2483
      4 O         -60.2962  -50.6594  -24.1857 O.2     1  UNL1       -0.2701
      5 H         -62.6135  -48.6466  -23.1103 H       1  UNL1        0.1501
      6 C         -62.5071  -51.3210  -23.6526 C.ar    1  UNL1        0.0808
      7 C         -63.7216  -51.1977  -24.3477 C.ar    1  UNL1        0.0080
      8 C         -64.7283  -52.1544  -24.1951 C.ar    1  UNL1        0.0148
      9 C         -64.5474  -53.2449  -23.3313 C.ar    1  UNL1        0.0502
     10 C         -63.3394  -53.3642  -22.6260 C.ar    1  UNL1        0.0443
     11 C         -62.3284  -52.4101  -22.7778 C.ar    1  UNL1        0.1457
     12 F         -61.1993  -52.5335  -22.0351 F       1  UNL1       -0.2040
     13 N         -65.5799  -54.2384  -23.1840 N.pl3   1  UNL1       -0.3040
     14 C         -66.5956  -54.4264  -24.2298 C.3     1  UNL1        0.1122
     15 C         -67.9963  -54.2981  -23.6203 C.3     1  UNL1        0.1122
     16 N         -68.0865  -55.0007  -22.3297 N.pl3   1  UNL1       -0.3040
     17 C         -66.9620  -55.8300  -21.8728 C.3     1  UNL1        0.1122
     18 C         -65.6617  -55.0210  -21.9397 C.3     1  UNL1        0.1122
     19 C         -69.2447  -54.8079  -21.4952 C.ar    1  UNL1        0.0488
     20 C         -69.1621  -54.0228  -20.3339 C.ar    1  UNL1        0.0154
     21 C         -70.2833  -53.8470  -19.5188 C.ar    1  UNL1        0.0135
     22 C         -71.4984  -54.4564  -19.8479 C.ar    1  UNL1        0.0683
     23 CL        -72.8866  -54.2119  -18.7966 Cl      1  UNL1       -0.0814
     24 C         -71.5894  -55.2503  -21.0031 C.ar    1  UNL1        0.0694
     25 CL        -73.0946  -56.0436  -21.4475 Cl      1  UNL1       -0.0813
     26 C         -70.4654  -55.4243  -21.8189 C.ar    1  UNL1        0.0268
     27 C         -61.4431  -46.7765  -24.7176 C.2     1  UNL1        0.2443
     28 O         -62.6806  -46.8685  -24.9460 O.2     1  UNL1       -0.2730
     29 N         -60.6896  -45.6644  -25.2271 N.am    1  UNL1       -0.2825
     30 H         -59.6507  -45.7623  -25.2866 H       1  UNL1        0.1549
     31 C         -61.2835  -44.4706  -25.7647 C.ar    1  UNL1        0.0535
     32 C         -62.1253  -43.6547  -24.9896 C.ar    1  UNL1        0.0353
     33 C         -62.6594  -42.4900  -25.5469 C.ar    1  UNL1        0.1002
     34 N         -62.3545  -42.1427  -26.8252 N.ar    1  UNL1       -0.2422
     35 C         -61.5285  -42.9030  -27.5915 C.ar    1  UNL1        0.1002
     36 C         -60.9720  -44.0745  -27.0725 C.ar    1  UNL1        0.0353
     37 C         -60.1246  -47.2546  -22.6575 C.3     1  UNL1        0.0569
     38 C         -59.3583  -44.0603  -22.3133 C.ar    1  UNL1        0.0084
     39 C         -59.3294  -42.6722  -22.0224 C.ar    1  UNL1       -0.0018
     40 C         -60.4022  -42.0437  -21.3629 C.ar    1  UNL1        0.0012
     41 C         -61.5305  -42.7784  -20.9818 C.ar    1  UNL1        0.0169
     42 C         -61.5592  -44.1368  -21.2800 C.ar    1  UNL1        0.0561
     43 N         -62.5521  -44.9889  -20.9850 N.ar    1  UNL1       -0.3523
     44 C         -62.1636  -46.1936  -21.4456 C.ar    1  UNL1        0.0681
     45 C         -60.9103  -46.1093  -22.0562 C.ar    1  UNL1       -0.0019
     46 C         -60.5211  -44.7716  -21.9303 C.ar    1  UNL1        0.0115
     47 H         -63.4455  -44.7696  -20.4907 H       1  UNL1        0.1660
     48 C         -58.2048  -44.7273  -23.0322 C.3     1  UNL1        0.1687
     49 C         -56.6050  -46.0658  -22.0045 C.3     1  UNL1        0.1746
     50 O         -57.0256  -44.7407  -22.2452 O.3     1  UNL1       -0.3463
@<TRIPOS>BOND
     1    49    50    1
     2    50    48    1
     3    48    38    1
     4    38    39   ar
     5    39    40   ar
     6    40    41   ar
     7    41    42   ar
     8    42    43   ar
     9    43    44   ar
    10    44    45   ar
    11    45    37    1
    12    37     1    1
    13     1     2    1
    14     2     3   am
    15     3     4    2
    16     3     6    1
    17     6     7   ar
    18     7     8   ar
    19     8     9   ar
    20     9    13    1
    21    13    14    1
    22    14    15    1
    23    15    16    1
    24    16    19    1
    25    19    20   ar
    26    20    21   ar
    27    21    22   ar
    28    22    23    1
    29    22    24   ar
    30    24    25    1
    31    24    26   ar
    32    16    17    1
    33    17    18    1
    34     9    10   ar
    35    10    11   ar
    36    11    12    1
    37     1    27    1
    38    27    28    2
    39    27    29   am
    40    29    31    1
    41    31    32   ar
    42    32    33   ar
    43    33    34   ar
    44    34    35   ar
    45    35    36   ar
    46    45    46   ar
    47    46    38   ar
    48    46    42   ar
    49    11     6   ar
    50    36    31   ar
    51    18    13    1
    52    26    19   ar
    53    43    47    1
    54     2     5    1
    55    29    30    1
