@<TRIPOS>MOLECULE
*****
 43 47 0 0 0
SMALL
GASTEIGER

@<TRIPOS>ATOM
      1 C         -24.5650   -6.9198  -11.8833 C.ar    1  UNL1        0.1352
      2 C         -25.0290   -5.9455  -12.7884 C.ar    1  UNL1        0.0411
      3 C         -26.1915   -6.1598  -13.5490 C.ar    1  UNL1        0.0578
      4 C         -26.8829   -7.3723  -13.4057 C.ar    1  UNL1        0.0044
      5 C         -26.4262   -8.3485  -12.5203 C.ar    1  UNL1       -0.0008
      6 C         -25.2784   -8.1295  -11.7432 C.ar    1  UNL1        0.0162
      7 C         -26.7180   -5.1072  -14.4515 C.2     1  UNL1        0.2644
      8 O         -27.1138   -4.0132  -13.9642 O.2     1  UNL1       -0.2686
      9 N         -26.7782   -5.3083  -15.8698 N.am    1  UNL1       -0.1814
     10 H         -26.7247   -6.2687  -16.2743 H       1  UNL1        0.1769
     11 S         -26.9411   -3.9749  -16.9626 S.O2    1  UNL1        0.0755
     12 O         -26.4903   -4.4133  -18.3281 O.2     1  UNL1       -0.1499
     13 O         -26.0651   -2.8416  -16.5084 O.2     1  UNL1       -0.1499
     14 C         -28.6252   -3.4252  -17.0032 C.ar    1  UNL1        0.1213
     15 C         -29.4702   -3.7647  -15.9333 C.ar    1  UNL1        0.0199
     16 C         -30.7982   -3.3363  -15.9116 C.ar    1  UNL1        0.0014
     17 C         -31.2993   -2.5605  -16.9552 C.ar    1  UNL1       -0.0002
     18 C         -30.4765   -2.2168  -18.0285 C.ar    1  UNL1       -0.0029
     19 C         -29.1415   -2.6556  -18.0780 C.ar    1  UNL1       -0.0030
     20 C         -28.2897   -2.2257  -19.2430 C.3     1  UNL1        0.0324
     21 C         -22.5519   -5.5816  -11.2169 C.3     1  UNL1        0.2525
     22 O         -23.4181   -6.7058  -11.0992 O.3     1  UNL1       -0.4717
     23 C         -24.8523   -9.1849  -10.7485 C.3     1  UNL1        0.0572
     24 C         -23.6951   -9.9939  -11.2665 C.ar    1  UNL1        0.0010
     25 C         -23.7236  -10.8578  -12.3571 C.ar    1  UNL1        0.0719
     26 N         -22.4980  -11.3961  -12.5590 N.ar    1  UNL1       -0.3243
     27 C         -22.1385  -12.3642  -13.5903 C.3     1  UNL1        0.1305
     28 C         -21.6928  -10.8821  -11.6080 C.ar    1  UNL1        0.0597
     29 C         -20.3419  -11.1549  -11.3887 C.ar    1  UNL1        0.0185
     30 C         -19.7048  -10.5139  -10.3120 C.ar    1  UNL1        0.0162
     31 C         -20.4107   -9.6077   -9.4826 C.ar    1  UNL1        0.0533
     32 C         -21.7814   -9.3630   -9.7314 C.ar    1  UNL1        0.0159
     33 C         -22.3886  -10.0157  -10.8041 C.ar    1  UNL1        0.0148
     34 N         -19.7355   -9.0178   -8.3564 N.am    1  UNL1       -0.2499
     35 C         -20.0139   -7.7151   -7.8252 C.2     1  UNL1        0.4053
     36 O         -20.6361   -6.8598   -8.5131 O.2     1  UNL1       -0.2261
     37 H         -18.9735   -9.5648   -7.8960 H       1  UNL1        0.1582
     38 O         -19.5502   -7.3905   -6.5460 O.3     1  UNL1       -0.4383
     39 C         -18.7358   -8.2633   -5.7602 C.3     1  UNL1        0.1705
     40 C         -19.5605   -8.9368   -4.6704 C.3     1  UNL1        0.0437
     41 C         -19.5458   -7.9810   -3.4850 C.3     1  UNL1        0.0038
     42 C         -18.3567   -7.0447   -3.6891 C.3     1  UNL1        0.0038
     43 C         -17.7012   -7.4443   -5.0052 C.3     1  UNL1        0.0437
@<TRIPOS>BOND
     1    21    22    1
     2    22     1    1
     3     1     2   ar
     4     2     3   ar
     5     3     7    1
     6     7     8    2
     7     7     9   am
     8     9    11    1
     9    11    12    2
    10    11    13    2
    11    11    14    1
    12    14    15   ar
    13    15    16   ar
    14    16    17   ar
    15    17    18   ar
    16    18    19   ar
    17    19    20    1
    18     3     4   ar
    19     4     5   ar
    20     5     6   ar
    21     6    23    1
    22    23    24    1
    23    24    25   ar
    24    25    26   ar
    25    26    27    1
    26    26    28   ar
    27    28    29   ar
    28    29    30   ar
    29    30    31   ar
    30    31    34    1
    31    34    35   am
    32    35    36    2
    33    35    38    1
    34    38    39    1
    35    39    40    1
    36    40    41    1
    37    41    42    1
    38    42    43    1
    39    31    32   ar
    40    32    33   ar
    41     6     1   ar
    42    33    24   ar
    43    19    14   ar
    44    33    28   ar
    45    43    39    1
    46     9    10    1
    47    34    37    1
@<TRIPOS>MOLECULE
*****
 43 47 0 0 0
SMALL
GASTEIGER

@<TRIPOS>ATOM
      1 C         -24.9141   -6.9872  -12.1144 C.ar    1  UNL1        0.1352
      2 C         -25.8444   -6.5747  -13.0882 C.ar    1  UNL1        0.0411
      3 C         -27.1530   -7.0875  -13.1018 C.ar    1  UNL1        0.0578
      4 C         -27.5213   -8.0345  -12.1342 C.ar    1  UNL1        0.0044
      5 C         -26.6049   -8.4581  -11.1718 C.ar    1  UNL1       -0.0008
      6 C         -25.3042   -7.9323  -11.1415 C.ar    1  UNL1        0.0162
      7 C         -28.1525   -6.6032  -14.0847 C.2     1  UNL1        0.2644
      8 O         -28.9569   -7.4227  -14.6067 O.2     1  UNL1       -0.2686
      9 N         -28.2260   -5.2178  -14.4467 N.am    1  UNL1       -0.1814
     10 H         -27.4263   -4.5749  -14.2573 H       1  UNL1        0.1769
     11 S         -29.6350   -4.5590  -15.2077 S.O2    1  UNL1        0.0755
     12 O         -30.3128   -3.6271  -14.2422 O.2     1  UNL1       -0.1499
     13 O         -30.5870   -5.6695  -15.5522 O.2     1  UNL1       -0.1499
     14 C         -29.1802   -3.7043  -16.6918 C.ar    1  UNL1        0.1213
     15 C         -27.9127   -3.9474  -17.2471 C.ar    1  UNL1        0.0199
     16 C         -27.5188   -3.3134  -18.4263 C.ar    1  UNL1        0.0014
     17 C         -28.3858   -2.4316  -19.0688 C.ar    1  UNL1       -0.0002
     18 C         -29.6471   -2.1743  -18.5302 C.ar    1  UNL1       -0.0029
     19 C         -30.0543   -2.7881  -17.3325 C.ar    1  UNL1       -0.0030
     20 C         -31.4392   -2.5004  -16.8156 C.3     1  UNL1        0.0324
     21 C         -23.2693   -5.1714  -11.5805 C.3     1  UNL1        0.2525
     22 O         -23.6108   -6.4622  -12.0760 O.3     1  UNL1       -0.4717
     23 C         -24.3608   -8.3686  -10.0441 C.3     1  UNL1        0.0572
     24 C         -23.2916   -9.2862  -10.5701 C.ar    1  UNL1        0.0010
     25 C         -23.4533  -10.2452  -11.5655 C.ar    1  UNL1        0.0719
     26 N         -22.2764  -10.8681  -11.8098 N.ar    1  UNL1       -0.3243
     27 C         -22.0519  -11.9470  -12.7667 C.3     1  UNL1        0.1305
     28 C         -21.3704  -10.3135  -10.9800 C.ar    1  UNL1        0.0597
     29 C         -20.0207  -10.6402  -10.8422 C.ar    1  UNL1        0.0185
     30 C         -19.2652   -9.9383   -9.8869 C.ar    1  UNL1        0.0162
     31 C         -19.8544   -8.9203   -9.0969 C.ar    1  UNL1        0.0533
     32 C         -21.2277   -8.6233   -9.2596 C.ar    1  UNL1        0.0159
     33 C         -21.9536   -9.3381  -10.2122 C.ar    1  UNL1        0.0148
     34 N         -19.0594   -8.2666   -8.0905 N.am    1  UNL1       -0.2499
     35 C         -19.3972   -8.1957   -6.6986 C.2     1  UNL1        0.4053
     36 O         -20.5791   -8.4092   -6.3121 O.2     1  UNL1       -0.2261
     37 H         -18.1779   -7.7917   -8.3894 H       1  UNL1        0.1582
     38 O         -18.4050   -7.8462   -5.7764 O.3     1  UNL1       -0.4383
     39 C         -18.2185   -8.5194   -4.5296 C.3     1  UNL1        0.1705
     40 C         -17.0207   -7.9483   -3.7809 C.3     1  UNL1        0.0437
     41 C         -15.8069   -8.7151   -4.2887 C.3     1  UNL1        0.0038
     42 C         -16.3315  -10.0057   -4.9144 C.3     1  UNL1        0.0038
     43 C         -17.8497   -9.9710   -4.7902 C.3     1  UNL1        0.0437
@<TRIPOS>BOND
     1    21    22    1
     2    22     1    1
     3     1     2   ar
     4     2     3   ar
     5     3     7    1
     6     7     8    2
     7     7     9   am
     8     9    11    1
     9    11    12    2
    10    11    13    2
    11    11    14    1
    12    14    15   ar
    13    15    16   ar
    14    16    17   ar
    15    17    18   ar
    16    18    19   ar
    17    19    20    1
    18     3     4   ar
    19     4     5   ar
    20     5     6   ar
    21     6    23    1
    22    23    24    1
    23    24    25   ar
    24    25    26   ar
    25    26    27    1
    26    26    28   ar
    27    28    29   ar
    28    29    30   ar
    29    30    31   ar
    30    31    34    1
    31    34    35   am
    32    35    36    2
    33    35    38    1
    34    38    39    1
    35    39    40    1
    36    40    41    1
    37    41    42    1
    38    42    43    1
    39    31    32   ar
    40    32    33   ar
    41     6     1   ar
    42    33    24   ar
    43    19    14   ar
    44    33    28   ar
    45    43    39    1
    46     9    10    1
    47    34    37    1
@<TRIPOS>MOLECULE
*****
 43 47 0 0 0
SMALL
GASTEIGER

@<TRIPOS>ATOM
      1 C         -23.8462   -7.1957  -14.1513 C.ar    1  UNL1        0.1352
      2 C         -25.1725   -6.9761  -14.5715 C.ar    1  UNL1        0.0411
      3 C         -26.2030   -6.7717  -13.6376 C.ar    1  UNL1        0.0578
      4 C         -25.8952   -6.8032  -12.2690 C.ar    1  UNL1        0.0044
      5 C         -24.5872   -7.0306  -11.8415 C.ar    1  UNL1       -0.0008
      6 C         -23.5519   -7.2135  -12.7710 C.ar    1  UNL1        0.0162
      7 C         -27.5865   -6.4731  -14.0807 C.2     1  UNL1        0.2644
      8 O         -28.5513   -7.1060  -13.5710 O.2     1  UNL1       -0.2686
      9 N         -27.8479   -5.4719  -15.0731 N.am    1  UNL1       -0.1814
     10 H         -27.0865   -5.1331  -15.7011 H       1  UNL1        0.1769
     11 S         -29.4268   -4.7883  -15.2693 S.O2    1  UNL1        0.0755
     12 O         -29.8049   -4.0772  -13.9999 O.2     1  UNL1       -0.1499
     13 O         -30.4227   -5.8852  -15.5205 O.2     1  UNL1       -0.1499
     14 C         -29.4378   -3.6697  -16.6435 C.ar    1  UNL1        0.1213
     15 C         -28.3436   -3.6752  -17.5248 C.ar    1  UNL1        0.0199
     16 C         -28.3178   -2.8267  -18.6326 C.ar    1  UNL1        0.0014
     17 C         -29.3850   -1.9646  -18.8775 C.ar    1  UNL1       -0.0002
     18 C         -30.4785   -1.9419  -18.0111 C.ar    1  UNL1       -0.0029
     19 C         -30.5139   -2.7748  -16.8788 C.ar    1  UNL1       -0.0030
     20 C         -31.7343   -2.7334  -15.9976 C.3     1  UNL1        0.0324
     21 C         -22.9398   -8.0250  -16.3371 C.3     1  UNL1        0.2525
     22 O         -22.8037   -7.3762  -15.0766 O.3     1  UNL1       -0.4717
     23 C         -22.1374   -7.3928  -12.2693 C.3     1  UNL1        0.0572
     24 C         -21.7481   -8.8451  -12.2283 C.ar    1  UNL1        0.0010
     25 C         -22.1985   -9.8377  -13.0933 C.ar    1  UNL1        0.0719
     26 N         -21.6209  -11.0228  -12.7858 N.ar    1  UNL1       -0.3243
     27 C         -21.8606  -12.2995  -13.4511 C.3     1  UNL1        0.1305
     28 C         -20.8088  -10.7916  -11.7351 C.ar    1  UNL1        0.0597
     29 C         -20.0177  -11.7103  -11.0441 C.ar    1  UNL1        0.0185
     30 C         -19.2623  -11.2437   -9.9543 C.ar    1  UNL1        0.0162
     31 C         -19.2937   -9.8782   -9.5774 C.ar    1  UNL1        0.0533
     32 C         -20.1142   -8.9786  -10.2972 C.ar    1  UNL1        0.0159
     33 C         -20.8556   -9.4699  -11.3715 C.ar    1  UNL1        0.0148
     34 N         -18.5503   -9.4540   -8.4201 N.am    1  UNL1       -0.2499
     35 C         -19.1238   -8.8370   -7.2594 C.2     1  UNL1        0.4053
     36 O         -20.2720   -8.3164   -7.3091 O.2     1  UNL1       -0.2261
     37 H         -17.5138   -9.5861   -8.4237 H       1  UNL1        0.1582
     38 O         -18.3751   -8.7842   -6.0790 O.3     1  UNL1       -0.4383
     39 C         -18.1960   -7.5902   -5.3144 C.3     1  UNL1        0.1705
     40 C         -16.7224   -7.3661   -4.9990 C.3     1  UNL1        0.0437
     41 C         -16.4484   -8.1378   -3.7150 C.3     1  UNL1        0.0038
     42 C         -17.8006   -8.3718   -3.0449 C.3     1  UNL1        0.0038
     43 C         -18.8566   -7.7574   -3.9554 C.3     1  UNL1        0.0437
@<TRIPOS>BOND
     1    21    22    1
     2    22     1    1
     3     1     2   ar
     4     2     3   ar
     5     3     7    1
     6     7     8    2
     7     7     9   am
     8     9    11    1
     9    11    12    2
    10    11    13    2
    11    11    14    1
    12    14    15   ar
    13    15    16   ar
    14    16    17   ar
    15    17    18   ar
    16    18    19   ar
    17    19    20    1
    18     3     4   ar
    19     4     5   ar
    20     5     6   ar
    21     6    23    1
    22    23    24    1
    23    24    25   ar
    24    25    26   ar
    25    26    27    1
    26    26    28   ar
    27    28    29   ar
    28    29    30   ar
    29    30    31   ar
    30    31    34    1
    31    34    35   am
    32    35    36    2
    33    35    38    1
    34    38    39    1
    35    39    40    1
    36    40    41    1
    37    41    42    1
    38    42    43    1
    39    31    32   ar
    40    32    33   ar
    41     6     1   ar
    42    33    24   ar
    43    19    14   ar
    44    33    28   ar
    45    43    39    1
    46     9    10    1
    47    34    37    1
@<TRIPOS>MOLECULE
*****
 43 47 0 0 0
SMALL
GASTEIGER

@<TRIPOS>ATOM
      1 C         -24.8055   -7.1059  -19.2844 C.ar    1  UNL1        0.1352
      2 C         -24.0763   -8.2045  -18.7893 C.ar    1  UNL1        0.0411
      3 C         -23.2807   -8.0847  -17.6368 C.ar    1  UNL1        0.0578
      4 C         -23.2090   -6.8430  -16.9872 C.ar    1  UNL1        0.0044
      5 C         -23.9185   -5.7457  -17.4749 C.ar    1  UNL1       -0.0008
      6 C         -24.7311   -5.8668  -18.6126 C.ar    1  UNL1        0.0162
      7 C         -22.5668   -9.2578  -17.0766 C.2     1  UNL1        0.2644
      8 O         -21.5728   -9.0768  -16.3216 O.2     1  UNL1       -0.2686
      9 N         -22.9915  -10.5950  -17.3719 N.am    1  UNL1       -0.1814
     10 H         -23.6139  -10.7883  -18.1868 H       1  UNL1        0.1769
     11 S         -22.4925  -11.9352  -16.3954 S.O2    1  UNL1        0.0755
     12 O         -21.4172  -11.4706  -15.4531 O.2     1  UNL1       -0.1499
     13 O         -21.9275  -13.0156  -17.2738 O.2     1  UNL1       -0.1499
     14 C         -23.8772  -12.5823  -15.4989 C.ar    1  UNL1        0.1213
     15 C         -24.9858  -11.7477  -15.2781 C.ar    1  UNL1        0.0199
     16 C         -26.1076  -12.2203  -14.5955 C.ar    1  UNL1        0.0014
     17 C         -26.1394  -13.5326  -14.1277 C.ar    1  UNL1       -0.0002
     18 C         -25.0463  -14.3751  -14.3336 C.ar    1  UNL1       -0.0029
     19 C         -23.8992  -13.9113  -15.0016 C.ar    1  UNL1       -0.0030
     20 C         -22.7634  -14.8742  -15.2262 C.3     1  UNL1        0.0324
     21 C         -25.4185   -8.1517  -21.4794 C.3     1  UNL1        0.2525
     22 O         -25.6241   -7.2209  -20.4212 O.3     1  UNL1       -0.4717
     23 C         -25.5344   -4.6718  -19.0722 C.3     1  UNL1        0.0572
     24 C         -26.6636   -4.3708  -18.1255 C.ar    1  UNL1        0.0010
     25 C         -27.8262   -3.6713  -18.4346 C.ar    1  UNL1        0.0719
     26 N         -28.6378   -3.6127  -17.3527 N.ar    1  UNL1       -0.3243
     27 C         -29.9326   -2.9432  -17.2789 C.3     1  UNL1        0.1305
     28 C         -28.0019   -4.2680  -16.3612 C.ar    1  UNL1        0.0597
     29 C         -28.4282   -4.4553  -15.0456 C.ar    1  UNL1        0.0185
     30 C         -27.5817   -5.1579  -14.1705 C.ar    1  UNL1        0.0162
     31 C         -26.3385   -5.6718  -14.6154 C.ar    1  UNL1        0.0533
     32 C         -25.9371   -5.4546  -15.9542 C.ar    1  UNL1        0.0159
     33 C         -26.7953   -4.7510  -16.7991 C.ar    1  UNL1        0.0148
     34 N         -25.4768   -6.3346  -13.6719 N.am    1  UNL1       -0.2499
     35 C         -25.5704   -7.7189  -13.3095 C.2     1  UNL1        0.4053
     36 O         -26.6246   -8.3734  -13.5379 O.2     1  UNL1       -0.2261
     37 H         -24.7361   -5.7695  -13.1986 H       1  UNL1        0.1582
     38 O         -24.4893   -8.3255  -12.6614 O.3     1  UNL1       -0.4383
     39 C         -23.3538   -8.8519  -13.3514 C.3     1  UNL1        0.1705
     40 C         -22.7705  -10.0434  -12.6021 C.3     1  UNL1        0.0437
     41 C         -21.7906   -9.4619  -11.5917 C.3     1  UNL1        0.0038
     42 C         -21.4412   -8.0562  -12.0758 C.3     1  UNL1        0.0038
     43 C         -22.2395   -7.8177  -13.3516 C.3     1  UNL1        0.0437
@<TRIPOS>BOND
     1    21    22    1
     2    22     1    1
     3     1     2   ar
     4     2     3   ar
     5     3     7    1
     6     7     8    2
     7     7     9   am
     8     9    11    1
     9    11    12    2
    10    11    13    2
    11    11    14    1
    12    14    15   ar
    13    15    16   ar
    14    16    17   ar
    15    17    18   ar
    16    18    19   ar
    17    19    20    1
    18     3     4   ar
    19     4     5   ar
    20     5     6   ar
    21     6    23    1
    22    23    24    1
    23    24    25   ar
    24    25    26   ar
    25    26    27    1
    26    26    28   ar
    27    28    29   ar
    28    29    30   ar
    29    30    31   ar
    30    31    34    1
    31    34    35   am
    32    35    36    2
    33    35    38    1
    34    38    39    1
    35    39    40    1
    36    40    41    1
    37    41    42    1
    38    42    43    1
    39    31    32   ar
    40    32    33   ar
    41     6     1   ar
    42    33    24   ar
    43    19    14   ar
    44    33    28   ar
    45    43    39    1
    46     9    10    1
    47    34    37    1
@<TRIPOS>MOLECULE
*****
 43 47 0 0 0
SMALL
GASTEIGER

@<TRIPOS>ATOM
      1 C         -20.7193   -7.1166  -10.2754 C.ar    1  UNL1        0.1352
      2 C         -20.1812   -7.5673   -9.0543 C.ar    1  UNL1        0.0411
      3 C         -19.6559   -8.8651   -8.9302 C.ar    1  UNL1        0.0578
      4 C         -19.6867   -9.7194  -10.0429 C.ar    1  UNL1        0.0044
      5 C         -20.2270   -9.2872  -11.2539 C.ar    1  UNL1       -0.0008
      6 C         -20.7326   -7.9850  -11.3880 C.ar    1  UNL1        0.0162
      7 C         -19.0280   -9.3167   -7.6648 C.2     1  UNL1        0.2644
      8 O         -18.1182  -10.1897   -7.7006 O.2     1  UNL1       -0.2686
      9 N         -19.4315   -8.7728   -6.4010 N.am    1  UNL1       -0.1814
     10 H         -20.3414   -8.2714   -6.3033 H       1  UNL1        0.1769
     11 S         -18.4328   -8.9246   -4.9946 S.O2    1  UNL1        0.0755
     12 O         -17.0352   -8.4979   -5.3479 O.2     1  UNL1       -0.1499
     13 O         -18.3995  -10.3606   -4.5532 O.2     1  UNL1       -0.1499
     14 C         -19.0803   -7.9290   -3.6795 C.ar    1  UNL1        0.1213
     15 C         -18.3952   -6.7551   -3.3238 C.ar    1  UNL1        0.0199
     16 C         -18.8790   -5.9286   -2.3086 C.ar    1  UNL1        0.0014
     17 C         -20.0545   -6.2606   -1.6378 C.ar    1  UNL1       -0.0002
     18 C         -20.7465   -7.4247   -1.9742 C.ar    1  UNL1       -0.0029
     19 C         -20.2644   -8.2803   -2.9805 C.ar    1  UNL1       -0.0030
     20 C         -21.0703   -9.5046   -3.3256 C.3     1  UNL1        0.0324
     21 C         -21.7603   -5.0287   -9.3566 C.3     1  UNL1        0.2525
     22 O         -21.2243   -5.8126  -10.4179 O.3     1  UNL1       -0.4717
     23 C         -21.2506   -7.5330  -12.7341 C.3     1  UNL1        0.0572
     24 C         -22.7403   -7.3273  -12.7097 C.ar    1  UNL1        0.0010
     25 C         -23.3961   -6.1203  -12.4872 C.ar    1  UNL1        0.0719
     26 N         -24.7362   -6.2954  -12.5647 N.ar    1  UNL1       -0.3243
     27 C         -25.7549   -5.2695  -12.3651 C.3     1  UNL1        0.1305
     28 C         -24.9366   -7.6008  -12.8346 C.ar    1  UNL1        0.0597
     29 C         -26.1527   -8.2692  -12.9820 C.ar    1  UNL1        0.0185
     30 C         -26.1203   -9.6506  -13.2403 C.ar    1  UNL1        0.0162
     31 C         -24.8886  -10.3406  -13.3602 C.ar    1  UNL1        0.0533
     32 C         -23.6766   -9.6302  -13.1962 C.ar    1  UNL1        0.0159
     33 C         -23.7389   -8.2612  -12.9370 C.ar    1  UNL1        0.0148
     34 N         -24.9013  -11.7651  -13.5673 N.am    1  UNL1       -0.2499
     35 C         -25.3492  -12.4145  -14.7649 C.2     1  UNL1        0.4053
     36 O         -26.0776  -11.8029  -15.5940 O.2     1  UNL1       -0.2261
     37 H         -24.5777  -12.3801  -12.7870 H       1  UNL1        0.1582
     38 O         -25.0002  -13.7514  -14.9832 O.3     1  UNL1       -0.4383
     39 C         -24.0636  -14.1667  -15.9795 C.3     1  UNL1        0.1705
     40 C         -23.1561  -15.2668  -15.4432 C.3     1  UNL1        0.0437
     41 C         -21.9964  -14.5548  -14.7596 C.3     1  UNL1        0.0038
     42 C         -21.9649  -13.1321  -15.3138 C.3     1  UNL1        0.0038
     43 C         -23.1223  -13.0162  -16.2980 C.3     1  UNL1        0.0437
@<TRIPOS>BOND
     1    21    22    1
     2    22     1    1
     3     1     2   ar
     4     2     3   ar
     5     3     7    1
     6     7     8    2
     7     7     9   am
     8     9    11    1
     9    11    12    2
    10    11    13    2
    11    11    14    1
    12    14    15   ar
    13    15    16   ar
    14    16    17   ar
    15    17    18   ar
    16    18    19   ar
    17    19    20    1
    18     3     4   ar
    19     4     5   ar
    20     5     6   ar
    21     6    23    1
    22    23    24    1
    23    24    25   ar
    24    25    26   ar
    25    26    27    1
    26    26    28   ar
    27    28    29   ar
    28    29    30   ar
    29    30    31   ar
    30    31    34    1
    31    34    35   am
    32    35    36    2
    33    35    38    1
    34    38    39    1
    35    39    40    1
    36    40    41    1
    37    41    42    1
    38    42    43    1
    39    31    32   ar
    40    32    33   ar
    41     6     1   ar
    42    33    24   ar
    43    19    14   ar
    44    33    28   ar
    45    43    39    1
    46     9    10    1
    47    34    37    1
@<TRIPOS>MOLECULE
*****
 43 47 0 0 0
SMALL
GASTEIGER

@<TRIPOS>ATOM
      1 C         -20.4136   -8.9044  -10.7139 C.ar    1  UNL1        0.1352
      2 C         -20.0385   -9.0567   -9.3649 C.ar    1  UNL1        0.0411
      3 C         -20.1441   -7.9869   -8.4593 C.ar    1  UNL1        0.0578
      4 C         -20.6183   -6.7499   -8.9218 C.ar    1  UNL1        0.0044
      5 C         -20.9823   -6.5849  -10.2581 C.ar    1  UNL1       -0.0008
      6 C         -20.8990   -7.6565  -11.1603 C.ar    1  UNL1        0.0162
      7 C         -19.8137   -8.1658   -7.0246 C.2     1  UNL1        0.2644
      8 O         -20.7161   -8.5260   -6.2203 O.2     1  UNL1       -0.2686
      9 N         -18.4839   -7.9439   -6.5364 N.am    1  UNL1       -0.1814
     10 H         -17.7961   -7.3940   -7.0960 H       1  UNL1        0.1769
     11 S         -17.9682   -8.5748   -5.0084 S.O2    1  UNL1        0.0755
     12 O         -16.4780   -8.4104   -4.8976 O.2     1  UNL1       -0.1499
     13 O         -18.2971  -10.0390   -4.9313 O.2     1  UNL1       -0.1499
     14 C         -18.7939   -7.7252   -3.6906 C.ar    1  UNL1        0.1213
     15 C         -18.3305   -6.4530   -3.3153 C.ar    1  UNL1        0.0199
     16 C         -18.9622   -5.7374   -2.2972 C.ar    1  UNL1        0.0014
     17 C         -20.0666   -6.2800   -1.6431 C.ar    1  UNL1       -0.0002
     18 C         -20.5387   -7.5440   -1.9992 C.ar    1  UNL1       -0.0029
     19 C         -19.9035   -8.2887   -3.0086 C.ar    1  UNL1       -0.0030
     20 C         -20.4769   -9.6320   -3.3753 C.3     1  UNL1        0.0324
     21 C         -20.9052  -11.2624  -11.4106 C.3     1  UNL1        0.2525
     22 O         -20.3361   -9.9742  -11.6223 O.3     1  UNL1       -0.4717
     23 C         -21.3636   -7.4555  -12.5845 C.3     1  UNL1        0.0572
     24 C         -22.8531   -7.2586  -12.6548 C.ar    1  UNL1        0.0010
     25 C         -23.5280   -6.0532  -12.4870 C.ar    1  UNL1        0.0719
     26 N         -24.8597   -6.2374  -12.6455 N.ar    1  UNL1       -0.3243
     27 C         -25.8944   -5.2156  -12.5209 C.3     1  UNL1        0.1305
     28 C         -25.0360   -7.5468  -12.9125 C.ar    1  UNL1        0.0597
     29 C         -26.2369   -8.2242  -13.1276 C.ar    1  UNL1        0.0185
     30 C         -26.1810   -9.6081  -13.3677 C.ar    1  UNL1        0.0162
     31 C         -24.9406  -10.2919  -13.4033 C.ar    1  UNL1        0.0533
     32 C         -23.7449   -9.5723  -13.1724 C.ar    1  UNL1        0.0159
     33 C         -23.8306   -8.2010  -12.9330 C.ar    1  UNL1        0.0148
     34 N         -24.9326  -11.7185  -13.5947 N.am    1  UNL1       -0.2499
     35 C         -25.3833  -12.3882  -14.7801 C.2     1  UNL1        0.4053
     36 O         -26.1305  -11.7975  -15.6075 O.2     1  UNL1       -0.2261
     37 H         -24.5906  -12.3197  -12.8114 H       1  UNL1        0.1582
     38 O         -25.0153  -13.7217  -14.9877 O.3     1  UNL1       -0.4383
     39 C         -24.0847  -14.1333  -15.9911 C.3     1  UNL1        0.1705
     40 C         -23.1643  -15.2251  -15.4597 C.3     1  UNL1        0.0437
     41 C         -22.0038  -14.5025  -14.7887 C.3     1  UNL1        0.0038
     42 C         -21.9877  -13.0813  -15.3475 C.3     1  UNL1        0.0038
     43 C         -23.1547  -12.9769  -16.3215 C.3     1  UNL1        0.0437
@<TRIPOS>BOND
     1    21    22    1
     2    22     1    1
     3     1     2   ar
     4     2     3   ar
     5     3     7    1
     6     7     8    2
     7     7     9   am
     8     9    11    1
     9    11    12    2
    10    11    13    2
    11    11    14    1
    12    14    15   ar
    13    15    16   ar
    14    16    17   ar
    15    17    18   ar
    16    18    19   ar
    17    19    20    1
    18     3     4   ar
    19     4     5   ar
    20     5     6   ar
    21     6    23    1
    22    23    24    1
    23    24    25   ar
    24    25    26   ar
    25    26    27    1
    26    26    28   ar
    27    28    29   ar
    28    29    30   ar
    29    30    31   ar
    30    31    34    1
    31    34    35   am
    32    35    36    2
    33    35    38    1
    34    38    39    1
    35    39    40    1
    36    40    41    1
    37    41    42    1
    38    42    43    1
    39    31    32   ar
    40    32    33   ar
    41     6     1   ar
    42    33    24   ar
    43    19    14   ar
    44    33    28   ar
    45    43    39    1
    46     9    10    1
    47    34    37    1
@<TRIPOS>MOLECULE
*****
 43 47 0 0 0
SMALL
GASTEIGER

@<TRIPOS>ATOM
      1 C         -26.7340   -7.0199  -13.9893 C.ar    1  UNL1        0.1352
      2 C         -26.0951   -8.2191  -13.6184 C.ar    1  UNL1        0.0411
      3 C         -24.7779   -8.2153  -13.1276 C.ar    1  UNL1        0.0578
      4 C         -24.0954   -6.9937  -13.0238 C.ar    1  UNL1        0.0044
      5 C         -24.7148   -5.8015  -13.3985 C.ar    1  UNL1       -0.0008
      6 C         -26.0371   -5.7986  -13.8683 C.ar    1  UNL1        0.0162
      7 C         -24.1289   -9.4691  -12.6733 C.2     1  UNL1        0.2644
      8 O         -23.5775   -9.5068  -11.5395 O.2     1  UNL1       -0.2686
      9 N         -24.1238  -10.6425  -13.4974 N.am    1  UNL1       -0.1814
     10 H         -24.3164  -10.5753  -14.5207 H       1  UNL1        0.1769
     11 S         -23.8000  -12.2085  -12.8331 S.O2    1  UNL1        0.0755
     12 O         -24.8248  -12.5036  -11.7735 O.2     1  UNL1       -0.1499
     13 O         -22.4377  -12.2146  -12.1988 O.2     1  UNL1       -0.1499
     14 C         -23.8487  -13.4330  -14.1129 C.ar    1  UNL1        0.1213
     15 C         -22.6420  -14.0199  -14.5294 C.ar    1  UNL1        0.0199
     16 C         -22.6335  -15.0036  -15.5193 C.ar    1  UNL1        0.0014
     17 C         -23.8291  -15.4174  -16.1037 C.ar    1  UNL1       -0.0002
     18 C         -25.0371  -14.8431  -15.7061 C.ar    1  UNL1       -0.0029
     19 C         -25.0640  -13.8365  -14.7247 C.ar    1  UNL1       -0.0030
     20 C         -26.3992  -13.2770  -14.3098 C.3     1  UNL1        0.0324
     21 C         -29.1875   -7.4572  -13.7127 C.3     1  UNL1        0.2525
     22 O         -28.0593   -7.0092  -14.4575 O.3     1  UNL1       -0.4717
     23 C         -26.6948   -4.4795  -14.2032 C.3     1  UNL1        0.0572
     24 C         -26.8382   -4.2978  -15.6893 C.ar    1  UNL1        0.0010
     25 C         -27.7369   -3.4478  -16.3268 C.ar    1  UNL1        0.0719
     26 N         -27.5711   -3.5141  -17.6687 N.ar    1  UNL1       -0.3243
     27 C         -28.3438   -2.7883  -18.6719 C.3     1  UNL1        0.1305
     28 C         -26.5764   -4.3968  -17.8884 C.ar    1  UNL1        0.0597
     29 C         -26.0603   -4.8199  -19.1140 C.ar    1  UNL1        0.0185
     30 C         -25.0294   -5.7755  -19.1022 C.ar    1  UNL1        0.0162
     31 C         -24.5209   -6.2837  -17.8813 C.ar    1  UNL1        0.0533
     32 C         -25.0753   -5.8366  -16.6593 C.ar    1  UNL1        0.0159
     33 C         -26.0996   -4.8909  -16.7011 C.ar    1  UNL1        0.0148
     34 N         -23.5054   -7.3033  -17.9160 N.am    1  UNL1       -0.2499
     35 C         -22.7589   -7.7547  -16.7778 C.2     1  UNL1        0.4053
     36 O         -22.7017   -7.0565  -15.7284 O.2     1  UNL1       -0.2261
     37 H         -23.2766   -7.7408  -18.8370 H       1  UNL1        0.1582
     38 O         -22.0602   -8.9638  -16.8604 O.3     1  UNL1       -0.4383
     39 C         -22.3923  -10.1181  -16.0860 C.3     1  UNL1        0.1705
     40 C         -21.3614  -11.2212  -16.2905 C.3     1  UNL1        0.0437
     41 C         -21.8237  -12.0030  -17.5129 C.3     1  UNL1        0.0038
     42 C         -23.3075  -11.6928  -17.6987 C.3     1  UNL1        0.0038
     43 C         -23.6944  -10.7121  -16.5986 C.3     1  UNL1        0.0437
@<TRIPOS>BOND
     1    21    22    1
     2    22     1    1
     3     1     2   ar
     4     2     3   ar
     5     3     7    1
     6     7     8    2
     7     7     9   am
     8     9    11    1
     9    11    12    2
    10    11    13    2
    11    11    14    1
    12    14    15   ar
    13    15    16   ar
    14    16    17   ar
    15    17    18   ar
    16    18    19   ar
    17    19    20    1
    18     3     4   ar
    19     4     5   ar
    20     5     6   ar
    21     6    23    1
    22    23    24    1
    23    24    25   ar
    24    25    26   ar
    25    26    27    1
    26    26    28   ar
    27    28    29   ar
    28    29    30   ar
    29    30    31   ar
    30    31    34    1
    31    34    35   am
    32    35    36    2
    33    35    38    1
    34    38    39    1
    35    39    40    1
    36    40    41    1
    37    41    42    1
    38    42    43    1
    39    31    32   ar
    40    32    33   ar
    41     6     1   ar
    42    33    24   ar
    43    19    14   ar
    44    33    28   ar
    45    43    39    1
    46     9    10    1
    47    34    37    1
@<TRIPOS>MOLECULE
*****
 43 47 0 0 0
SMALL
GASTEIGER

@<TRIPOS>ATOM
      1 C         -22.5469   -7.7412   -9.9698 C.ar    1  UNL1        0.1352
      2 C         -23.8232   -7.6232  -10.5536 C.ar    1  UNL1        0.0411
      3 C         -23.9694   -7.3166  -11.9176 C.ar    1  UNL1        0.0578
      4 C         -22.8192   -7.1134  -12.6950 C.ar    1  UNL1        0.0044
      5 C         -21.5506   -7.2171  -12.1248 C.ar    1  UNL1       -0.0008
      6 C         -21.3999   -7.5445  -10.7685 C.ar    1  UNL1        0.0162
      7 C         -25.3109   -7.2592  -12.5476 C.2     1  UNL1        0.2644
      8 O         -26.1849   -8.1093  -12.2245 O.2     1  UNL1       -0.2686
      9 N         -25.6347   -6.2492  -13.5124 N.am    1  UNL1       -0.1814
     10 H         -24.8809   -5.7164  -13.9989 H       1  UNL1        0.1769
     11 S         -27.2785   -5.8745  -13.9073 S.O2    1  UNL1        0.0755
     12 O         -27.8878   -5.1143  -12.7624 O.2     1  UNL1       -0.1499
     13 O         -28.0519   -7.1478  -14.1042 O.2     1  UNL1       -0.1499
     14 C         -27.3425   -4.9211  -15.3996 C.ar    1  UNL1        0.1213
     15 C         -26.1602   -4.7471  -16.1385 C.ar    1  UNL1        0.0199
     16 C         -26.1664   -4.0219  -17.3308 C.ar    1  UNL1        0.0014
     17 C         -27.3528   -3.4641  -17.8033 C.ar    1  UNL1       -0.0002
     18 C         -28.5362   -3.6227  -17.0811 C.ar    1  UNL1       -0.0029
     19 C         -28.5462   -4.3330  -15.8677 C.ar    1  UNL1       -0.0030
     20 C         -29.8583   -4.5022  -15.1483 C.3     1  UNL1        0.0324
     21 C         -22.9305   -9.2333   -7.9915 C.3     1  UNL1        0.2525
     22 O         -22.3885   -8.0722   -8.6129 O.3     1  UNL1       -0.4717
     23 C         -20.0081   -7.7109  -10.2031 C.3     1  UNL1        0.0572
     24 C         -19.5869   -9.1547  -10.1939 C.ar    1  UNL1        0.0010
     25 C         -18.5352   -9.6957   -9.4606 C.ar    1  UNL1        0.0719
     26 N         -18.4594  -11.0313   -9.6679 N.ar    1  UNL1       -0.3243
     27 C         -17.4732  -11.9406   -9.0928 C.3     1  UNL1        0.1305
     28 C         -19.4525  -11.3426  -10.5246 C.ar    1  UNL1        0.0597
     29 C         -19.7644  -12.5940  -11.0577 C.ar    1  UNL1        0.0185
     30 C         -20.8394  -12.6786  -11.9595 C.ar    1  UNL1        0.0162
     31 C         -21.5919  -11.5292  -12.3060 C.ar    1  UNL1        0.0533
     32 C         -21.2402  -10.2765  -11.7511 C.ar    1  UNL1        0.0159
     33 C         -20.1668  -10.2216  -10.8623 C.ar    1  UNL1        0.0148
     34 N         -22.6476  -11.6499  -13.2771 N.am    1  UNL1       -0.2499
     35 C         -22.4967  -11.4160  -14.6839 C.2     1  UNL1        0.4053
     36 O         -21.5119  -10.7621  -15.1250 O.2     1  UNL1       -0.2261
     37 H         -23.6014  -11.9104  -12.9392 H       1  UNL1        0.1582
     38 O         -23.4795  -11.8890  -15.5598 O.3     1  UNL1       -0.4383
     39 C         -23.3075  -13.0432  -16.3848 C.3     1  UNL1        0.1705
     40 C         -24.5427  -13.9338  -16.3328 C.3     1  UNL1        0.0437
     41 C         -24.3434  -14.8543  -15.1361 C.3     1  UNL1        0.0038
     42 C         -22.8491  -14.8491  -14.8206 C.3     1  UNL1        0.0038
     43 C         -22.1905  -13.9056  -15.8194 C.3     1  UNL1        0.0437
@<TRIPOS>BOND
     1    21    22    1
     2    22     1    1
     3     1     2   ar
     4     2     3   ar
     5     3     7    1
     6     7     8    2
     7     7     9   am
     8     9    11    1
     9    11    12    2
    10    11    13    2
    11    11    14    1
    12    14    15   ar
    13    15    16   ar
    14    16    17   ar
    15    17    18   ar
    16    18    19   ar
    17    19    20    1
    18     3     4   ar
    19     4     5   ar
    20     5     6   ar
    21     6    23    1
    22    23    24    1
    23    24    25   ar
    24    25    26   ar
    25    26    27    1
    26    26    28   ar
    27    28    29   ar
    28    29    30   ar
    29    30    31   ar
    30    31    34    1
    31    34    35   am
    32    35    36    2
    33    35    38    1
    34    38    39    1
    35    39    40    1
    36    40    41    1
    37    41    42    1
    38    42    43    1
    39    31    32   ar
    40    32    33   ar
    41     6     1   ar
    42    33    24   ar
    43    19    14   ar
    44    33    28   ar
    45    43    39    1
    46     9    10    1
    47    34    37    1
@<TRIPOS>MOLECULE
*****
 43 47 0 0 0
SMALL
GASTEIGER

@<TRIPOS>ATOM
      1 C         -25.6820   -8.5872  -12.7729 C.ar    1  UNL1        0.1352
      2 C         -25.8792   -7.7605  -13.8961 C.ar    1  UNL1        0.0411
      3 C         -25.8643   -6.3601  -13.7753 C.ar    1  UNL1        0.0578
      4 C         -25.6632   -5.7898  -12.5092 C.ar    1  UNL1        0.0044
      5 C         -25.4776   -6.5991  -11.3885 C.ar    1  UNL1       -0.0008
      6 C         -25.4700   -7.9972  -11.5084 C.ar    1  UNL1        0.0162
      7 C         -26.0041   -5.4896  -14.9679 C.2     1  UNL1        0.2644
      8 O         -25.2590   -5.6820  -15.9673 O.2     1  UNL1       -0.2686
      9 N         -26.9771   -4.4372  -15.0081 N.am    1  UNL1       -0.1814
     10 H         -27.4076   -4.0761  -14.1289 H       1  UNL1        0.1769
     11 S         -27.4744   -3.7268  -16.5070 S.O2    1  UNL1        0.0755
     12 O         -27.2111   -4.7075  -17.6156 O.2     1  UNL1       -0.1499
     13 O         -26.6721   -2.4828  -16.7654 O.2     1  UNL1       -0.1499
     14 C         -29.1937   -3.3036  -16.4376 C.ar    1  UNL1        0.1213
     15 C         -29.9165   -3.6122  -15.2729 C.ar    1  UNL1        0.0199
     16 C         -31.2674   -3.2790  -15.1645 C.ar    1  UNL1        0.0014
     17 C         -31.9137   -2.6303  -16.2150 C.ar    1  UNL1       -0.0002
     18 C         -31.2135   -2.3195  -17.3813 C.ar    1  UNL1       -0.0029
     19 C         -29.8573   -2.6647  -17.5172 C.ar    1  UNL1       -0.0030
     20 C         -29.1427   -2.2738  -18.7838 C.3     1  UNL1        0.0324
     21 C         -25.3463  -10.7042  -14.0741 C.3     1  UNL1        0.2525
     22 O         -25.6697   -9.9882  -12.8862 O.3     1  UNL1       -0.4717
     23 C         -25.2016   -8.8383  -10.2815 C.3     1  UNL1        0.0572
     24 C         -23.7299   -8.9211   -9.9825 C.ar    1  UNL1        0.0010
     25 C         -23.0421   -8.1613   -9.0412 C.ar    1  UNL1        0.0719
     26 N         -21.7365   -8.5182   -9.0162 N.ar    1  UNL1       -0.3243
     27 C         -20.6959   -7.9311   -8.1780 C.3     1  UNL1        0.1305
     28 C         -21.5897   -9.4968   -9.9315 C.ar    1  UNL1        0.0597
     29 C         -20.4197  -10.1682  -10.2890 C.ar    1  UNL1        0.0185
     30 C         -20.5004  -11.1457  -11.2960 C.ar    1  UNL1        0.0162
     31 C         -21.7359  -11.4490  -11.9197 C.ar    1  UNL1        0.0533
     32 C         -22.8989  -10.7412  -11.5360 C.ar    1  UNL1        0.0159
     33 C         -22.7887   -9.7742  -10.5370 C.ar    1  UNL1        0.0148
     34 N         -21.7634  -12.4154  -12.9862 N.am    1  UNL1       -0.2499
     35 C         -21.5087  -12.1195  -14.3661 C.2     1  UNL1        0.4053
     36 O         -21.5735  -10.9336  -14.7919 O.2     1  UNL1       -0.2261
     37 H         -22.0018  -13.4049  -12.7495 H       1  UNL1        0.1582
     38 O         -21.2262  -13.1708  -15.2447 O.3     1  UNL1       -0.4383
     39 C         -22.1349  -13.6183  -16.2529 C.3     1  UNL1        0.1705
     40 C         -23.5598  -13.1898  -15.9252 C.3     1  UNL1        0.0437
     41 C         -24.1303  -14.2846  -15.0334 C.3     1  UNL1        0.0038
     42 C         -23.2667  -15.5250  -15.2519 C.3     1  UNL1        0.0038
     43 C         -22.1828  -15.1379  -16.2503 C.3     1  UNL1        0.0437
@<TRIPOS>BOND
     1    21    22    1
     2    22     1    1
     3     1     2   ar
     4     2     3   ar
     5     3     7    1
     6     7     8    2
     7     7     9   am
     8     9    11    1
     9    11    12    2
    10    11    13    2
    11    11    14    1
    12    14    15   ar
    13    15    16   ar
    14    16    17   ar
    15    17    18   ar
    16    18    19   ar
    17    19    20    1
    18     3     4   ar
    19     4     5   ar
    20     5     6   ar
    21     6    23    1
    22    23    24    1
    23    24    25   ar
    24    25    26   ar
    25    26    27    1
    26    26    28   ar
    27    28    29   ar
    28    29    30   ar
    29    30    31   ar
    30    31    34    1
    31    34    35   am
    32    35    36    2
    33    35    38    1
    34    38    39    1
    35    39    40    1
    36    40    41    1
    37    41    42    1
    38    42    43    1
    39    31    32   ar
    40    32    33   ar
    41     6     1   ar
    42    33    24   ar
    43    19    14   ar
    44    33    28   ar
    45    43    39    1
    46     9    10    1
    47    34    37    1
