@<TRIPOS>MOLECULE
*****
 37 41 0 0 0
SMALL
GASTEIGER

@<TRIPOS>ATOM
      1 C          -8.9987   -6.1786   30.9669 C.ar    1  UNL1        0.1317
      2 C          -9.2785   -4.8683   30.5295 C.ar    1  UNL1        0.0286
      3 C         -10.5949   -4.4902   30.2069 C.ar    1  UNL1        0.0777
      4 C         -11.6324   -5.4242   30.3285 C.ar    1  UNL1        0.2970
      5 N         -11.3241   -6.6766   30.7545 N.ar    1  UNL1       -0.1220
      6 C         -12.1180   -7.7334   30.9901 C.ar    1  UNL1        0.2819
      7 BR        -14.0320   -7.7058   30.8650 Br      1  UNL1        0.0296
      8 C         -11.3018   -8.7606   31.4596 C.ar    1  UNL1        0.1326
      9 N         -10.0167   -8.3343   31.5218 N.ar    1  UNL1       -0.2938
     10 C         -10.0771   -7.0648   31.0713 C.ar    1  UNL1        0.3126
     11 H          -9.2247   -8.8344   31.8249 H       1  UNL1        0.1718
     12 N          -5.1387   -7.6876   31.9436 N.3     1  UNL1       -0.2647
     13 C          -6.2641   -7.8299   32.8913 C.3     1  UNL1        0.0941
     14 C          -7.2606   -6.6804   32.7189 C.3     1  UNL1        0.1084
     15 N          -7.6629   -6.5825   31.3143 N.pl3   1  UNL1       -0.2988
     16 C          -6.6032   -6.5661   30.3032 C.3     1  UNL1        0.1084
     17 C          -5.6403   -7.7271   30.5517 C.3     1  UNL1        0.0941
     18 C          -4.1517   -8.7623   32.1729 C.3     1  UNL1        0.1199
     19 C          -5.8221  -11.4883   30.5588 C.ar    1  UNL1        0.1165
     20 N          -5.6713  -10.1582   30.7437 N.ar    1  UNL1       -0.2344
     21 C          -4.6567  -10.0662   31.6271 C.ar    1  UNL1        0.0878
     22 C          -4.2284  -11.3344   31.9701 C.ar    1  UNL1        0.0499
     23 C          -3.1509  -11.6921   32.9441 C.3     1  UNL1        0.0511
     24 N          -4.9696  -12.2277   31.2964 N.ar    1  UNL1       -0.3443
     25 H          -4.9116  -13.2695   31.3455 H       1  UNL1        0.1668
     26 C          -8.2546  -11.5067   30.0646 C.3     1  UNL1        0.0084
     27 C          -6.8914  -12.0782   29.6938 C.3     1  UNL1        0.0637
     28 C         -11.7146  -10.1149   31.8844 C.ar    1  UNL1        0.0221
     29 C         -12.7148  -10.8192   31.2014 C.ar    1  UNL1        0.0013
     30 C         -13.0811  -12.1066   31.6040 C.ar    1  UNL1       -0.0042
     31 C         -12.4466  -12.7349   32.7013 C.ar    1  UNL1       -0.0228
     32 C         -11.4243  -12.0201   33.3634 C.ar    1  UNL1       -0.0042
     33 C         -11.0608  -10.7344   32.9566 C.ar    1  UNL1        0.0013
     34 C         -12.8186  -14.1532   33.1811 C.3     1  UNL1        0.0189
     35 C         -12.0890  -15.1995   32.3104 C.3     1  UNL1        0.0044
     36 C         -14.3442  -14.3553   33.0549 C.3     1  UNL1        0.0044
     37 C         -12.4293  -14.4168   34.6557 C.3     1  UNL1        0.0044
@<TRIPOS>BOND
     1    26    27    1
     2    27    19    1
     3    19    20   ar
     4    20    21   ar
     5    21    18    1
     6    18    12    1
     7    12    13    1
     8    13    14    1
     9    14    15    1
    10    15     1    1
    11     1     2   ar
    12     2     3   ar
    13     3     4   ar
    14     4     5   ar
    15     5     6   ar
    16     6     7    1
    17     6     8   ar
    18     8    28    1
    19    28    29   ar
    20    29    30   ar
    21    30    31   ar
    22    31    34    1
    23    34    35    1
    24    34    36    1
    25    34    37    1
    26    31    32   ar
    27    32    33   ar
    28     8     9   ar
    29     9    10   ar
    30    15    16    1
    31    16    17    1
    32    21    22   ar
    33    22    23    1
    34    22    24   ar
    35    24    19   ar
    36    17    12    1
    37    10     1   ar
    38    10     5   ar
    39    33    28   ar
    40    24    25    1
    41     9    11    1
@<TRIPOS>MOLECULE
*****
 37 41 0 0 0
SMALL
GASTEIGER

@<TRIPOS>ATOM
      1 C          -7.5908  -11.8471   29.7229 C.ar    1  UNL1        0.1317
      2 C          -6.5008  -10.9888   29.9715 C.ar    1  UNL1        0.0286
      3 C          -5.2764  -11.1800   29.3049 C.ar    1  UNL1        0.0777
      4 C          -5.1463  -12.2283   28.3841 C.ar    1  UNL1        0.2970
      5 N          -6.2191  -13.0335   28.1700 N.ar    1  UNL1       -0.1220
      6 C          -6.3734  -14.0686   27.3290 C.ar    1  UNL1        0.2819
      7 BR         -5.0536  -14.6485   26.0635 Br      1  UNL1        0.0296
      8 C          -7.6858  -14.5160   27.4685 C.ar    1  UNL1        0.1326
      9 N          -8.3362  -13.7541   28.3815 N.ar    1  UNL1       -0.2938
     10 C          -7.4005  -12.8733   28.7903 C.ar    1  UNL1        0.3126
     11 H          -9.2725  -13.8267   28.6771 H       1  UNL1        0.1718
     12 N         -11.2168  -11.4846   31.9255 N.3     1  UNL1       -0.2647
     13 C         -10.8799  -12.7464   31.2333 C.3     1  UNL1        0.0941
     14 C         -10.0154  -12.4691   30.0006 C.3     1  UNL1        0.1084
     15 N          -8.8550  -11.6619   30.3830 N.pl3   1  UNL1       -0.2988
     16 C          -9.0974  -10.4594   31.1835 C.3     1  UNL1        0.1084
     17 C          -9.9803  -10.8107   32.3809 C.3     1  UNL1        0.0941
     18 C         -12.1101  -11.7631   33.0683 C.3     1  UNL1        0.1199
     19 C         -12.8202  -15.2688   33.2498 C.ar    1  UNL1        0.1165
     20 N         -13.0538  -14.0590   32.6952 N.ar    1  UNL1       -0.2344
     21 C         -12.1892  -13.2396   33.3271 C.ar    1  UNL1        0.0878
     22 C         -11.4668  -13.9619   34.2578 C.ar    1  UNL1        0.0499
     23 C         -10.4284  -13.4398   35.1993 C.3     1  UNL1        0.0511
     24 N         -11.8717  -15.2405   34.2075 N.ar    1  UNL1       -0.3443
     25 H         -11.5381  -16.0376   34.7944 H       1  UNL1        0.1668
     26 C         -12.9033  -17.2801   31.7974 C.3     1  UNL1        0.0084
     27 C         -13.6038  -16.4947   32.8996 C.3     1  UNL1        0.0637
     28 C          -8.3442  -15.6164   26.7334 C.ar    1  UNL1        0.0221
     29 C          -8.7193  -16.8018   27.3793 C.ar    1  UNL1        0.0013
     30 C          -9.3578  -17.8259   26.6743 C.ar    1  UNL1       -0.0042
     31 C          -9.6511  -17.6892   25.2971 C.ar    1  UNL1       -0.0228
     32 C          -9.2876  -16.4785   24.6674 C.ar    1  UNL1       -0.0042
     33 C          -8.6509  -15.4574   25.3763 C.ar    1  UNL1        0.0013
     34 C         -10.3533  -18.7928   24.4791 C.3     1  UNL1        0.0189
     35 C          -9.9428  -18.6742   22.9950 C.3     1  UNL1        0.0044
     36 C         -11.8838  -18.6294   24.6024 C.3     1  UNL1        0.0044
     37 C          -9.9929  -20.2217   24.9525 C.3     1  UNL1        0.0044
@<TRIPOS>BOND
     1    26    27    1
     2    27    19    1
     3    19    20   ar
     4    20    21   ar
     5    21    18    1
     6    18    12    1
     7    12    13    1
     8    13    14    1
     9    14    15    1
    10    15     1    1
    11     1     2   ar
    12     2     3   ar
    13     3     4   ar
    14     4     5   ar
    15     5     6   ar
    16     6     7    1
    17     6     8   ar
    18     8    28    1
    19    28    29   ar
    20    29    30   ar
    21    30    31   ar
    22    31    34    1
    23    34    35    1
    24    34    36    1
    25    34    37    1
    26    31    32   ar
    27    32    33   ar
    28     8     9   ar
    29     9    10   ar
    30    15    16    1
    31    16    17    1
    32    21    22   ar
    33    22    23    1
    34    22    24   ar
    35    24    19   ar
    36    17    12    1
    37    10     1   ar
    38    10     5   ar
    39    33    28   ar
    40    24    25    1
    41     9    11    1
@<TRIPOS>MOLECULE
*****
 37 41 0 0 0
SMALL
GASTEIGER

@<TRIPOS>ATOM
      1 C          -9.2016   -6.1177   30.9858 C.ar    1  UNL1        0.1317
      2 C          -9.5256   -4.8196   30.5425 C.ar    1  UNL1        0.0286
      3 C         -10.8531   -4.4895   30.2128 C.ar    1  UNL1        0.0777
      4 C         -11.8574   -5.4593   30.3330 C.ar    1  UNL1        0.2970
      5 N         -11.5069   -6.6985   30.7647 N.ar    1  UNL1       -0.1220
      6 C         -12.2639   -7.7820   31.0005 C.ar    1  UNL1        0.2819
      7 BR        -14.1770   -7.8228   30.8667 Br      1  UNL1        0.0296
      8 C         -11.4140   -8.7781   31.4773 C.ar    1  UNL1        0.1326
      9 N         -10.1451   -8.3063   31.5438 N.ar    1  UNL1       -0.2938
     10 C         -10.2484   -7.0412   31.0886 C.ar    1  UNL1        0.3126
     11 H          -9.3372   -8.7770   31.8521 H       1  UNL1        0.1718
     12 N          -5.2706   -7.4690   31.9087 N.3     1  UNL1       -0.2647
     13 C          -6.4288   -7.9218   32.7077 C.3     1  UNL1        0.0941
     14 C          -7.5264   -6.8545   32.7159 C.3     1  UNL1        0.1084
     15 N          -7.8539   -6.4728   31.3407 N.pl3   1  UNL1       -0.2988
     16 C          -6.7443   -6.1332   30.4468 C.3     1  UNL1        0.1084
     17 C          -5.6833   -7.2320   30.5073 C.3     1  UNL1        0.0941
     18 C          -4.1934   -8.4776   31.9716 C.3     1  UNL1        0.1199
     19 C          -4.7194  -10.4462   29.0263 C.ar    1  UNL1        0.1165
     20 N          -4.5242   -9.2399   29.6030 N.ar    1  UNL1       -0.2344
     21 C          -4.3901   -9.5247   30.9142 C.ar    1  UNL1        0.0878
     22 C          -4.5236  -10.8868   31.1055 C.ar    1  UNL1        0.0499
     23 C          -4.4791  -11.6258   32.4052 C.3     1  UNL1        0.0511
     24 N          -4.7351  -11.4626   29.9118 N.ar    1  UNL1       -0.3443
     25 H          -4.8950  -12.4756   29.7129 H       1  UNL1        0.1668
     26 C          -4.7501   -9.3127   26.8181 C.3     1  UNL1        0.0084
     27 C          -4.9851  -10.6208   27.5639 C.3     1  UNL1        0.0637
     28 C         -11.7804  -10.1447   31.9050 C.ar    1  UNL1        0.0221
     29 C         -12.7363  -10.8946   31.2071 C.ar    1  UNL1        0.0013
     30 C         -13.0585  -12.1927   31.6130 C.ar    1  UNL1       -0.0042
     31 C         -12.4227  -12.7859   32.7289 C.ar    1  UNL1       -0.0228
     32 C         -11.4448  -12.0249   33.4063 C.ar    1  UNL1       -0.0042
     33 C         -11.1252  -10.7286   32.9962 C.ar    1  UNL1        0.0013
     34 C         -12.7471  -14.2145   33.2131 C.3     1  UNL1        0.0189
     35 C         -12.0578  -15.2409   32.2876 C.3     1  UNL1        0.0044
     36 C         -14.2748  -14.4357   33.1762 C.3     1  UNL1        0.0044
     37 C         -12.2664  -14.4894   34.6584 C.3     1  UNL1        0.0044
@<TRIPOS>BOND
     1    26    27    1
     2    27    19    1
     3    19    20   ar
     4    20    21   ar
     5    21    18    1
     6    18    12    1
     7    12    13    1
     8    13    14    1
     9    14    15    1
    10    15     1    1
    11     1     2   ar
    12     2     3   ar
    13     3     4   ar
    14     4     5   ar
    15     5     6   ar
    16     6     7    1
    17     6     8   ar
    18     8    28    1
    19    28    29   ar
    20    29    30   ar
    21    30    31   ar
    22    31    34    1
    23    34    35    1
    24    34    36    1
    25    34    37    1
    26    31    32   ar
    27    32    33   ar
    28     8     9   ar
    29     9    10   ar
    30    15    16    1
    31    16    17    1
    32    21    22   ar
    33    22    23    1
    34    22    24   ar
    35    24    19   ar
    36    17    12    1
    37    10     1   ar
    38    10     5   ar
    39    33    28   ar
    40    24    25    1
    41     9    11    1
