@<TRIPOS>MOLECULE
*****
 45 50 0 0 0
SMALL
GASTEIGER

@<TRIPOS>ATOM
      1 C          62.9176   91.1588   10.1041 C.3     1  UNL1        0.0325
      2 C          61.8223   90.1568   10.3484 C.ar    1  UNL1       -0.0041
      3 C          61.7131   89.5377   11.6028 C.ar    1  UNL1        0.0313
      4 C          60.6946   88.6014   11.8353 C.ar    1  UNL1        0.1315
      5 N          59.8119   88.3171   10.8400 N.ar    1  UNL1       -0.2279
      6 C          59.8898   88.8969    9.6148 C.ar    1  UNL1        0.1146
      7 C          60.8933   89.8377    9.3365 C.ar    1  UNL1        0.0661
      8 N          60.5454   87.9692   13.1203 N.pl3   1  UNL1       -0.2933
      9 C          60.9755   88.6927   14.3261 C.3     1  UNL1        0.0923
     10 C          61.0422   87.7643   15.5494 C.3     1  UNL1        0.0252
     11 C          61.5794   86.3824   15.1332 C.3     1  UNL1        0.0472
     12 C          60.6161   85.7006   14.1276 C.3     1  UNL1        0.0252
     13 C          59.8191   86.7001   13.2683 C.3     1  UNL1        0.0923
     14 C          61.8507   85.5018   16.3686 C.3     1  UNL1        0.2054
     15 O          63.0479   84.7386   16.1959 O.3     1  UNL1       -0.4755
     16 C          63.3552   83.8995   15.1120 C.ar    1  UNL1        0.1388
     17 C          64.4041   84.1632   14.2110 C.ar    1  UNL1        0.0369
     18 C          64.6593   83.2868   13.1543 C.ar    1  UNL1        0.0033
     19 C          63.8713   82.1481   12.9772 C.ar    1  UNL1        0.0066
     20 C          62.8096   81.8760   13.8567 C.ar    1  UNL1        0.0785
     21 C          62.5590   82.7633   14.9182 C.ar    1  UNL1        0.0433
     22 C          61.9661   80.6742   13.6722 C.2     1  UNL1        0.3381
     23 O          62.4378   79.6407   13.1253 O.2     1  UNL1       -0.2451
     24 O          60.6414   80.6735   14.1018 O.3     1  UNL1       -0.4771
     25 H          60.0555   79.8561   13.9803 H       1  UNL1        0.2954
     26 N          61.0055   90.4227    8.0273 N.am    1  UNL1       -0.2769
     27 C          60.0496   90.2039    6.9757 C.2     1  UNL1        0.2839
     28 O          59.0683   89.4346    7.1586 O.2     1  UNL1       -0.2665
     29 H          61.8260   91.0392    7.8435 H       1  UNL1        0.1553
     30 C          60.2036   90.8423    5.6568 C.ar    1  UNL1        0.1946
     31 O          61.3787   90.9616    5.0642 O.2     1  UNL1       -0.4492
     32 C          61.1929   91.5725    3.9197 C.ar    1  UNL1        0.1452
     33 C          62.1561   91.9120    2.9759 C.ar    1  UNL1        0.0375
     34 C          61.7323   92.5700    1.8080 C.ar    1  UNL1        0.0031
     35 C          60.3598   92.8764    1.6012 C.ar    1  UNL1        0.0002
     36 C          59.4117   92.5111    2.5868 C.ar    1  UNL1        0.0028
     37 C          59.8686   91.8612    3.7335 C.ar    1  UNL1        0.0337
     38 C          59.2002   91.3825    4.8423 C.ar    1  UNL1        0.0202
     39 C          57.7199   91.4089    5.0744 C.3     1  UNL1        0.0345
     40 C          59.9235   93.5718    0.3637 C.ar    1  UNL1        0.0000
     41 C          60.8711   94.1245   -0.5189 C.ar    1  UNL1        0.0000
     42 C          60.4574   94.7796   -1.6829 C.ar    1  UNL1        0.0000
     43 C          59.0971   94.8900   -1.9793 C.ar    1  UNL1        0.0000
     44 C          58.1473   94.3459   -1.1121 C.ar    1  UNL1        0.0000
     45 C          58.5552   93.6904    0.0537 C.ar    1  UNL1        0.0000
@<TRIPOS>BOND
     1     1     2    1
     2     2     3   ar
     3     3     4   ar
     4     4     8    1
     5     8     9    1
     6     9    10    1
     7    10    11    1
     8    11    14    1
     9    14    15    1
    10    15    16    1
    11    16    17   ar
    12    17    18   ar
    13    18    19   ar
    14    19    20   ar
    15    20    22    1
    16    22    23    2
    17    22    24    1
    18    20    21   ar
    19    11    12    1
    20    12    13    1
    21     4     5   ar
    22     5     6   ar
    23     6     7   ar
    24     7    26    1
    25    26    27   am
    26    27    28    2
    27    27    30    1
    28    30    31   ar
    29    31    32   ar
    30    32    33   ar
    31    33    34   ar
    32    34    35   ar
    33    35    40    1
    34    40    41   ar
    35    41    42   ar
    36    42    43   ar
    37    43    44   ar
    38    44    45   ar
    39    35    36   ar
    40    36    37   ar
    41    37    38   ar
    42    38    39    1
    43     7     2   ar
    44    38    30   ar
    45    13     8    1
    46    37    32   ar
    47    21    16   ar
    48    45    40   ar
    49    24    25    1
    50    26    29    1
@<TRIPOS>MOLECULE
*****
 45 50 0 0 0
SMALL
GASTEIGER

@<TRIPOS>ATOM
      1 C          60.5996   88.8881    9.0019 C.3     1  UNL1        0.0325
      2 C          60.8677   87.4331    9.2751 C.ar    1  UNL1       -0.0041
      3 C          59.9865   86.4591    8.7818 C.ar    1  UNL1        0.0313
      4 C          60.2309   85.1011    9.0351 C.ar    1  UNL1        0.1315
      5 N          61.3345   84.7446    9.7463 N.ar    1  UNL1       -0.2279
      6 C          62.2064   85.6614   10.2388 C.ar    1  UNL1        0.1146
      7 C          62.0010   87.0310   10.0118 C.ar    1  UNL1        0.0661
      8 N          59.3559   84.0797    8.5207 N.pl3   1  UNL1       -0.2933
      9 C          57.9558   84.0470    8.9691 C.3     1  UNL1        0.0923
     10 C          57.2674   82.7292    8.5787 C.3     1  UNL1        0.0252
     11 C          58.2518   81.5550    8.7326 C.3     1  UNL1        0.0472
     12 C          59.4524   81.7164    7.7648 C.3     1  UNL1        0.0252
     13 C          59.7807   83.1848    7.4350 C.3     1  UNL1        0.0923
     14 C          57.5321   80.2047    8.5479 C.3     1  UNL1        0.2054
     15 O          57.3501   79.5492    9.8058 O.3     1  UNL1       -0.4755
     16 C          58.0111   79.8498   11.0084 C.ar    1  UNL1        0.1388
     17 C          58.4322   78.8631   11.9198 C.ar    1  UNL1        0.0369
     18 C          59.0869   79.2285   13.0977 C.ar    1  UNL1        0.0033
     19 C          59.3209   80.5744   13.3854 C.ar    1  UNL1        0.0066
     20 C          58.8942   81.5749   12.4958 C.ar    1  UNL1        0.0785
     21 C          58.2354   81.1989   11.3118 C.ar    1  UNL1        0.0433
     22 C          59.1331   83.0040   12.7964 C.2     1  UNL1        0.3381
     23 O          60.2805   83.4022   13.1351 O.2     1  UNL1       -0.2451
     24 O          58.0914   83.9239   12.7078 O.3     1  UNL1       -0.4771
     25 H          58.2443   84.9044   12.9115 H       1  UNL1        0.2954
     26 N          62.8986   88.0080   10.5675 N.am    1  UNL1       -0.2769
     27 C          62.6619   88.6850   11.8137 C.2     1  UNL1        0.2839
     28 O          61.6050   88.4672   12.4647 O.2     1  UNL1       -0.2665
     29 H          63.7655   88.2264   10.0310 H       1  UNL1        0.1553
     30 C          63.6238   89.6655   12.3464 C.ar    1  UNL1        0.1946
     31 O          63.8351   90.8333   11.7651 O.2     1  UNL1       -0.4492
     32 C          64.7419   91.4728   12.4626 C.ar    1  UNL1        0.1452
     33 C          65.2712   92.7333   12.2082 C.ar    1  UNL1        0.0375
     34 C          66.2425   93.2320   13.0940 C.ar    1  UNL1        0.0031
     35 C          66.6673   92.4684   14.2151 C.ar    1  UNL1        0.0002
     36 C          66.1009   91.1903   14.4383 C.ar    1  UNL1        0.0028
     37 C          65.1415   90.7271   13.5378 C.ar    1  UNL1        0.0337
     38 C          64.4177   89.5526   13.4949 C.ar    1  UNL1        0.0202
     39 C          64.4605   88.4389   14.4968 C.3     1  UNL1        0.0345
     40 C          67.6939   93.0052   15.1442 C.ar    1  UNL1        0.0000
     41 C          67.9360   94.3900   15.2207 C.ar    1  UNL1        0.0000
     42 C          68.9041   94.8925   16.0957 C.ar    1  UNL1        0.0000
     43 C          69.6394   94.0215   16.9027 C.ar    1  UNL1        0.0000
     44 C          69.4086   92.6458   16.8362 C.ar    1  UNL1        0.0000
     45 C          68.4424   92.1376   15.9625 C.ar    1  UNL1        0.0000
@<TRIPOS>BOND
     1     1     2    1
     2     2     3   ar
     3     3     4   ar
     4     4     8    1
     5     8     9    1
     6     9    10    1
     7    10    11    1
     8    11    14    1
     9    14    15    1
    10    15    16    1
    11    16    17   ar
    12    17    18   ar
    13    18    19   ar
    14    19    20   ar
    15    20    22    1
    16    22    23    2
    17    22    24    1
    18    20    21   ar
    19    11    12    1
    20    12    13    1
    21     4     5   ar
    22     5     6   ar
    23     6     7   ar
    24     7    26    1
    25    26    27   am
    26    27    28    2
    27    27    30    1
    28    30    31   ar
    29    31    32   ar
    30    32    33   ar
    31    33    34   ar
    32    34    35   ar
    33    35    40    1
    34    40    41   ar
    35    41    42   ar
    36    42    43   ar
    37    43    44   ar
    38    44    45   ar
    39    35    36   ar
    40    36    37   ar
    41    37    38   ar
    42    38    39    1
    43     7     2   ar
    44    38    30   ar
    45    13     8    1
    46    37    32   ar
    47    21    16   ar
    48    45    40   ar
    49    24    25    1
    50    26    29    1
@<TRIPOS>MOLECULE
*****
 45 50 0 0 0
SMALL
GASTEIGER

@<TRIPOS>ATOM
      1 C          61.2131   90.0646    9.3610 C.3     1  UNL1        0.0325
      2 C          60.3170   88.9062    9.0165 C.ar    1  UNL1       -0.0041
      3 C          59.8855   88.0358   10.0289 C.ar    1  UNL1        0.0313
      4 C          59.0512   86.9531    9.7128 C.ar    1  UNL1        0.1315
      5 N          58.6569   86.7706    8.4237 N.ar    1  UNL1       -0.2279
      6 C          59.0569   87.5931    7.4203 C.ar    1  UNL1        0.1146
      7 C          59.8931   88.6876    7.6894 C.ar    1  UNL1        0.0661
      8 N          58.5747   86.0586   10.7357 N.pl3   1  UNL1       -0.2933
      9 C          59.1059   86.1875   12.1008 C.3     1  UNL1        0.0923
     10 C          58.7374   84.9733   12.9684 C.3     1  UNL1        0.0252
     11 C          58.8139   83.6840   12.1296 C.3     1  UNL1        0.0472
     12 C          57.7782   83.7189   10.9762 C.3     1  UNL1        0.0252
     13 C          57.4519   85.1432   10.4883 C.3     1  UNL1        0.0923
     14 C          58.6520   82.4367   13.0202 C.3     1  UNL1        0.2054
     15 O          59.8588   81.6696   13.0450 O.3     1  UNL1       -0.4755
     16 C          60.7483   81.4760   11.9752 C.ar    1  UNL1        0.1388
     17 C          60.4268   80.7094   10.8392 C.ar    1  UNL1        0.0369
     18 C          61.3563   80.5577    9.8083 C.ar    1  UNL1        0.0033
     19 C          62.6140   81.1565    9.8996 C.ar    1  UNL1        0.0066
     20 C          62.9595   81.9125   11.0327 C.ar    1  UNL1        0.0785
     21 C          62.0182   82.0606   12.0666 C.ar    1  UNL1        0.0433
     22 C          64.2928   82.5455   11.1396 C.2     1  UNL1        0.3381
     23 O          64.9795   82.7669   10.1056 O.2     1  UNL1       -0.2451
     24 O          64.8022   82.9034   12.3853 O.3     1  UNL1       -0.4771
     25 H          65.7137   83.3373   12.4695 H       1  UNL1        0.2954
     26 N          60.3536   89.5366    6.6235 N.am    1  UNL1       -0.2769
     27 C          59.4756   90.3208    5.7979 C.2     1  UNL1        0.2839
     28 O          58.2273   90.2590    5.9596 O.2     1  UNL1       -0.2665
     29 H          61.3810   89.5804    6.4518 H       1  UNL1        0.1553
     30 C          60.0020   91.1881    4.7296 C.ar    1  UNL1        0.1946
     31 O          59.3907   92.2993    4.3583 O.2     1  UNL1       -0.4492
     32 C          60.0909   92.8411    3.3918 C.ar    1  UNL1        0.1452
     33 C          59.8115   94.0146    2.7001 C.ar    1  UNL1        0.0375
     34 C          60.7056   94.4149    1.6917 C.ar    1  UNL1        0.0031
     35 C          61.8599   93.6413    1.3918 C.ar    1  UNL1        0.0002
     36 C          62.1077   92.4540    2.1218 C.ar    1  UNL1        0.0028
     37 C          61.1981   92.0870    3.1137 C.ar    1  UNL1        0.0337
     38 C          61.1730   91.0135    3.9810 C.ar    1  UNL1        0.0202
     39 C          62.2092   89.9376    4.1023 C.3     1  UNL1        0.0345
     40 C          62.7975   94.0737    0.3245 C.ar    1  UNL1        0.0000
     41 C          62.3853   94.1039   -1.0214 C.ar    1  UNL1        0.0000
     42 C          63.2707   94.5105   -2.0244 C.ar    1  UNL1        0.0000
     43 C          64.5739   94.8913   -1.6969 C.ar    1  UNL1        0.0000
     44 C          64.9949   94.8658   -0.3657 C.ar    1  UNL1        0.0000
     45 C          64.1141   94.4593    0.6414 C.ar    1  UNL1        0.0000
@<TRIPOS>BOND
     1     1     2    1
     2     2     3   ar
     3     3     4   ar
     4     4     8    1
     5     8     9    1
     6     9    10    1
     7    10    11    1
     8    11    14    1
     9    14    15    1
    10    15    16    1
    11    16    17   ar
    12    17    18   ar
    13    18    19   ar
    14    19    20   ar
    15    20    22    1
    16    22    23    2
    17    22    24    1
    18    20    21   ar
    19    11    12    1
    20    12    13    1
    21     4     5   ar
    22     5     6   ar
    23     6     7   ar
    24     7    26    1
    25    26    27   am
    26    27    28    2
    27    27    30    1
    28    30    31   ar
    29    31    32   ar
    30    32    33   ar
    31    33    34   ar
    32    34    35   ar
    33    35    40    1
    34    40    41   ar
    35    41    42   ar
    36    42    43   ar
    37    43    44   ar
    38    44    45   ar
    39    35    36   ar
    40    36    37   ar
    41    37    38   ar
    42    38    39    1
    43     7     2   ar
    44    38    30   ar
    45    13     8    1
    46    37    32   ar
    47    21    16   ar
    48    45    40   ar
    49    24    25    1
    50    26    29    1
@<TRIPOS>MOLECULE
*****
 45 50 0 0 0
SMALL
GASTEIGER

@<TRIPOS>ATOM
      1 C          61.8865   90.1941    9.4875 C.3     1  UNL1        0.0325
      2 C          60.9001   89.0807    9.2617 C.ar    1  UNL1       -0.0041
      3 C          60.5529   88.2331   10.3245 C.ar    1  UNL1        0.0313
      4 C          59.6349   87.1923   10.1190 C.ar    1  UNL1        0.1315
      5 N          59.0787   87.0286    8.8884 N.ar    1  UNL1       -0.2279
      6 C          59.3934   87.8300    7.8385 C.ar    1  UNL1        0.1146
      7 C          60.3082   88.8824    7.9972 C.ar    1  UNL1        0.0661
      8 N          59.2432   86.3228   11.1979 N.pl3   1  UNL1       -0.2933
      9 C          60.2818   85.7574   12.0719 C.3     1  UNL1        0.0923
     10 C          59.7276   84.6223   12.9479 C.3     1  UNL1        0.0252
     11 C          58.7223   83.7783   12.1426 C.3     1  UNL1        0.0472
     12 C          57.4996   84.6350   11.7240 C.3     1  UNL1        0.0252
     13 C          57.8293   86.1295   11.5490 C.3     1  UNL1        0.0923
     14 C          58.3091   82.5172   12.9262 C.3     1  UNL1        0.2054
     15 O          58.0521   81.4273   12.0367 O.3     1  UNL1       -0.4755
     16 C          58.7255   81.1526   10.8348 C.ar    1  UNL1        0.1388
     17 C          58.1480   81.3581    9.5676 C.ar    1  UNL1        0.0369
     18 C          58.8725   81.0668    8.4100 C.ar    1  UNL1        0.0033
     19 C          60.1706   80.5611    8.4997 C.ar    1  UNL1        0.0066
     20 C          60.7587   80.3343    9.7557 C.ar    1  UNL1        0.0785
     21 C          60.0226   80.6300   10.9166 C.ar    1  UNL1        0.0433
     22 C          62.1320   79.7930    9.8592 C.2     1  UNL1        0.3381
     23 O          63.1266   80.5678    9.8451 O.2     1  UNL1       -0.2451
     24 O          62.3391   78.4206    9.9735 O.3     1  UNL1       -0.4771
     25 H          63.2750   78.0398   10.0450 H       1  UNL1        0.2954
     26 N          60.6766   89.7072    6.8778 N.am    1  UNL1       -0.2769
     27 C          59.7209   90.3293    6.0020 C.2     1  UNL1        0.2839
     28 O          58.4868   90.1348    6.1668 O.2     1  UNL1       -0.2665
     29 H          61.6935   89.8577    6.7040 H       1  UNL1        0.1553
     30 C          60.1527   91.1797    4.8790 C.ar    1  UNL1        0.1946
     31 O          59.4507   92.2238    4.4748 O.2     1  UNL1       -0.4492
     32 C          60.0826   92.7675    3.4634 C.ar    1  UNL1        0.1452
     33 C          59.6983   93.8823    2.7264 C.ar    1  UNL1        0.0375
     34 C          60.5331   94.2973    1.6740 C.ar    1  UNL1        0.0031
     35 C          61.7334   93.5965    1.3760 C.ar    1  UNL1        0.0002
     36 C          62.0882   92.4676    2.1529 C.ar    1  UNL1        0.0028
     37 C          61.2351   92.0838    3.1877 C.ar    1  UNL1        0.0337
     38 C          61.3131   91.0549    4.1044 C.ar    1  UNL1        0.0202
     39 C          62.4295   90.0649    4.2446 C.3     1  UNL1        0.0345
     40 C          62.6075   94.0438    0.2620 C.ar    1  UNL1        0.0000
     41 C          62.0797   94.2368   -1.0290 C.ar    1  UNL1        0.0000
     42 C          62.9054   94.6571   -2.0763 C.ar    1  UNL1        0.0000
     43 C          64.2635   94.8896   -1.8481 C.ar    1  UNL1        0.0000
     44 C          64.7991   94.7019   -0.5722 C.ar    1  UNL1        0.0000
     45 C          63.9783   94.2810    0.4787 C.ar    1  UNL1        0.0000
@<TRIPOS>BOND
     1     1     2    1
     2     2     3   ar
     3     3     4   ar
     4     4     8    1
     5     8     9    1
     6     9    10    1
     7    10    11    1
     8    11    14    1
     9    14    15    1
    10    15    16    1
    11    16    17   ar
    12    17    18   ar
    13    18    19   ar
    14    19    20   ar
    15    20    22    1
    16    22    23    2
    17    22    24    1
    18    20    21   ar
    19    11    12    1
    20    12    13    1
    21     4     5   ar
    22     5     6   ar
    23     6     7   ar
    24     7    26    1
    25    26    27   am
    26    27    28    2
    27    27    30    1
    28    30    31   ar
    29    31    32   ar
    30    32    33   ar
    31    33    34   ar
    32    34    35   ar
    33    35    40    1
    34    40    41   ar
    35    41    42   ar
    36    42    43   ar
    37    43    44   ar
    38    44    45   ar
    39    35    36   ar
    40    36    37   ar
    41    37    38   ar
    42    38    39    1
    43     7     2   ar
    44    38    30   ar
    45    13     8    1
    46    37    32   ar
    47    21    16   ar
    48    45    40   ar
    49    24    25    1
    50    26    29    1
