@<TRIPOS>MOLECULE
*****
 50 55 0 0 0
SMALL
GASTEIGER

@<TRIPOS>ATOM
      1 O          10.9196   75.1694   25.0431 O.2     1  UNL1       -0.2701
      2 C           9.9004   75.8572   25.3254 C.2     1  UNL1        0.2483
      3 N           9.9784   76.8563   26.3561 N.am    1  UNL1       -0.2945
      4 H           9.0866   77.2270   26.7543 H       1  UNL1        0.1501
      5 C           8.6318   75.6190   24.5944 C.ar    1  UNL1        0.0808
      6 C           8.5516   75.8646   23.2119 C.ar    1  UNL1        0.0080
      7 C           7.3618   75.6349   22.5165 C.ar    1  UNL1        0.0148
      8 C           6.2288   75.1491   23.1868 C.ar    1  UNL1        0.0502
      9 C           6.3056   74.8978   24.5642 C.ar    1  UNL1        0.0443
     10 C           7.4943   75.1259   25.2645 C.ar    1  UNL1        0.1457
     11 F           7.5200   74.8901   26.6011 F       1  UNL1       -0.2040
     12 N           4.9988   74.9136   22.4758 N.pl3   1  UNL1       -0.3040
     13 C           3.7819   75.6415   22.8518 C.3     1  UNL1        0.1123
     14 C           2.9840   76.0162   21.6020 C.3     1  UNL1        0.1136
     15 N           2.8423   74.8497   20.7190 N.pl3   1  UNL1       -0.2897
     16 C           4.0578   74.1079   20.3582 C.3     1  UNL1        0.1136
     17 C           4.8492   73.7372   21.6127 C.3     1  UNL1        0.1123
     18 C           1.6191   74.6059   19.9951 C.ar    1  UNL1        0.1318
     19 C           0.9913   75.6237   19.2586 C.ar    1  UNL1        0.0343
     20 C          -0.1901   75.3474   18.5690 C.ar    1  UNL1        0.0083
     21 C          -0.7569   74.0653   18.6227 C.ar    1  UNL1        0.0906
     22 C          -0.0804   73.0676   19.3413 C.ar    1  UNL1        0.1041
     23 N           1.0698   73.3598   20.0039 N.ar    1  UNL1       -0.2292
     24 C          -2.0043   73.7408   17.8411 C.3     1  UNL1        0.4200
     25 F          -1.8264   74.0253   16.4982 F       1  UNL1       -0.1658
     26 F          -2.2933   72.3964   17.9826 F       1  UNL1       -0.1658
     27 F          -3.0767   74.4840   18.3029 F       1  UNL1       -0.1658
     28 C          11.2367   77.1865   27.0319 C.3     1  UNL1        0.1536
     29 C          12.1371   77.9632   26.1011 C.2     1  UNL1        0.2443
     30 O          11.6802   78.9898   25.5285 O.2     1  UNL1       -0.2730
     31 N          13.4684   77.5020   25.8114 N.am    1  UNL1       -0.2825
     32 H          13.7394   76.5455   26.1323 H       1  UNL1        0.1549
     33 C          14.3839   78.1966   24.9488 C.ar    1  UNL1        0.0535
     34 C          14.9039   77.5415   23.8243 C.ar    1  UNL1        0.0353
     35 C          15.8043   78.2088   22.9907 C.ar    1  UNL1        0.1002
     36 N          16.1871   79.4805   23.2800 N.ar    1  UNL1       -0.2422
     37 C          15.7160   80.1343   24.3747 C.ar    1  UNL1        0.1002
     38 C          14.8117   79.5039   25.2333 C.ar    1  UNL1        0.0353
     39 C          10.9466   77.9662   28.3277 C.3     1  UNL1        0.0592
     40 C           9.6095   77.5986   28.9080 C.ar    1  UNL1        0.0254
     41 C           8.5256   78.4487   29.0993 C.ar    1  UNL1        0.1966
     42 F           8.5243   79.7821   28.8543 F       1  UNL1       -0.1855
     43 N           7.4421   77.7676   29.5333 N.ar    1  UNL1       -0.3307
     44 C           7.8294   76.4820   29.6087 C.ar    1  UNL1        0.0580
     45 C           7.0500   75.3872   29.9803 C.ar    1  UNL1        0.0170
     46 C           7.6506   74.1153   29.9626 C.ar    1  UNL1        0.0015
     47 C           9.0016   73.9669   29.5785 C.ar    1  UNL1        0.0001
     48 C           9.7649   75.0888   29.2092 C.ar    1  UNL1        0.0012
     49 C           9.1431   76.3380   29.2337 C.ar    1  UNL1        0.0153
     50 H           6.4967   78.1581   29.7430 H       1  UNL1        0.1680
@<TRIPOS>BOND
     1     1     2    2
     2     2     3   am
     3     3    28    1
     4    28    39    1
     5    39    40    1
     6    40    41   ar
     7    41    42    1
     8    41    43   ar
     9    43    44   ar
    10    44    45   ar
    11    45    46   ar
    12    46    47   ar
    13    47    48   ar
    14    48    49   ar
    15    28    29    1
    16    29    30    2
    17    29    31   am
    18    31    33    1
    19    33    34   ar
    20    34    35   ar
    21    35    36   ar
    22    36    37   ar
    23    37    38   ar
    24     2     5    1
    25     5     6   ar
    26     6     7   ar
    27     7     8   ar
    28     8    12    1
    29    12    13    1
    30    13    14    1
    31    14    15    1
    32    15    18    1
    33    18    19   ar
    34    19    20   ar
    35    20    21   ar
    36    21    24    1
    37    24    25    1
    38    24    26    1
    39    24    27    1
    40    21    22   ar
    41    22    23   ar
    42    15    16    1
    43    16    17    1
    44     8     9   ar
    45     9    10   ar
    46    10    11    1
    47    49    40   ar
    48    38    33   ar
    49    10     5   ar
    50    49    44   ar
    51    17    12    1
    52    23    18   ar
    53     3     4    1
    54    43    50    1
    55    31    32    1
@<TRIPOS>MOLECULE
*****
 50 55 0 0 0
SMALL
GASTEIGER

@<TRIPOS>ATOM
      1 O           9.1393   75.1701   27.7333 O.2     1  UNL1       -0.2701
      2 C           8.8913   75.6899   26.6108 C.2     1  UNL1        0.2483
      3 N           7.8843   75.1102   25.7643 N.am    1  UNL1       -0.2945
      4 H           7.8709   75.3801   24.7552 H       1  UNL1        0.1501
      5 C           9.6493   76.8886   26.1762 C.ar    1  UNL1        0.0808
      6 C          11.0547   76.8620   26.1293 C.ar    1  UNL1        0.0080
      7 C          11.7738   77.9854   25.7135 C.ar    1  UNL1        0.0148
      8 C          11.1035   79.1569   25.3300 C.ar    1  UNL1        0.0502
      9 C           9.7022   79.1863   25.3700 C.ar    1  UNL1        0.0443
     10 C           8.9780   78.0644   25.7852 C.ar    1  UNL1        0.1457
     11 F           7.6234   78.1418   25.8300 F       1  UNL1       -0.2040
     12 N          11.8397   80.3190   24.9036 N.pl3   1  UNL1       -0.3040
     13 C          11.1495   81.4127   24.2113 C.3     1  UNL1        0.1123
     14 C          11.7061   82.7615   24.6694 C.3     1  UNL1        0.1136
     15 N          13.1755   82.7447   24.6349 N.pl3   1  UNL1       -0.2897
     16 C          13.8673   81.6388   25.3105 C.3     1  UNL1        0.1136
     17 C          13.3051   80.2947   24.8470 C.3     1  UNL1        0.1123
     18 C          13.9255   83.9035   24.2175 C.ar    1  UNL1        0.1318
     19 C          14.0130   85.0474   25.0278 C.ar    1  UNL1        0.0343
     20 C          14.7509   86.1479   24.5896 C.ar    1  UNL1        0.0083
     21 C          15.3893   86.1194   23.3408 C.ar    1  UNL1        0.0906
     22 C          15.3061   84.9450   22.5769 C.ar    1  UNL1        0.1041
     23 N          14.5827   83.8851   23.0249 N.ar    1  UNL1       -0.2292
     24 C          16.2312   87.2814   22.8789 C.3     1  UNL1        0.4200
     25 F          16.4318   87.2249   21.5106 F       1  UNL1       -0.1658
     26 F          15.5863   88.4634   23.1916 F       1  UNL1       -0.1658
     27 F          17.4685   87.2645   23.4992 F       1  UNL1       -0.1658
     28 C           7.0490   73.9865   26.1988 C.3     1  UNL1        0.1536
     29 C           6.2702   74.3670   27.4354 C.2     1  UNL1        0.2443
     30 O           5.6116   73.4761   28.0380 O.2     1  UNL1       -0.2730
     31 N           6.2168   75.7344   27.8788 N.am    1  UNL1       -0.2825
     32 H           6.5947   76.4733   27.2445 H       1  UNL1        0.1549
     33 C           5.5092   76.1659   29.0526 C.ar    1  UNL1        0.0535
     34 C           6.0941   75.9903   30.3140 C.ar    1  UNL1        0.0353
     35 C           5.4038   76.3964   31.4584 C.ar    1  UNL1        0.1002
     36 N           4.1638   76.9422   31.3488 N.ar    1  UNL1       -0.2422
     37 C           3.5622   77.1060   30.1409 C.ar    1  UNL1        0.1002
     38 C           4.2191   76.7155   28.9712 C.ar    1  UNL1        0.0353
     39 C           6.1198   73.5498   25.0513 C.3     1  UNL1        0.0592
     40 C           5.8142   74.6905   24.1211 C.ar    1  UNL1        0.0254
     41 C           6.3390   74.8871   22.8484 C.ar    1  UNL1        0.1966
     42 F           7.2788   74.1066   22.2604 F       1  UNL1       -0.1855
     43 N           5.7634   75.9488   22.2420 N.ar    1  UNL1       -0.3307
     44 C           4.8638   76.4237   23.1216 C.ar    1  UNL1        0.0580
     45 C           3.9953   77.4994   22.9413 C.ar    1  UNL1        0.0170
     46 C           3.1080   77.8115   23.9874 C.ar    1  UNL1        0.0015
     47 C           3.1082   77.0506   25.1772 C.ar    1  UNL1        0.0001
     48 C           3.9958   75.9710   25.3326 C.ar    1  UNL1        0.0012
     49 C           4.8634   75.6824   24.2782 C.ar    1  UNL1        0.0153
     50 H           5.9619   76.3082   21.2819 H       1  UNL1        0.1680
@<TRIPOS>BOND
     1     1     2    2
     2     2     3   am
     3     3    28    1
     4    28    39    1
     5    39    40    1
     6    40    41   ar
     7    41    42    1
     8    41    43   ar
     9    43    44   ar
    10    44    45   ar
    11    45    46   ar
    12    46    47   ar
    13    47    48   ar
    14    48    49   ar
    15    28    29    1
    16    29    30    2
    17    29    31   am
    18    31    33    1
    19    33    34   ar
    20    34    35   ar
    21    35    36   ar
    22    36    37   ar
    23    37    38   ar
    24     2     5    1
    25     5     6   ar
    26     6     7   ar
    27     7     8   ar
    28     8    12    1
    29    12    13    1
    30    13    14    1
    31    14    15    1
    32    15    18    1
    33    18    19   ar
    34    19    20   ar
    35    20    21   ar
    36    21    24    1
    37    24    25    1
    38    24    26    1
    39    24    27    1
    40    21    22   ar
    41    22    23   ar
    42    15    16    1
    43    16    17    1
    44     8     9   ar
    45     9    10   ar
    46    10    11    1
    47    49    40   ar
    48    38    33   ar
    49    10     5   ar
    50    49    44   ar
    51    17    12    1
    52    23    18   ar
    53     3     4    1
    54    43    50    1
    55    31    32    1
@<TRIPOS>MOLECULE
*****
 50 55 0 0 0
SMALL
GASTEIGER

@<TRIPOS>ATOM
      1 O          14.8426   82.1805   24.4296 O.2     1  UNL1       -0.2701
      2 C          13.6480   82.5526   24.5910 C.2     1  UNL1        0.2483
      3 N          13.2974   83.9314   24.3842 N.am    1  UNL1       -0.2945
      4 H          12.3870   84.2729   24.7660 H       1  UNL1        0.1501
      5 C          12.6224   81.5624   25.0007 C.ar    1  UNL1        0.0808
      6 C          11.3447   81.9889   25.4054 C.ar    1  UNL1        0.0080
      7 C          10.3721   81.0605   25.7850 C.ar    1  UNL1        0.0148
      8 C          10.6536   79.6861   25.7623 C.ar    1  UNL1        0.0502
      9 C          11.9244   79.2559   25.3544 C.ar    1  UNL1        0.0443
     10 C          12.9011   80.1813   24.9733 C.ar    1  UNL1        0.1457
     11 F          14.1253   79.7241   24.6057 F       1  UNL1       -0.2040
     12 N           9.6560   78.7248   26.1556 N.pl3   1  UNL1       -0.3040
     13 C           9.4141   77.5372   25.3292 C.3     1  UNL1        0.1123
     14 C           9.1505   76.3208   26.2180 C.3     1  UNL1        0.1136
     15 N           8.1610   76.6511   27.2535 N.pl3   1  UNL1       -0.2897
     16 C           8.3919   77.8515   28.0682 C.3     1  UNL1        0.1136
     17 C           8.6543   79.0624   27.1724 C.3     1  UNL1        0.1123
     18 C           7.1615   75.6955   27.6625 C.ar    1  UNL1        0.1318
     19 C           6.8276   74.5968   26.8538 C.ar    1  UNL1        0.0343
     20 C           5.8566   73.6923   27.2860 C.ar    1  UNL1        0.0083
     21 C           5.2060   73.8863   28.5136 C.ar    1  UNL1        0.0906
     22 C           5.5929   74.9770   29.3074 C.ar    1  UNL1        0.1041
     23 N           6.5421   75.8440   28.8662 N.ar    1  UNL1       -0.2292
     24 C           4.1927   72.8891   29.0148 C.3     1  UNL1        0.4200
     25 F           4.5460   71.6044   28.6401 F       1  UNL1       -0.1658
     26 F           4.1323   72.9558   30.3942 F       1  UNL1       -0.1658
     27 F           2.9398   73.1631   28.4944 F       1  UNL1       -0.1658
     28 C          14.2611   84.9176   23.8864 C.3     1  UNL1        0.1536
     29 C          14.4239   84.7750   22.3919 C.2     1  UNL1        0.2443
     30 O          15.0940   83.8057   21.9424 O.2     1  UNL1       -0.2730
     31 N          13.8897   85.7659   21.4964 N.am    1  UNL1       -0.2825
     32 H          13.5280   86.6563   21.9057 H       1  UNL1        0.1549
     33 C          13.9938   85.6876   20.0654 C.ar    1  UNL1        0.0535
     34 C          13.9632   86.8652   19.3062 C.ar    1  UNL1        0.0353
     35 C          14.0507   86.7924   17.9141 C.ar    1  UNL1        0.1002
     36 N          14.1468   85.5839   17.2993 N.ar    1  UNL1       -0.2422
     37 C          14.1580   84.4238   18.0076 C.ar    1  UNL1        0.1002
     38 C          14.0750   84.4521   19.4020 C.ar    1  UNL1        0.0353
     39 C          13.8089   86.3363   24.2784 C.3     1  UNL1        0.0592
     40 C          14.9138   87.1047   24.9482 C.ar    1  UNL1        0.0254
     41 C          16.0722   87.5861   24.3480 C.ar    1  UNL1        0.1966
     42 F          16.4301   87.3759   23.0573 F       1  UNL1       -0.1855
     43 N          16.7951   88.3328   25.2118 N.ar    1  UNL1       -0.3307
     44 C          16.0942   88.3380   26.3595 C.ar    1  UNL1        0.0580
     45 C          16.4184   89.0017   27.5421 C.ar    1  UNL1        0.0170
     46 C          15.5235   88.8966   28.6224 C.ar    1  UNL1        0.0015
     47 C          14.3379   88.1392   28.4987 C.ar    1  UNL1        0.0001
     48 C          14.0362   87.4792   27.2942 C.ar    1  UNL1        0.0012
     49 C          14.9405   87.6023   26.2383 C.ar    1  UNL1        0.0153
     50 H          17.6974   88.8212   25.0179 H       1  UNL1        0.1680
@<TRIPOS>BOND
     1     1     2    2
     2     2     3   am
     3     3    28    1
     4    28    39    1
     5    39    40    1
     6    40    41   ar
     7    41    42    1
     8    41    43   ar
     9    43    44   ar
    10    44    45   ar
    11    45    46   ar
    12    46    47   ar
    13    47    48   ar
    14    48    49   ar
    15    28    29    1
    16    29    30    2
    17    29    31   am
    18    31    33    1
    19    33    34   ar
    20    34    35   ar
    21    35    36   ar
    22    36    37   ar
    23    37    38   ar
    24     2     5    1
    25     5     6   ar
    26     6     7   ar
    27     7     8   ar
    28     8    12    1
    29    12    13    1
    30    13    14    1
    31    14    15    1
    32    15    18    1
    33    18    19   ar
    34    19    20   ar
    35    20    21   ar
    36    21    24    1
    37    24    25    1
    38    24    26    1
    39    24    27    1
    40    21    22   ar
    41    22    23   ar
    42    15    16    1
    43    16    17    1
    44     8     9   ar
    45     9    10   ar
    46    10    11    1
    47    49    40   ar
    48    38    33   ar
    49    10     5   ar
    50    49    44   ar
    51    17    12    1
    52    23    18   ar
    53     3     4    1
    54    43    50    1
    55    31    32    1
@<TRIPOS>MOLECULE
*****
 50 55 0 0 0
SMALL
GASTEIGER

@<TRIPOS>ATOM
      1 O          14.8889   82.2472   24.4083 O.2     1  UNL1       -0.2701
      2 C          13.6926   82.6203   24.5546 C.2     1  UNL1        0.2483
      3 N          13.3426   83.9959   24.3271 N.am    1  UNL1       -0.2945
      4 H          12.4286   84.3414   24.6966 H       1  UNL1        0.1501
      5 C          12.6642   81.6344   24.9681 C.ar    1  UNL1        0.0808
      6 C          11.3851   82.0654   25.3633 C.ar    1  UNL1        0.0080
      7 C          10.4100   81.1411   25.7465 C.ar    1  UNL1        0.0148
      8 C          10.6905   79.7663   25.7369 C.ar    1  UNL1        0.0502
      9 C          11.9628   79.3316   25.3385 C.ar    1  UNL1        0.0443
     10 C          12.9420   80.2528   24.9539 C.ar    1  UNL1        0.1457
     11 F          14.1675   79.7916   24.5959 F       1  UNL1       -0.2040
     12 N           9.6903   78.8092   26.1339 N.pl3   1  UNL1       -0.3040
     13 C           9.3340   77.7042   25.2372 C.3     1  UNL1        0.1123
     14 C           9.0950   76.4268   26.0434 C.3     1  UNL1        0.1136
     15 N           8.2074   76.7015   27.1824 N.pl3   1  UNL1       -0.2897
     16 C           8.5523   77.8206   28.0694 C.3     1  UNL1        0.1136
     17 C           8.7894   79.0932   27.2558 C.3     1  UNL1        0.1123
     18 C           7.2068   75.7488   27.5955 C.ar    1  UNL1        0.1318
     19 C           6.9293   74.6036   26.8313 C.ar    1  UNL1        0.0343
     20 C           5.9553   73.7037   27.2663 C.ar    1  UNL1        0.0083
     21 C           5.2458   73.9479   28.4516 C.ar    1  UNL1        0.0906
     22 C           5.5771   75.0855   29.2038 C.ar    1  UNL1        0.1041
     23 N           6.5305   75.9470   28.7608 N.ar    1  UNL1       -0.2292
     24 C           4.2281   72.9582   28.9584 C.3     1  UNL1        0.4200
     25 F           4.1341   73.0184   30.3380 F       1  UNL1       -0.1658
     26 F           2.9941   73.2526   28.4092 F       1  UNL1       -0.1658
     27 F           4.5835   71.6682   28.6043 F       1  UNL1       -0.1658
     28 C          14.3097   84.9765   23.8250 C.3     1  UNL1        0.1536
     29 C          14.5239   84.7817   22.3429 C.2     1  UNL1        0.2443
     30 O          15.2681   83.8407   21.9540 O.2     1  UNL1       -0.2730
     31 N          13.9522   85.6962   21.3911 N.am    1  UNL1       -0.2825
     32 H          13.5217   86.5773   21.7512 H       1  UNL1        0.1549
     33 C          14.1018   85.5642   19.9680 C.ar    1  UNL1        0.0535
     34 C          13.8346   86.6641   19.1416 C.ar    1  UNL1        0.0353
     35 C          13.9661   86.5361   17.7569 C.ar    1  UNL1        0.1002
     36 N          14.3337   85.3453   17.2142 N.ar    1  UNL1       -0.2422
     37 C          14.5791   84.2555   17.9887 C.ar    1  UNL1        0.1002
     38 C          14.4616   84.3413   19.3783 C.ar    1  UNL1        0.0353
     39 C          13.8268   86.4022   24.1492 C.3     1  UNL1        0.0592
     40 C          14.8513   87.1679   24.9392 C.ar    1  UNL1        0.0254
     41 C          14.8430   87.3928   26.3115 C.ar    1  UNL1        0.1966
     42 F          13.8576   87.0113   27.1609 F       1  UNL1       -0.1855
     43 N          15.9730   88.0176   26.7103 N.ar    1  UNL1       -0.3307
     44 C          16.7078   88.1820   25.5960 C.ar    1  UNL1        0.0580
     45 C          17.9759   88.7534   25.4992 C.ar    1  UNL1        0.0170
     46 C          18.5818   88.7999   24.2305 C.ar    1  UNL1        0.0015
     47 C          17.9148   88.2804   23.0992 C.ar    1  UNL1        0.0001
     48 C          16.6355   87.7102   23.2256 C.ar    1  UNL1        0.0012
     49 C          16.0591   87.6754   24.4961 C.ar    1  UNL1        0.0153
     50 H          16.2288   88.2928   27.6845 H       1  UNL1        0.1680
@<TRIPOS>BOND
     1     1     2    2
     2     2     3   am
     3     3    28    1
     4    28    39    1
     5    39    40    1
     6    40    41   ar
     7    41    42    1
     8    41    43   ar
     9    43    44   ar
    10    44    45   ar
    11    45    46   ar
    12    46    47   ar
    13    47    48   ar
    14    48    49   ar
    15    28    29    1
    16    29    30    2
    17    29    31   am
    18    31    33    1
    19    33    34   ar
    20    34    35   ar
    21    35    36   ar
    22    36    37   ar
    23    37    38   ar
    24     2     5    1
    25     5     6   ar
    26     6     7   ar
    27     7     8   ar
    28     8    12    1
    29    12    13    1
    30    13    14    1
    31    14    15    1
    32    15    18    1
    33    18    19   ar
    34    19    20   ar
    35    20    21   ar
    36    21    24    1
    37    24    25    1
    38    24    26    1
    39    24    27    1
    40    21    22   ar
    41    22    23   ar
    42    15    16    1
    43    16    17    1
    44     8     9   ar
    45     9    10   ar
    46    10    11    1
    47    49    40   ar
    48    38    33   ar
    49    10     5   ar
    50    49    44   ar
    51    17    12    1
    52    23    18   ar
    53     3     4    1
    54    43    50    1
    55    31    32    1
@<TRIPOS>MOLECULE
*****
 50 55 0 0 0
SMALL
GASTEIGER

@<TRIPOS>ATOM
      1 O          11.1292   75.9963   24.4427 O.2     1  UNL1       -0.2701
      2 C          10.0136   76.3719   24.8966 C.2     1  UNL1        0.2483
      3 N           9.9471   77.0156   26.1803 N.am    1  UNL1       -0.2945
      4 H           9.0177   77.0825   26.6526 H       1  UNL1        0.1501
      5 C           8.7835   76.1361   24.1018 C.ar    1  UNL1        0.0808
      6 C           7.7038   75.4264   24.6573 C.ar    1  UNL1        0.0080
      7 C           6.5398   75.2078   23.9162 C.ar    1  UNL1        0.0148
      8 C           6.4277   75.6991   22.6067 C.ar    1  UNL1        0.0502
      9 C           7.4995   76.4119   22.0505 C.ar    1  UNL1        0.0443
     10 C           8.6666   76.6335   22.7884 C.ar    1  UNL1        0.1457
     11 F           9.6891   77.3096   22.2051 F       1  UNL1       -0.2040
     12 N           5.2314   75.4741   21.8370 N.pl3   1  UNL1       -0.3040
     13 C           5.1981   74.4130   20.8246 C.3     1  UNL1        0.1123
     14 C           3.8346   73.7202   20.8312 C.3     1  UNL1        0.1136
     15 N           2.7557   74.7183   20.8170 N.pl3   1  UNL1       -0.2897
     16 C           2.7990   75.7930   21.8177 C.3     1  UNL1        0.1136
     17 C           4.1647   76.4802   21.8043 C.3     1  UNL1        0.1123
     18 C           1.5493   74.5024   20.0570 C.ar    1  UNL1        0.1318
     19 C           0.9398   75.5467   19.3424 C.ar    1  UNL1        0.0343
     20 C          -0.2257   75.2970   18.6164 C.ar    1  UNL1        0.0083
     21 C          -0.7949   74.0149   18.6120 C.ar    1  UNL1        0.0906
     22 C          -0.1363   72.9913   19.3105 C.ar    1  UNL1        0.1041
     23 N           0.9985   73.2579   20.0093 N.ar    1  UNL1       -0.2292
     24 C          -2.0243   73.7205   17.7909 C.3     1  UNL1        0.4200
     25 F          -2.4408   72.4151   17.9871 F       1  UNL1       -0.1658
     26 F          -3.0399   74.5792   18.1678 F       1  UNL1       -0.1658
     27 F          -1.7637   73.8940   16.4426 F       1  UNL1       -0.1658
     28 C          11.1485   77.3522   26.9500 C.3     1  UNL1        0.1536
     29 C          12.1225   78.1149   26.0838 C.2     1  UNL1        0.2443
     30 O          11.8109   79.2722   25.6915 O.2     1  UNL1       -0.2730
     31 N          13.3518   77.5073   25.6495 N.am    1  UNL1       -0.2825
     32 H          13.4811   76.4839   25.8145 H       1  UNL1        0.1549
     33 C          14.3304   78.1774   24.8382 C.ar    1  UNL1        0.0535
     34 C          14.8442   77.5333   23.7046 C.ar    1  UNL1        0.0353
     35 C          15.8054   78.1760   22.9209 C.ar    1  UNL1        0.1002
     36 N          16.2522   79.4120   23.2674 N.ar    1  UNL1       -0.2422
     37 C          15.7879   80.0529   24.3726 C.ar    1  UNL1        0.1002
     38 C          14.8244   79.4465   25.1825 C.ar    1  UNL1        0.0353
     39 C          10.7586   78.1493   28.2083 C.3     1  UNL1        0.0592
     40 C           9.4595   77.6658   28.7900 C.ar    1  UNL1        0.0254
     41 C           8.2911   78.4049   28.9402 C.ar    1  UNL1        0.1966
     42 F           8.1548   79.7213   28.6459 F       1  UNL1       -0.1855
     43 N           7.2786   77.6309   29.3896 N.ar    1  UNL1       -0.3307
     44 C           7.7960   76.3960   29.5159 C.ar    1  UNL1        0.0580
     45 C           7.1296   75.2402   29.9209 C.ar    1  UNL1        0.0170
     46 C           7.8589   74.0378   29.9557 C.ar    1  UNL1        0.0015
     47 C           9.2227   74.0170   29.5892 C.ar    1  UNL1        0.0001
     48 C           9.8703   75.1982   29.1854 C.ar    1  UNL1        0.0012
     49 C           9.1222   76.3760   29.1581 C.ar    1  UNL1        0.0153
     50 H           6.2952   77.9282   29.5764 H       1  UNL1        0.1680
@<TRIPOS>BOND
     1     1     2    2
     2     2     3   am
     3     3    28    1
     4    28    39    1
     5    39    40    1
     6    40    41   ar
     7    41    42    1
     8    41    43   ar
     9    43    44   ar
    10    44    45   ar
    11    45    46   ar
    12    46    47   ar
    13    47    48   ar
    14    48    49   ar
    15    28    29    1
    16    29    30    2
    17    29    31   am
    18    31    33    1
    19    33    34   ar
    20    34    35   ar
    21    35    36   ar
    22    36    37   ar
    23    37    38   ar
    24     2     5    1
    25     5     6   ar
    26     6     7   ar
    27     7     8   ar
    28     8    12    1
    29    12    13    1
    30    13    14    1
    31    14    15    1
    32    15    18    1
    33    18    19   ar
    34    19    20   ar
    35    20    21   ar
    36    21    24    1
    37    24    25    1
    38    24    26    1
    39    24    27    1
    40    21    22   ar
    41    22    23   ar
    42    15    16    1
    43    16    17    1
    44     8     9   ar
    45     9    10   ar
    46    10    11    1
    47    49    40   ar
    48    38    33   ar
    49    10     5   ar
    50    49    44   ar
    51    17    12    1
    52    23    18   ar
    53     3     4    1
    54    43    50    1
    55    31    32    1
@<TRIPOS>MOLECULE
*****
 50 55 0 0 0
SMALL
GASTEIGER

@<TRIPOS>ATOM
      1 O          11.3037   75.6961   24.2168 O.2     1  UNL1       -0.2701
      2 C          10.1947   75.9667   24.7540 C.2     1  UNL1        0.2483
      3 N          10.1581   76.4513   26.1069 N.am    1  UNL1       -0.2945
      4 H           9.2478   76.4216   26.6185 H       1  UNL1        0.1501
      5 C           8.9420   75.7728   23.9836 C.ar    1  UNL1        0.0808
      6 C           8.0471   76.8424   23.8016 C.ar    1  UNL1        0.0080
      7 C           6.8694   76.6678   23.0704 C.ar    1  UNL1        0.0148
      8 C           6.5642   75.4225   22.5006 C.ar    1  UNL1        0.0502
      9 C           7.4560   74.3545   22.6750 C.ar    1  UNL1        0.0443
     10 C           8.6361   74.5244   23.4057 C.ar    1  UNL1        0.1457
     11 F           9.4617   73.4593   23.5690 F       1  UNL1       -0.2040
     12 N           5.3501   75.2359   21.7487 N.pl3   1  UNL1       -0.3040
     13 C           5.2466   74.1380   20.7812 C.3     1  UNL1        0.1123
     14 C           3.8455   73.5264   20.8255 C.3     1  UNL1        0.1136
     15 N           2.8259   74.5840   20.7770 N.pl3   1  UNL1       -0.2897
     16 C           2.9401   75.6944   21.7321 C.3     1  UNL1        0.1136
     17 C           4.3430   76.3000   21.6814 C.3     1  UNL1        0.1123
     18 C           1.6024   74.4076   20.0345 C.ar    1  UNL1        0.1318
     19 C           1.0424   75.4584   19.2896 C.ar    1  UNL1        0.0343
     20 C          -0.1418   75.2472   18.5819 C.ar    1  UNL1        0.0083
     21 C          -0.7786   73.9980   18.6256 C.ar    1  UNL1        0.0906
     22 C          -0.1685   72.9646   19.3534 C.ar    1  UNL1        0.1041
     23 N           0.9857   73.1934   20.0336 N.ar    1  UNL1       -0.2292
     24 C          -2.0299   73.7423   17.8249 C.3     1  UNL1        0.4200
     25 F          -1.8096   73.9945   16.4819 F       1  UNL1       -0.1658
     26 F          -2.4073   72.4215   17.9796 F       1  UNL1       -0.1658
     27 F          -3.0604   74.5597   18.2558 F       1  UNL1       -0.1658
     28 C          11.3773   76.7470   26.8654 C.3     1  UNL1        0.1536
     29 C          12.2631   77.6834   26.0787 C.2     1  UNL1        0.2443
     30 O          11.8412   78.8423   25.8149 O.2     1  UNL1       -0.2730
     31 N          13.5348   77.2409   25.5728 N.am    1  UNL1       -0.2825
     32 H          13.7591   76.2220   25.6264 H       1  UNL1        0.1549
     33 C          14.4347   78.0802   24.8308 C.ar    1  UNL1        0.0535
     34 C          14.6320   79.4073   25.2357 C.ar    1  UNL1        0.0353
     35 C          15.4957   80.2303   24.5092 C.ar    1  UNL1        0.1002
     36 N          16.1267   79.7504   23.4051 N.ar    1  UNL1       -0.2422
     37 C          15.9391   78.4743   22.9760 C.ar    1  UNL1        0.1002
     38 C          15.0854   77.6173   23.6753 C.ar    1  UNL1        0.0353
     39 C          11.0095   77.3310   28.2418 C.3     1  UNL1        0.0592
     40 C           9.6578   76.8596   28.7005 C.ar    1  UNL1        0.0254
     41 C           9.3524   75.6159   29.2426 C.ar    1  UNL1        0.1966
     42 F          10.2249   74.5875   29.3820 F       1  UNL1       -0.1855
     43 N           8.0663   75.5658   29.6546 N.ar    1  UNL1       -0.3307
     44 C           7.5531   76.7795   29.3864 C.ar    1  UNL1        0.0580
     45 C           6.2611   77.2274   29.6588 C.ar    1  UNL1        0.0170
     46 C           5.9391   78.5540   29.3192 C.ar    1  UNL1        0.0015
     47 C           6.9042   79.3944   28.7217 C.ar    1  UNL1        0.0001
     48 C           8.1999   78.9161   28.4573 C.ar    1  UNL1        0.0012
     49 C           8.4925   77.5970   28.8064 C.ar    1  UNL1        0.0153
     50 H           7.5823   74.7589   30.1074 H       1  UNL1        0.1680
@<TRIPOS>BOND
     1     1     2    2
     2     2     3   am
     3     3    28    1
     4    28    39    1
     5    39    40    1
     6    40    41   ar
     7    41    42    1
     8    41    43   ar
     9    43    44   ar
    10    44    45   ar
    11    45    46   ar
    12    46    47   ar
    13    47    48   ar
    14    48    49   ar
    15    28    29    1
    16    29    30    2
    17    29    31   am
    18    31    33    1
    19    33    34   ar
    20    34    35   ar
    21    35    36   ar
    22    36    37   ar
    23    37    38   ar
    24     2     5    1
    25     5     6   ar
    26     6     7   ar
    27     7     8   ar
    28     8    12    1
    29    12    13    1
    30    13    14    1
    31    14    15    1
    32    15    18    1
    33    18    19   ar
    34    19    20   ar
    35    20    21   ar
    36    21    24    1
    37    24    25    1
    38    24    26    1
    39    24    27    1
    40    21    22   ar
    41    22    23   ar
    42    15    16    1
    43    16    17    1
    44     8     9   ar
    45     9    10   ar
    46    10    11    1
    47    49    40   ar
    48    38    33   ar
    49    10     5   ar
    50    49    44   ar
    51    17    12    1
    52    23    18   ar
    53     3     4    1
    54    43    50    1
    55    31    32    1
@<TRIPOS>MOLECULE
*****
 50 55 0 0 0
SMALL
GASTEIGER

@<TRIPOS>ATOM
      1 O           9.3581   75.0948   27.6578 O.2     1  UNL1       -0.2701
      2 C           9.0369   75.6723   26.5831 C.2     1  UNL1        0.2483
      3 N           7.9605   75.1484   25.7872 N.am    1  UNL1       -0.2945
      4 H           7.8773   75.4678   24.7960 H       1  UNL1        0.1501
      5 C           9.7811   76.8806   26.1512 C.ar    1  UNL1        0.0808
      6 C          11.1662   76.9796   26.3748 C.ar    1  UNL1        0.0080
      7 C          11.8738   78.1118   25.9634 C.ar    1  UNL1        0.0148
      8 C          11.2136   79.1662   25.3145 C.ar    1  UNL1        0.0502
      9 C           9.8337   79.0697   25.0847 C.ar    1  UNL1        0.0443
     10 C           9.1210   77.9384   25.4944 C.ar    1  UNL1        0.1457
     11 F           7.7826   77.8942   25.2720 F       1  UNL1       -0.2040
     12 N          11.9374   80.3371   24.8911 N.pl3   1  UNL1       -0.3040
     13 C          11.2380   81.4199   24.1909 C.3     1  UNL1        0.1123
     14 C          11.7729   82.7771   24.6502 C.3     1  UNL1        0.1136
     15 N          13.2426   82.7800   24.6271 N.pl3   1  UNL1       -0.2897
     16 C          13.9438   81.6850   25.3107 C.3     1  UNL1        0.1136
     17 C          13.4034   80.3325   24.8460 C.3     1  UNL1        0.1123
     18 C          13.9801   83.9479   24.2128 C.ar    1  UNL1        0.1318
     19 C          14.0436   85.0956   25.0198 C.ar    1  UNL1        0.0343
     20 C          14.7702   86.2050   24.5849 C.ar    1  UNL1        0.0083
     21 C          15.4210   86.1812   23.3424 C.ar    1  UNL1        0.0906
     22 C          15.3618   85.0031   22.5819 C.ar    1  UNL1        0.1041
     23 N          14.6491   83.9347   23.0267 N.ar    1  UNL1       -0.2292
     24 C          16.2509   87.3533   22.8845 C.3     1  UNL1        0.4200
     25 F          15.6235   88.5469   23.1971 F       1  UNL1       -0.1658
     26 F          17.4815   87.3129   23.5127 F       1  UNL1       -0.1658
     27 F          16.4420   87.3103   21.5143 F       1  UNL1       -0.1658
     28 C           7.1404   74.0162   26.2284 C.3     1  UNL1        0.1536
     29 C           6.4366   74.3578   27.5200 C.2     1  UNL1        0.2443
     30 O           5.8941   73.4308   28.1810 O.2     1  UNL1       -0.2730
     31 N           6.3195   75.7240   27.9544 N.am    1  UNL1       -0.2825
     32 H           6.5914   76.4789   27.2855 H       1  UNL1        0.1549
     33 C           5.6777   76.1207   29.1773 C.ar    1  UNL1        0.0535
     34 C           6.3820   76.0329   30.3857 C.ar    1  UNL1        0.0353
     35 C           5.7571   76.4050   31.5783 C.ar    1  UNL1        0.1002
     36 N           4.4670   76.8326   31.5674 N.ar    1  UNL1       -0.2422
     37 C           3.7518   76.9086   30.4139 C.ar    1  UNL1        0.1002
     38 C           4.3398   76.5482   29.1987 C.ar    1  UNL1        0.0353
     39 C           6.1438   73.6280   25.1208 C.3     1  UNL1        0.0592
     40 C           5.7430   74.8178   24.2940 C.ar    1  UNL1        0.0254
     41 C           4.7926   75.7771   24.6261 C.ar    1  UNL1        0.1966
     42 F           4.0122   75.7545   25.7345 F       1  UNL1       -0.1855
     43 N           4.7641   76.7724   23.7124 N.ar    1  UNL1       -0.3307
     44 C           5.7030   76.4556   22.8032 C.ar    1  UNL1        0.0580
     45 C           6.0713   77.1941   21.6794 C.ar    1  UNL1        0.0170
     46 C           7.1063   76.6902   20.8708 C.ar    1  UNL1        0.0015
     47 C           7.7431   75.4731   21.1992 C.ar    1  UNL1        0.0001
     48 C           7.3508   74.7481   22.3384 C.ar    1  UNL1        0.0012
     49 C           6.3230   75.2724   23.1237 C.ar    1  UNL1        0.0153
     50 H           4.1550   77.6204   23.7254 H       1  UNL1        0.1680
@<TRIPOS>BOND
     1     1     2    2
     2     2     3   am
     3     3    28    1
     4    28    39    1
     5    39    40    1
     6    40    41   ar
     7    41    42    1
     8    41    43   ar
     9    43    44   ar
    10    44    45   ar
    11    45    46   ar
    12    46    47   ar
    13    47    48   ar
    14    48    49   ar
    15    28    29    1
    16    29    30    2
    17    29    31   am
    18    31    33    1
    19    33    34   ar
    20    34    35   ar
    21    35    36   ar
    22    36    37   ar
    23    37    38   ar
    24     2     5    1
    25     5     6   ar
    26     6     7   ar
    27     7     8   ar
    28     8    12    1
    29    12    13    1
    30    13    14    1
    31    14    15    1
    32    15    18    1
    33    18    19   ar
    34    19    20   ar
    35    20    21   ar
    36    21    24    1
    37    24    25    1
    38    24    26    1
    39    24    27    1
    40    21    22   ar
    41    22    23   ar
    42    15    16    1
    43    16    17    1
    44     8     9   ar
    45     9    10   ar
    46    10    11    1
    47    49    40   ar
    48    38    33   ar
    49    10     5   ar
    50    49    44   ar
    51    17    12    1
    52    23    18   ar
    53     3     4    1
    54    43    50    1
    55    31    32    1
@<TRIPOS>MOLECULE
*****
 50 55 0 0 0
SMALL
GASTEIGER

@<TRIPOS>ATOM
      1 O          10.4944   77.2039   25.1371 O.2     1  UNL1       -0.2701
      2 C           9.3576   77.2405   25.6831 C.2     1  UNL1        0.2483
      3 N           9.2364   77.6773   27.0473 N.am    1  UNL1       -0.2945
      4 H           8.3529   77.4588   27.5601 H       1  UNL1        0.1501
      5 C           8.1615   76.8236   24.9111 C.ar    1  UNL1        0.0808
      6 C           8.1088   77.0232   23.5199 C.ar    1  UNL1        0.0080
      7 C           6.9882   76.6257   22.7863 C.ar    1  UNL1        0.0148
      8 C           5.8993   76.0147   23.4264 C.ar    1  UNL1        0.0502
      9 C           5.9496   75.8088   24.8125 C.ar    1  UNL1        0.0443
     10 C           7.0691   76.2048   25.5511 C.ar    1  UNL1        0.1457
     11 F           7.0685   76.0067   26.8941 F       1  UNL1       -0.2040
     12 N           4.7402   75.6058   22.6757 N.pl3   1  UNL1       -0.3040
     13 C           3.4322   76.2066   22.9588 C.3     1  UNL1        0.1123
     14 C           2.6602   76.4270   21.6571 C.3     1  UNL1        0.1136
     15 N           2.6943   75.2109   20.8321 N.pl3   1  UNL1       -0.2897
     16 C           4.0019   74.5969   20.5649 C.3     1  UNL1        0.1136
     17 C           4.7667   74.3800   21.8709 C.3     1  UNL1        0.1123
     18 C           1.5437   74.7941   20.0694 C.ar    1  UNL1        0.1318
     19 C           0.8237   75.7038   19.2777 C.ar    1  UNL1        0.0343
     20 C          -0.2829   75.2609   18.5519 C.ar    1  UNL1        0.0083
     21 C          -0.6845   73.9187   18.6235 C.ar    1  UNL1        0.0906
     22 C           0.0820   73.0346   19.3984 C.ar    1  UNL1        0.1041
     23 N           1.1567   73.4886   20.0957 N.ar    1  UNL1       -0.2292
     24 C          -1.8465   73.4172   17.8047 C.3     1  UNL1        0.4200
     25 F          -1.7177   73.8096   16.4836 F       1  UNL1       -0.1658
     26 F          -1.8824   72.0365   17.8633 F       1  UNL1       -0.1658
     27 F          -3.0401   73.9209   18.2918 F       1  UNL1       -0.1658
     28 C          10.3797   78.1877   27.8099 C.3     1  UNL1        0.1536
     29 C          10.0003   79.4648   28.5210 C.2     1  UNL1        0.2443
     30 O           9.5540   80.4296   27.8425 O.2     1  UNL1       -0.2730
     31 N          10.2128   79.6092   29.9363 N.am    1  UNL1       -0.2825
     32 H          10.7742   78.8779   30.4275 H       1  UNL1        0.1549
     33 C           9.8627   80.7878   30.6799 C.ar    1  UNL1        0.0535
     34 C           9.1380   80.6607   31.8727 C.ar    1  UNL1        0.0353
     35 C           8.7843   81.8049   32.5916 C.ar    1  UNL1        0.1002
     36 N           9.1263   83.0353   32.1261 N.ar    1  UNL1       -0.2422
     37 C           9.8108   83.1912   30.9621 C.ar    1  UNL1        0.1002
     38 C          10.1861   82.0727   30.2136 C.ar    1  UNL1        0.0353
     39 C          10.8753   77.1122   28.7941 C.3     1  UNL1        0.0592
     40 C           9.8508   76.0307   28.9951 C.ar    1  UNL1        0.0254
     41 C           9.9854   74.6874   28.6615 C.ar    1  UNL1        0.1966
     42 F          11.0522   74.1419   28.0273 F       1  UNL1       -0.1855
     43 N           8.9210   73.9706   29.0851 N.ar    1  UNL1       -0.3307
     44 C           8.1120   74.8524   29.6985 C.ar    1  UNL1        0.0580
     45 C           6.8974   74.5852   30.3289 C.ar    1  UNL1        0.0170
     46 C           6.2218   75.6583   30.9380 C.ar    1  UNL1        0.0015
     47 C           6.7685   76.9601   30.9040 C.ar    1  UNL1        0.0001
     48 C           7.9952   77.2014   30.2603 C.ar    1  UNL1        0.0012
     49 C           8.6447   76.1183   29.6663 C.ar    1  UNL1        0.0153
     50 H           8.7722   72.9427   28.9770 H       1  UNL1        0.1680
@<TRIPOS>BOND
     1     1     2    2
     2     2     3   am
     3     3    28    1
     4    28    39    1
     5    39    40    1
     6    40    41   ar
     7    41    42    1
     8    41    43   ar
     9    43    44   ar
    10    44    45   ar
    11    45    46   ar
    12    46    47   ar
    13    47    48   ar
    14    48    49   ar
    15    28    29    1
    16    29    30    2
    17    29    31   am
    18    31    33    1
    19    33    34   ar
    20    34    35   ar
    21    35    36   ar
    22    36    37   ar
    23    37    38   ar
    24     2     5    1
    25     5     6   ar
    26     6     7   ar
    27     7     8   ar
    28     8    12    1
    29    12    13    1
    30    13    14    1
    31    14    15    1
    32    15    18    1
    33    18    19   ar
    34    19    20   ar
    35    20    21   ar
    36    21    24    1
    37    24    25    1
    38    24    26    1
    39    24    27    1
    40    21    22   ar
    41    22    23   ar
    42    15    16    1
    43    16    17    1
    44     8     9   ar
    45     9    10   ar
    46    10    11    1
    47    49    40   ar
    48    38    33   ar
    49    10     5   ar
    50    49    44   ar
    51    17    12    1
    52    23    18   ar
    53     3     4    1
    54    43    50    1
    55    31    32    1
@<TRIPOS>MOLECULE
*****
 50 55 0 0 0
SMALL
GASTEIGER

@<TRIPOS>ATOM
      1 O           9.5325   74.8663   26.9201 O.2     1  UNL1       -0.2701
      2 C           9.0770   75.6651   26.0564 C.2     1  UNL1        0.2483
      3 N           7.8371   75.3659   25.3932 N.am    1  UNL1       -0.2945
      4 H           7.6080   75.8840   24.5154 H       1  UNL1        0.1501
      5 C           9.8326   76.8994   25.7310 C.ar    1  UNL1        0.0808
      6 C          10.8559   76.8725   24.7665 C.ar    1  UNL1        0.0080
      7 C          11.5659   78.0335   24.4502 C.ar    1  UNL1        0.0148
      8 C          11.2642   79.2471   25.0865 C.ar    1  UNL1        0.0502
      9 C          10.2412   79.2799   26.0450 C.ar    1  UNL1        0.0443
     10 C           9.5276   78.1206   26.3648 C.ar    1  UNL1        0.1457
     11 F           8.5594   78.1910   27.3138 F       1  UNL1       -0.2040
     12 N          11.9949   80.4463   24.7668 N.pl3   1  UNL1       -0.3040
     13 C          11.3419   81.5275   24.0209 C.3     1  UNL1        0.1123
     14 C          11.7877   82.8864   24.5631 C.3     1  UNL1        0.1136
     15 N          13.2511   82.9277   24.6941 N.pl3   1  UNL1       -0.2897
     16 C          13.9079   81.8347   25.4235 C.3     1  UNL1        0.1136
     17 C          13.4571   80.4804   24.8754 C.3     1  UNL1        0.1123
     18 C          13.9946   84.1239   24.3848 C.ar    1  UNL1        0.1318
     19 C          14.1003   85.1771   25.3080 C.ar    1  UNL1        0.0343
     20 C          14.8313   86.3176   24.9723 C.ar    1  UNL1        0.0083
     21 C          15.4446   86.4196   23.7148 C.ar    1  UNL1        0.0906
     22 C          15.3441   85.3312   22.8345 C.ar    1  UNL1        0.1041
     23 N          14.6279   84.2302   23.1839 N.ar    1  UNL1       -0.2292
     24 C          16.2791   87.6237   23.3598 C.3     1  UNL1        0.4200
     25 F          16.1080   88.6289   24.2957 F       1  UNL1       -0.1658
     26 F          17.6123   87.2600   23.3274 F       1  UNL1       -0.1658
     27 F          15.9165   88.1202   22.1196 F       1  UNL1       -0.1658
     28 C           7.0151   74.2077   25.7564 C.3     1  UNL1        0.1536
     29 C           6.4664   74.3787   27.1529 C.2     1  UNL1        0.2443
     30 O           6.1886   73.3502   27.8278 O.2     1  UNL1       -0.2730
     31 N           6.1932   75.6888   27.6801 N.am    1  UNL1       -0.2825
     32 H           6.2342   76.5019   27.0255 H       1  UNL1        0.1549
     33 C           5.6856   75.9271   29.0031 C.ar    1  UNL1        0.0535
     34 C           4.3959   76.4519   29.1628 C.ar    1  UNL1        0.0353
     35 C           3.9040   76.6973   30.4468 C.ar    1  UNL1        0.1002
     36 N           4.6798   76.4450   31.5340 N.ar    1  UNL1       -0.2422
     37 C           5.9419   75.9555   31.4098 C.ar    1  UNL1        0.1002
     38 C           6.4715   75.6937   30.1436 C.ar    1  UNL1        0.0353
     39 C           5.8915   74.0171   24.7211 C.3     1  UNL1        0.0592
     40 C           6.4393   73.8764   23.3284 C.ar    1  UNL1        0.0254
     41 C           7.6985   73.4030   22.9756 C.ar    1  UNL1        0.1966
     42 F           8.6753   73.0528   23.8480 F       1  UNL1       -0.1855
     43 N           7.8219   73.2981   21.6340 N.ar    1  UNL1       -0.3307
     44 C           6.6394   73.6932   21.1300 C.ar    1  UNL1        0.0580
     45 C           6.2660   73.7320   19.7872 C.ar    1  UNL1        0.0170
     46 C           4.9599   74.1539   19.4791 C.ar    1  UNL1        0.0015
     47 C           4.0658   74.5238   20.5079 C.ar    1  UNL1        0.0001
     48 C           4.4692   74.4759   21.8541 C.ar    1  UNL1        0.0012
     49 C           5.7696   74.0516   22.1311 C.ar    1  UNL1        0.0153
     50 H           8.6552   72.9586   21.1041 H       1  UNL1        0.1680
@<TRIPOS>BOND
     1     1     2    2
     2     2     3   am
     3     3    28    1
     4    28    39    1
     5    39    40    1
     6    40    41   ar
     7    41    42    1
     8    41    43   ar
     9    43    44   ar
    10    44    45   ar
    11    45    46   ar
    12    46    47   ar
    13    47    48   ar
    14    48    49   ar
    15    28    29    1
    16    29    30    2
    17    29    31   am
    18    31    33    1
    19    33    34   ar
    20    34    35   ar
    21    35    36   ar
    22    36    37   ar
    23    37    38   ar
    24     2     5    1
    25     5     6   ar
    26     6     7   ar
    27     7     8   ar
    28     8    12    1
    29    12    13    1
    30    13    14    1
    31    14    15    1
    32    15    18    1
    33    18    19   ar
    34    19    20   ar
    35    20    21   ar
    36    21    24    1
    37    24    25    1
    38    24    26    1
    39    24    27    1
    40    21    22   ar
    41    22    23   ar
    42    15    16    1
    43    16    17    1
    44     8     9   ar
    45     9    10   ar
    46    10    11    1
    47    49    40   ar
    48    38    33   ar
    49    10     5   ar
    50    49    44   ar
    51    17    12    1
    52    23    18   ar
    53     3     4    1
    54    43    50    1
    55    31    32    1
