@<TRIPOS>MOLECULE
*****
 36 41 0 0 0
SMALL
GASTEIGER

@<TRIPOS>ATOM
      1 C          48.4634   13.7498  -21.6866 C.ar    1  UNL1        0.1095
      2 N          49.1278   13.9118  -20.5145 N.ar    1  UNL1       -0.1677
      3 N          49.1106   12.7535  -19.8651 N.ar    1  UNL1       -0.2319
      4 C          49.7938   12.5109  -18.6017 C.3     1  UNL1        0.1554
      5 C          48.4693   11.8517  -20.6237 C.ar    1  UNL1        0.1654
      6 N          48.2953   10.5345  -20.3587 N.ar    1  UNL1       -0.2050
      7 C          47.6251    9.7770  -21.2767 C.ar    1  UNL1        0.2014
      8 N          47.1255   10.3482  -22.4180 N.ar    1  UNL1       -0.2089
      9 C          47.2971   11.6768  -22.6898 C.ar    1  UNL1        0.1380
     10 C          48.0222   12.4348  -21.7684 C.ar    1  UNL1        0.0865
     11 N          46.6587   12.2633  -23.8286 N.pl3   1  UNL1       -0.2891
     12 C          45.2625   12.6674  -23.8145 C.3     1  UNL1        0.1228
     13 C          44.8413   12.7291  -25.2836 C.3     1  UNL1        0.1464
     14 O          44.1516   11.5545  -25.6315 O.3     1  UNL1       -0.3813
     15 C          46.1624   12.8259  -26.0757 C.3     1  UNL1        0.1062
     16 C          47.1691   12.0987  -25.1756 C.3     1  UNL1        0.1106
     17 H          43.2209   11.6649  -25.3042 H       1  UNL1        0.2105
     18 N          46.0730   12.2368  -27.4395 N.3     1  UNL1       -0.2704
     19 C          46.4173   13.2384  -28.4742 C.3     1  UNL1        0.0722
     20 C          46.0576   12.7118  -29.8756 C.3     1  UNL1        0.0174
     21 C          46.1153   11.1791  -29.9575 C.3     1  UNL1        0.0029
     22 C          47.2031   10.6278  -29.0370 C.3     1  UNL1        0.0174
     23 C          46.9667   11.0534  -27.5702 C.3     1  UNL1        0.0722
     24 C          49.2281   14.9242  -23.8357 C.ar    1  UNL1        0.0809
     25 C          48.4082   14.7835  -22.7312 C.ar    1  UNL1        0.0577
     26 C          47.5519   15.8683  -22.7824 C.ar    1  UNL1        0.1231
     27 N          47.8558   16.6275  -23.8537 N.ar    1  UNL1       -0.1676
     28 N          48.8660   16.0505  -24.4864 N.ar    1  UNL1       -0.2488
     29 C          49.5010   16.6208  -25.6693 C.3     1  UNL1        0.1537
     30 C          53.7661   11.6249  -25.2443 C.3     1  UNL1        0.0310
     31 C          52.5731   12.4510  -24.8652 C.ar    1  UNL1       -0.0218
     32 C          52.5121   13.0691  -23.6069 C.ar    1  UNL1       -0.0042
     33 C          51.4177   13.8698  -23.2674 C.ar    1  UNL1        0.0012
     34 C          50.3809   14.0754  -24.1881 C.ar    1  UNL1        0.0174
     35 C          50.4460   13.4682  -25.4500 C.ar    1  UNL1        0.0012
     36 C          51.5398   12.6669  -25.7900 C.ar    1  UNL1       -0.0042
@<TRIPOS>BOND
     1    30    31    1
     2    31    32   ar
     3    32    33   ar
     4    33    34   ar
     5    34    24    1
     6    24    25   ar
     7    25     1    1
     8     1     2   ar
     9     2     3   ar
    10     3     4    1
    11     3     5   ar
    12     5     6   ar
    13     6     7   ar
    14     7     8   ar
    15     8     9   ar
    16     9    11    1
    17    11    12    1
    18    12    13    1
    19    13    14    1
    20    13    15    1
    21    15    18    1
    22    18    19    1
    23    19    20    1
    24    20    21    1
    25    21    22    1
    26    22    23    1
    27    15    16    1
    28     9    10   ar
    29    25    26   ar
    30    26    27   ar
    31    27    28   ar
    32    28    29    1
    33    34    35   ar
    34    35    36   ar
    35    36    31   ar
    36    28    24   ar
    37    10     1   ar
    38    10     5   ar
    39    16    11    1
    40    23    18    1
    41    14    17    1
@<TRIPOS>MOLECULE
*****
 36 41 0 0 0
SMALL
GASTEIGER

@<TRIPOS>ATOM
      1 C          48.6121   11.4519  -25.5422 C.ar    1  UNL1        0.1095
      2 N          48.1991   11.5690  -26.8295 N.ar    1  UNL1       -0.1677
      3 N          46.9110   11.8921  -26.8235 N.ar    1  UNL1       -0.2319
      4 C          46.1327   12.1843  -28.0196 C.3     1  UNL1        0.1554
      5 C          46.5095   12.0101  -25.5488 C.ar    1  UNL1        0.1654
      6 N          45.2876   12.3947  -25.1076 N.ar    1  UNL1       -0.2050
      7 C          45.0856   12.4708  -23.7589 C.ar    1  UNL1        0.2014
      8 N          46.0894   12.1413  -22.8857 N.ar    1  UNL1       -0.2089
      9 C          47.3236   11.7516  -23.3254 C.ar    1  UNL1        0.1380
     10 C          47.5360   11.7199  -24.7049 C.ar    1  UNL1        0.0865
     11 N          48.3074   11.2990  -22.3897 N.pl3   1  UNL1       -0.2891
     12 C          48.5989    9.8890  -22.1895 C.3     1  UNL1        0.1228
     13 C          49.2596    9.8010  -20.8128 C.3     1  UNL1        0.1464
     14 O          48.3130    9.3985  -19.8546 O.3     1  UNL1       -0.3813
     15 C          49.7483   11.2333  -20.5104 C.3     1  UNL1        0.1062
     16 C          48.7568   12.1156  -21.2792 C.3     1  UNL1        0.1106
     17 H          48.2283    8.4127  -19.9365 H       1  UNL1        0.2105
     18 N          49.7923   11.5430  -19.0553 N.3     1  UNL1       -0.2704
     19 C          50.9799   12.3622  -18.7224 C.3     1  UNL1        0.0722
     20 C          51.1689   12.4431  -17.1965 C.3     1  UNL1        0.0174
     21 C          49.8418   12.3110  -16.4345 C.3     1  UNL1        0.0029
     22 C          48.6935   12.9220  -17.2362 C.3     1  UNL1        0.0174
     23 C          48.5568   12.2517  -18.6220 C.3     1  UNL1        0.0722
     24 C          50.9758   12.2073  -24.8908 C.ar    1  UNL1        0.0809
     25 C          50.0180   11.2478  -25.1623 C.ar    1  UNL1        0.0577
     26 C          50.6842   10.0401  -25.0597 C.ar    1  UNL1        0.1231
     27 N          51.9780   10.2675  -24.7588 N.ar    1  UNL1       -0.1676
     28 N          52.1464   11.5769  -24.6552 N.ar    1  UNL1       -0.2488
     29 C          53.4383   12.1999  -24.3895 C.3     1  UNL1        0.1537
     30 C          50.3300   17.9491  -25.1707 C.3     1  UNL1        0.0310
     31 C          50.4613   16.4568  -25.0969 C.ar    1  UNL1       -0.0218
     32 C          50.4890   15.6905  -26.2722 C.ar    1  UNL1       -0.0042
     33 C          50.6492   14.3035  -26.2055 C.ar    1  UNL1        0.0012
     34 C          50.8005   13.6693  -24.9645 C.ar    1  UNL1        0.0174
     35 C          50.7850   14.4347  -23.7901 C.ar    1  UNL1        0.0012
     36 C          50.6243   15.8218  -23.8561 C.ar    1  UNL1       -0.0042
@<TRIPOS>BOND
     1    30    31    1
     2    31    32   ar
     3    32    33   ar
     4    33    34   ar
     5    34    24    1
     6    24    25   ar
     7    25     1    1
     8     1     2   ar
     9     2     3   ar
    10     3     4    1
    11     3     5   ar
    12     5     6   ar
    13     6     7   ar
    14     7     8   ar
    15     8     9   ar
    16     9    11    1
    17    11    12    1
    18    12    13    1
    19    13    14    1
    20    13    15    1
    21    15    18    1
    22    18    19    1
    23    19    20    1
    24    20    21    1
    25    21    22    1
    26    22    23    1
    27    15    16    1
    28     9    10   ar
    29    25    26   ar
    30    26    27   ar
    31    27    28   ar
    32    28    29    1
    33    34    35   ar
    34    35    36   ar
    35    36    31   ar
    36    28    24   ar
    37    10     1   ar
    38    10     5   ar
    39    16    11    1
    40    23    18    1
    41    14    17    1
@<TRIPOS>MOLECULE
*****
 36 41 0 0 0
SMALL
GASTEIGER

@<TRIPOS>ATOM
      1 C          47.9305   12.4878  -25.5325 C.ar    1  UNL1        0.1095
      2 N          47.0908   12.1824  -26.5538 N.ar    1  UNL1       -0.1677
      3 N          46.9812   13.2516  -27.3338 N.ar    1  UNL1       -0.2319
      4 C          46.2276   13.2844  -28.5799 C.3     1  UNL1        0.1554
      5 C          47.7636   14.2213  -26.8363 C.ar    1  UNL1        0.1654
      6 N          47.9915   15.4448  -27.3716 N.ar    1  UNL1       -0.2050
      7 C          48.8441   16.2855  -26.7144 C.ar    1  UNL1        0.2014
      8 N          49.4276   15.9018  -25.5351 N.ar    1  UNL1       -0.2089
      9 C          49.2003   14.6690  -24.9900 C.ar    1  UNL1        0.1380
     10 C          48.3633   13.7987  -25.6909 C.ar    1  UNL1        0.0865
     11 N          49.7284   14.3481  -23.6991 N.pl3   1  UNL1       -0.2891
     12 C          51.0915   13.8795  -23.5116 C.3     1  UNL1        0.1228
     13 C          51.0951   13.1677  -22.1578 C.3     1  UNL1        0.1464
     14 O          50.9985   11.7784  -22.3494 O.3     1  UNL1       -0.3813
     15 C          49.8424   13.6931  -21.4253 C.3     1  UNL1        0.1062
     16 C          48.8776   14.0284  -22.5695 C.3     1  UNL1        0.1106
     17 H          51.9101   11.4599  -22.5797 H       1  UNL1        0.2105
     18 N          49.2758   12.7152  -20.4570 N.3     1  UNL1       -0.2704
     19 C          49.9002   12.8661  -19.1229 C.3     1  UNL1        0.0722
     20 C          49.5180   11.6853  -18.2117 C.3     1  UNL1        0.0174
     21 C          48.1538   11.0816  -18.5773 C.3     1  UNL1        0.0029
     22 C          47.2075   12.1597  -19.1035 C.3     1  UNL1        0.0174
     23 C          47.8000   12.8720  -20.3405 C.3     1  UNL1        0.0722
     24 C          49.4792   10.6369  -24.6618 C.ar    1  UNL1        0.0809
     25 C          48.4022   11.4972  -24.5533 C.ar    1  UNL1        0.0577
     26 C          47.8170   11.1844  -23.3398 C.ar    1  UNL1        0.1231
     27 N          48.4997   10.1770  -22.7607 N.ar    1  UNL1       -0.1676
     28 N          49.5031    9.8536  -23.5622 N.ar    1  UNL1       -0.2488
     29 C          50.4301    8.7621  -23.2848 C.3     1  UNL1        0.1537
     30 C          53.0381   10.0689  -29.1867 C.3     1  UNL1        0.0310
     31 C          52.0959   10.2404  -28.0324 C.ar    1  UNL1       -0.0218
     32 C          50.9583    9.4263  -27.9214 C.ar    1  UNL1       -0.0042
     33 C          50.1001    9.5602  -26.8261 C.ar    1  UNL1        0.0012
     34 C          50.3788   10.4972  -25.8214 C.ar    1  UNL1        0.0174
     35 C          51.5213   11.3031  -25.9248 C.ar    1  UNL1        0.0012
     36 C          52.3796   11.1700  -27.0201 C.ar    1  UNL1       -0.0042
@<TRIPOS>BOND
     1    30    31    1
     2    31    32   ar
     3    32    33   ar
     4    33    34   ar
     5    34    24    1
     6    24    25   ar
     7    25     1    1
     8     1     2   ar
     9     2     3   ar
    10     3     4    1
    11     3     5   ar
    12     5     6   ar
    13     6     7   ar
    14     7     8   ar
    15     8     9   ar
    16     9    11    1
    17    11    12    1
    18    12    13    1
    19    13    14    1
    20    13    15    1
    21    15    18    1
    22    18    19    1
    23    19    20    1
    24    20    21    1
    25    21    22    1
    26    22    23    1
    27    15    16    1
    28     9    10   ar
    29    25    26   ar
    30    26    27   ar
    31    27    28   ar
    32    28    29    1
    33    34    35   ar
    34    35    36   ar
    35    36    31   ar
    36    28    24   ar
    37    10     1   ar
    38    10     5   ar
    39    16    11    1
    40    23    18    1
    41    14    17    1
@<TRIPOS>MOLECULE
*****
 36 41 0 0 0
SMALL
GASTEIGER

@<TRIPOS>ATOM
      1 C          48.6605   13.2516  -25.4936 C.ar    1  UNL1        0.1095
      2 N          48.3694   13.7697  -26.7135 N.ar    1  UNL1       -0.1677
      3 N          47.0543   13.7062  -26.8874 N.ar    1  UNL1       -0.2319
      4 C          46.3529   14.2425  -28.0459 C.3     1  UNL1        0.1554
      5 C          46.5053   13.1815  -25.7814 C.ar    1  UNL1        0.1654
      6 N          45.1861   13.0114  -25.5237 N.ar    1  UNL1       -0.2050
      7 C          44.8303   12.4730  -24.3199 C.ar    1  UNL1        0.2014
      8 N          45.7892   12.0961  -23.4160 N.ar    1  UNL1       -0.2089
      9 C          47.1214   12.2643  -23.6712 C.ar    1  UNL1        0.1380
     10 C          47.4754   12.8568  -24.8849 C.ar    1  UNL1        0.0865
     11 N          48.0964   11.7491  -22.7589 N.pl3   1  UNL1       -0.2891
     12 C          48.4533   10.3406  -22.7166 C.3     1  UNL1        0.1228
     13 C          49.0726   10.1184  -21.3358 C.3     1  UNL1        0.1464
     14 O          48.1173    9.5590  -20.4694 O.3     1  UNL1       -0.3813
     15 C          49.4768   11.5253  -20.8467 C.3     1  UNL1        0.1062
     16 C          48.4668   12.4460  -21.5427 C.3     1  UNL1        0.1106
     17 H          48.0861    8.5875  -20.6710 H       1  UNL1        0.2105
     18 N          49.4575   11.6589  -19.3645 N.3     1  UNL1       -0.2704
     19 C          50.6953   12.3064  -18.8735 C.3     1  UNL1        0.0722
     20 C          50.7933   12.1908  -17.3412 C.3     1  UNL1        0.0174
     21 C          49.4136   12.1103  -16.6710 C.3     1  UNL1        0.0029
     22 C          48.3836   12.9257  -17.4513 C.3     1  UNL1        0.0174
     23 C          48.2715   12.4374  -18.9133 C.3     1  UNL1        0.0722
     24 C          51.1039   12.5173  -25.2235 C.ar    1  UNL1        0.0809
     25 C          50.0057   13.2929  -24.9007 C.ar    1  UNL1        0.0577
     26 C          50.4257   14.0846  -23.8474 C.ar    1  UNL1        0.1231
     27 N          51.7046   13.7853  -23.5454 N.ar    1  UNL1       -0.1676
     28 N          52.1086   12.8411  -24.3815 N.ar    1  UNL1       -0.2488
     29 C          53.4306   12.2280  -24.3190 C.3     1  UNL1        0.1537
     30 C          51.2579    8.2862  -29.1652 C.3     1  UNL1        0.0310
     31 C          51.2391    9.3631  -28.1215 C.ar    1  UNL1       -0.0218
     32 C          52.2168   10.3698  -28.1266 C.ar    1  UNL1       -0.0042
     33 C          52.1778   11.3948  -27.1769 C.ar    1  UNL1        0.0012
     34 C          51.1516   11.4343  -26.2227 C.ar    1  UNL1        0.0174
     35 C          50.1674   10.4359  -26.2236 C.ar    1  UNL1        0.0012
     36 C          50.2062    9.4103  -27.1727 C.ar    1  UNL1       -0.0042
@<TRIPOS>BOND
     1    30    31    1
     2    31    32   ar
     3    32    33   ar
     4    33    34   ar
     5    34    24    1
     6    24    25   ar
     7    25     1    1
     8     1     2   ar
     9     2     3   ar
    10     3     4    1
    11     3     5   ar
    12     5     6   ar
    13     6     7   ar
    14     7     8   ar
    15     8     9   ar
    16     9    11    1
    17    11    12    1
    18    12    13    1
    19    13    14    1
    20    13    15    1
    21    15    18    1
    22    18    19    1
    23    19    20    1
    24    20    21    1
    25    21    22    1
    26    22    23    1
    27    15    16    1
    28     9    10   ar
    29    25    26   ar
    30    26    27   ar
    31    27    28   ar
    32    28    29    1
    33    34    35   ar
    34    35    36   ar
    35    36    31   ar
    36    28    24   ar
    37    10     1   ar
    38    10     5   ar
    39    16    11    1
    40    23    18    1
    41    14    17    1
@<TRIPOS>MOLECULE
*****
 36 41 0 0 0
SMALL
GASTEIGER

@<TRIPOS>ATOM
      1 C          47.8891   16.7704  -24.6585 C.ar    1  UNL1        0.1095
      2 N          47.1495   17.8525  -25.0098 N.ar    1  UNL1       -0.1677
      3 N          47.9361   18.6959  -25.6682 N.ar    1  UNL1       -0.2319
      4 C          47.4799   19.9380  -26.2772 C.3     1  UNL1        0.1554
      5 C          49.1575   18.1491  -25.7644 C.ar    1  UNL1        0.1654
      6 N          50.2306   18.6526  -26.4207 N.ar    1  UNL1       -0.2050
      7 C          51.3868   17.9255  -26.4152 C.ar    1  UNL1        0.2014
      8 N          51.4560   16.7342  -25.7411 N.ar    1  UNL1       -0.2089
      9 C          50.3769   16.2222  -25.0764 C.ar    1  UNL1        0.1380
     10 C          49.1859   16.9491  -25.1246 C.ar    1  UNL1        0.0865
     11 N          50.5191   15.0391  -24.2837 N.pl3   1  UNL1       -0.2891
     12 C          51.2866   15.0183  -23.0493 C.3     1  UNL1        0.1228
     13 C          51.6345   13.5481  -22.8107 C.3     1  UNL1        0.1464
     14 O          52.9486   13.2935  -23.2404 O.3     1  UNL1       -0.3813
     15 C          50.6292   12.7534  -23.6707 C.3     1  UNL1        0.1062
     16 C          50.3194   13.7105  -24.8285 C.3     1  UNL1        0.1106
     17 H          53.5498   13.6091  -22.5161 H       1  UNL1        0.2105
     18 N          51.1591   11.4406  -24.1297 N.3     1  UNL1       -0.2704
     19 C          50.2218   10.3438  -23.7969 C.3     1  UNL1        0.0722
     20 C          50.8916    8.9755  -24.0198 C.3     1  UNL1        0.0174
     21 C          51.9744    9.0243  -25.1081 C.3     1  UNL1        0.0029
     22 C          51.6090   10.0383  -26.1911 C.3     1  UNL1        0.0174
     23 C          51.4178   11.4516  -25.5957 C.3     1  UNL1        0.0722
     24 C          46.6868   14.5040  -24.6718 C.ar    1  UNL1        0.0809
     25 C          47.3125   15.5652  -24.0440 C.ar    1  UNL1        0.0577
     26 C          47.2274   15.2807  -22.6932 C.ar    1  UNL1        0.1231
     27 N          46.5695   14.1170  -22.5221 N.ar    1  UNL1       -0.1676
     28 N          46.2489   13.6522  -23.7200 N.ar    1  UNL1       -0.2488
     29 C          45.4791   12.4304  -23.9255 C.3     1  UNL1        0.1537
     30 C          45.6185   13.9471  -30.3297 C.3     1  UNL1        0.0310
     31 C          45.9269   14.1079  -28.8708 C.ar    1  UNL1       -0.0218
     32 C          45.5111   15.2582  -28.1828 C.ar    1  UNL1       -0.0042
     33 C          45.7653   15.3916  -26.8147 C.ar    1  UNL1        0.0012
     34 C          46.4225   14.3693  -26.1160 C.ar    1  UNL1        0.0174
     35 C          46.8280   13.2144  -26.7993 C.ar    1  UNL1        0.0012
     36 C          46.5746   13.0806  -28.1675 C.ar    1  UNL1       -0.0042
@<TRIPOS>BOND
     1    30    31    1
     2    31    32   ar
     3    32    33   ar
     4    33    34   ar
     5    34    24    1
     6    24    25   ar
     7    25     1    1
     8     1     2   ar
     9     2     3   ar
    10     3     4    1
    11     3     5   ar
    12     5     6   ar
    13     6     7   ar
    14     7     8   ar
    15     8     9   ar
    16     9    11    1
    17    11    12    1
    18    12    13    1
    19    13    14    1
    20    13    15    1
    21    15    18    1
    22    18    19    1
    23    19    20    1
    24    20    21    1
    25    21    22    1
    26    22    23    1
    27    15    16    1
    28     9    10   ar
    29    25    26   ar
    30    26    27   ar
    31    27    28   ar
    32    28    29    1
    33    34    35   ar
    34    35    36   ar
    35    36    31   ar
    36    28    24   ar
    37    10     1   ar
    38    10     5   ar
    39    16    11    1
    40    23    18    1
    41    14    17    1
@<TRIPOS>MOLECULE
*****
 36 41 0 0 0
SMALL
GASTEIGER

@<TRIPOS>ATOM
      1 C          49.2677   11.2103  -25.6012 C.ar    1  UNL1        0.1095
      2 N          49.3733   10.6155  -26.8162 N.ar    1  UNL1       -0.1677
      3 N          50.6595   10.3864  -27.0549 N.ar    1  UNL1       -0.2319
      4 C          51.1643    9.6854  -28.2277 C.3     1  UNL1        0.1554
      5 C          51.3680   10.8016  -25.9939 C.ar    1  UNL1        0.1654
      6 N          52.7045   10.6846  -25.8053 N.ar    1  UNL1       -0.2050
      7 C          53.2330   11.1575  -24.6380 C.ar    1  UNL1        0.2014
      8 N          52.4289   11.7539  -23.7019 N.ar    1  UNL1       -0.2089
      9 C          51.0801   11.8755  -23.8875 C.ar    1  UNL1        0.1380
     10 C          50.5412   11.3493  -25.0630 C.ar    1  UNL1        0.0865
     11 N          50.2909   12.6106  -22.9466 N.pl3   1  UNL1       -0.2891
     12 C          50.1974   14.0609  -22.9759 C.3     1  UNL1        0.1228
     13 C          49.7422   14.4682  -21.5736 C.3     1  UNL1        0.1464
     14 O          50.8496   14.8882  -20.8162 O.3     1  UNL1       -0.3813
     15 C          49.1329   13.1887  -20.9624 C.3     1  UNL1        0.1062
     16 C          49.9012   12.0611  -21.6628 C.3     1  UNL1        0.1106
     17 H          51.0383   15.8250  -21.0854 H       1  UNL1        0.2105
     18 N          49.2480   13.1347  -19.4796 N.3     1  UNL1       -0.2704
     19 C          47.9179   12.9740  -18.8492 C.3     1  UNL1        0.0722
     20 C          48.0112   13.1965  -17.3285 C.3     1  UNL1        0.0174
     21 C          49.3957   12.8377  -16.7684 C.3     1  UNL1        0.0029
     22 C          50.0140   11.6806  -17.5516 C.3     1  UNL1        0.0174
     23 C          50.1426   12.0240  -19.0530 C.3     1  UNL1        0.0722
     24 C          46.7895   11.8705  -25.5272 C.ar    1  UNL1        0.0809
     25 C          47.9795   11.4767  -24.9436 C.ar    1  UNL1        0.0577
     26 C          47.7171   11.4441  -23.5860 C.ar    1  UNL1        0.1231
     27 N          46.4401   11.8158  -23.3686 N.ar    1  UNL1       -0.1676
     28 N          45.8853   12.0687  -24.5442 N.ar    1  UNL1       -0.2488
     29 C          44.5171   12.5505  -24.6973 C.3     1  UNL1        0.1537
     30 C          45.8597   12.9616  -31.1315 C.3     1  UNL1        0.0310
     31 C          46.1365   12.6826  -29.6841 C.ar    1  UNL1       -0.0218
     32 C          46.1777   13.7348  -28.7565 C.ar    1  UNL1       -0.0042
     33 C          46.3983   13.4715  -27.4015 C.ar    1  UNL1        0.0012
     34 C          46.5629   12.1524  -26.9564 C.ar    1  UNL1        0.0174
     35 C          46.5102   11.0991  -27.8801 C.ar    1  UNL1        0.0012
     36 C          46.2902   11.3618  -29.2353 C.ar    1  UNL1       -0.0042
@<TRIPOS>BOND
     1    30    31    1
     2    31    32   ar
     3    32    33   ar
     4    33    34   ar
     5    34    24    1
     6    24    25   ar
     7    25     1    1
     8     1     2   ar
     9     2     3   ar
    10     3     4    1
    11     3     5   ar
    12     5     6   ar
    13     6     7   ar
    14     7     8   ar
    15     8     9   ar
    16     9    11    1
    17    11    12    1
    18    12    13    1
    19    13    14    1
    20    13    15    1
    21    15    18    1
    22    18    19    1
    23    19    20    1
    24    20    21    1
    25    21    22    1
    26    22    23    1
    27    15    16    1
    28     9    10   ar
    29    25    26   ar
    30    26    27   ar
    31    27    28   ar
    32    28    29    1
    33    34    35   ar
    34    35    36   ar
    35    36    31   ar
    36    28    24   ar
    37    10     1   ar
    38    10     5   ar
    39    16    11    1
    40    23    18    1
    41    14    17    1
@<TRIPOS>MOLECULE
*****
 36 41 0 0 0
SMALL
GASTEIGER

@<TRIPOS>ATOM
      1 C          49.8531   10.7104  -26.6701 C.ar    1  UNL1        0.1095
      2 N          50.3899    9.5333  -27.0797 N.ar    1  UNL1       -0.1677
      3 N          49.5580    8.9810  -27.9551 N.ar    1  UNL1       -0.2319
      4 C          49.8292    7.7462  -28.6787 C.3     1  UNL1        0.1554
      5 C          48.5147    9.8068  -28.1278 C.ar    1  UNL1        0.1654
      6 N          47.4797    9.6496  -28.9877 N.ar    1  UNL1       -0.2050
      7 C          46.5214   10.6221  -29.0251 C.ar    1  UNL1        0.2014
      8 N          46.6013   11.7095  -28.1946 N.ar    1  UNL1       -0.2089
      9 C          47.6427   11.8725  -27.3244 C.ar    1  UNL1        0.1380
     10 C          48.6414   10.8969  -27.3242 C.ar    1  UNL1        0.0865
     11 N          47.6314   12.9552  -26.3884 N.pl3   1  UNL1       -0.2891
     12 C          46.5497   13.1484  -25.4367 C.3     1  UNL1        0.1228
     13 C          46.6285   14.6190  -25.0234 C.3     1  UNL1        0.1464
     14 O          45.6816   15.3679  -25.7437 O.3     1  UNL1       -0.3813
     15 C          48.0576   15.0648  -25.3984 C.3     1  UNL1        0.1062
     16 C          48.4098   14.1620  -26.5872 C.3     1  UNL1        0.1106
     17 H          44.8086   15.2317  -25.2909 H       1  UNL1        0.2105
     18 N          48.1538   16.5142  -25.7226 N.3     1  UNL1       -0.2704
     19 C          47.8707   17.3450  -24.5302 C.3     1  UNL1        0.0722
     20 C          47.6987   18.8219  -24.9302 C.3     1  UNL1        0.0174
     21 C          48.4961   19.1831  -26.1923 C.3     1  UNL1        0.0029
     22 C          49.7884   18.3714  -26.2676 C.3     1  UNL1        0.0174
     23 C          49.4993   16.8532  -26.2620 C.3     1  UNL1        0.0722
     24 C          50.5124   11.7818  -24.4340 C.ar    1  UNL1        0.0809
     25 C          50.5676   11.6663  -25.8108 C.ar    1  UNL1        0.0577
     26 C          51.4001   12.6916  -26.2214 C.ar    1  UNL1        0.1231
     27 N          51.8080   13.3941  -25.1460 N.ar    1  UNL1       -0.1676
     28 N          51.2712   12.8379  -24.0707 N.ar    1  UNL1       -0.2488
     29 C          51.4501   13.3648  -22.7224 C.3     1  UNL1        0.1537
     30 C          47.2155    8.6333  -20.8730 C.3     1  UNL1        0.0310
     31 C          48.0850    9.4661  -21.7674 C.ar    1  UNL1       -0.0218
     32 C          49.3571    9.0079  -22.1430 C.ar    1  UNL1       -0.0042
     33 C          50.1526    9.7663  -23.0067 C.ar    1  UNL1        0.0012
     34 C          49.6785   10.9824  -23.5180 C.ar    1  UNL1        0.0174
     35 C          48.4031   11.4358  -23.1532 C.ar    1  UNL1        0.0012
     36 C          47.6073   10.6782  -22.2890 C.ar    1  UNL1       -0.0042
@<TRIPOS>BOND
     1    30    31    1
     2    31    32   ar
     3    32    33   ar
     4    33    34   ar
     5    34    24    1
     6    24    25   ar
     7    25     1    1
     8     1     2   ar
     9     2     3   ar
    10     3     4    1
    11     3     5   ar
    12     5     6   ar
    13     6     7   ar
    14     7     8   ar
    15     8     9   ar
    16     9    11    1
    17    11    12    1
    18    12    13    1
    19    13    14    1
    20    13    15    1
    21    15    18    1
    22    18    19    1
    23    19    20    1
    24    20    21    1
    25    21    22    1
    26    22    23    1
    27    15    16    1
    28     9    10   ar
    29    25    26   ar
    30    26    27   ar
    31    27    28   ar
    32    28    29    1
    33    34    35   ar
    34    35    36   ar
    35    36    31   ar
    36    28    24   ar
    37    10     1   ar
    38    10     5   ar
    39    16    11    1
    40    23    18    1
    41    14    17    1
@<TRIPOS>MOLECULE
*****
 36 41 0 0 0
SMALL
GASTEIGER

@<TRIPOS>ATOM
      1 C          47.5832   10.8965  -27.9719 C.ar    1  UNL1        0.1095
      2 N          47.7198    9.6727  -28.5420 N.ar    1  UNL1       -0.1677
      3 N          47.1667    9.7138  -29.7487 N.ar    1  UNL1       -0.2319
      4 C          47.1881    8.6102  -30.6991 C.3     1  UNL1        0.1554
      5 C          46.7073   10.9561  -29.9624 C.ar    1  UNL1        0.1654
      6 N          46.1386   11.4352  -31.0949 N.ar    1  UNL1       -0.2050
      7 C          45.7533   12.7454  -31.1163 C.ar    1  UNL1        0.2014
      8 N          45.9191   13.5372  -30.0100 N.ar    1  UNL1       -0.2089
      9 C          46.4912   13.0588  -28.8645 C.ar    1  UNL1        0.1380
     10 C          46.9235   11.7312  -28.8657 C.ar    1  UNL1        0.0865
     11 N          46.5375   13.8768  -27.6910 N.pl3   1  UNL1       -0.2891
     12 C          45.3945   14.0324  -26.8065 C.3     1  UNL1        0.1228
     13 C          45.6506   15.3272  -26.0337 C.3     1  UNL1        0.1464
     14 O          44.9222   16.3805  -26.6136 O.3     1  UNL1       -0.3813
     15 C          47.1656   15.5856  -26.1752 C.3     1  UNL1        0.1062
     16 C          47.5111   14.9377  -27.5217 C.3     1  UNL1        0.1106
     17 H          43.9917   16.3005  -26.2772 H       1  UNL1        0.2105
     18 N          47.5222   17.0295  -26.1181 N.3     1  UNL1       -0.2704
     19 C          47.5490   17.5150  -24.7196 C.3     1  UNL1        0.0722
     20 C          47.6422   19.0514  -24.6836 C.3     1  UNL1        0.0174
     21 C          48.3535   19.6236  -25.9188 C.3     1  UNL1        0.0029
     22 C          49.4345   18.6644  -26.4146 C.3     1  UNL1        0.0174
     23 C          48.8411   17.2802  -26.7613 C.3     1  UNL1        0.0722
     24 C          49.5380   11.1578  -26.3309 C.ar    1  UNL1        0.0809
     25 C          48.2075   11.2635  -26.6920 C.ar    1  UNL1        0.0577
     26 C          47.5676   11.7365  -25.5607 C.ar    1  UNL1        0.1231
     27 N          48.4675   11.8895  -24.5692 N.ar    1  UNL1       -0.1676
     28 N          49.6548   11.5415  -25.0416 N.ar    1  UNL1       -0.2488
     29 C          50.8672   11.5290  -24.2308 C.3     1  UNL1        0.1537
     30 C          53.8007    9.0008  -29.5928 C.3     1  UNL1        0.0310
     31 C          52.7115    9.5459  -28.7176 C.ar    1  UNL1       -0.0218
     32 C          52.8293   10.8272  -28.1573 C.ar    1  UNL1       -0.0042
     33 C          51.7979   11.3506  -27.3724 C.ar    1  UNL1        0.0012
     34 C          50.6304   10.6063  -27.1531 C.ar    1  UNL1        0.0174
     35 C          50.5061    9.3310  -27.7218 C.ar    1  UNL1        0.0012
     36 C          51.5374    8.8067  -28.5064 C.ar    1  UNL1       -0.0042
@<TRIPOS>BOND
     1    30    31    1
     2    31    32   ar
     3    32    33   ar
     4    33    34   ar
     5    34    24    1
     6    24    25   ar
     7    25     1    1
     8     1     2   ar
     9     2     3   ar
    10     3     4    1
    11     3     5   ar
    12     5     6   ar
    13     6     7   ar
    14     7     8   ar
    15     8     9   ar
    16     9    11    1
    17    11    12    1
    18    12    13    1
    19    13    14    1
    20    13    15    1
    21    15    18    1
    22    18    19    1
    23    19    20    1
    24    20    21    1
    25    21    22    1
    26    22    23    1
    27    15    16    1
    28     9    10   ar
    29    25    26   ar
    30    26    27   ar
    31    27    28   ar
    32    28    29    1
    33    34    35   ar
    34    35    36   ar
    35    36    31   ar
    36    28    24   ar
    37    10     1   ar
    38    10     5   ar
    39    16    11    1
    40    23    18    1
    41    14    17    1
@<TRIPOS>MOLECULE
*****
 36 41 0 0 0
SMALL
GASTEIGER

@<TRIPOS>ATOM
      1 C          47.8870   16.7080  -24.6646 C.ar    1  UNL1        0.1095
      2 N          47.1495   17.8256  -24.8850 N.ar    1  UNL1       -0.1677
      3 N          47.9008   18.6924  -25.5541 N.ar    1  UNL1       -0.2319
      4 C          47.4286   19.9800  -26.0449 C.3     1  UNL1        0.1554
      5 C          49.0953   18.1273  -25.7863 C.ar    1  UNL1        0.1654
      6 N          50.1232   18.6488  -26.4984 N.ar    1  UNL1       -0.2050
      7 C          51.2565   17.8987  -26.6351 C.ar    1  UNL1        0.2014
      8 N          51.3499   16.6657  -26.0440 N.ar    1  UNL1       -0.2089
      9 C          50.3164   16.1353  -25.3235 C.ar    1  UNL1        0.1380
     10 C          49.1450   16.8887  -25.2263 C.ar    1  UNL1        0.0865
     11 N          50.4925   14.9015  -24.6199 N.pl3   1  UNL1       -0.2891
     12 C          50.4230   13.6108  -25.2850 C.3     1  UNL1        0.1228
     13 C          50.1296   12.5972  -24.1778 C.3     1  UNL1        0.1464
     14 O          48.7580   12.2896  -24.1642 O.3     1  UNL1       -0.3813
     15 C          50.5294   13.3079  -22.8674 C.3     1  UNL1        0.1062
     16 C          50.3054   14.7913  -23.1865 C.3     1  UNL1        0.1106
     17 H          48.6095   11.6246  -24.8863 H       1  UNL1        0.2105
     18 N          49.7497   12.8445  -21.6874 N.3     1  UNL1       -0.2704
     19 C          50.1357   11.4676  -21.3032 C.3     1  UNL1        0.0722
     20 C          49.1446   10.8973  -20.2722 C.3     1  UNL1        0.0174
     21 C          48.4969   11.9942  -19.4141 C.3     1  UNL1        0.0029
     22 C          49.4696   13.1507  -19.1883 C.3     1  UNL1        0.0174
     23 C          49.9388   13.7600  -20.5288 C.3     1  UNL1        0.0722
     24 C          46.7096   14.4295  -24.7303 C.ar    1  UNL1        0.0809
     25 C          47.3318   15.4786  -24.0791 C.ar    1  UNL1        0.0577
     26 C          47.2674   15.1530  -22.7364 C.ar    1  UNL1        0.1231
     27 N          46.6246   13.9774  -22.5918 N.ar    1  UNL1       -0.1676
     28 N          46.2935   13.5448  -23.7989 N.ar    1  UNL1       -0.2488
     29 C          45.5346   12.3210  -24.0310 C.3     1  UNL1        0.1537
     30 C          45.5727   14.0300  -30.3881 C.3     1  UNL1        0.0310
     31 C          45.8990   14.1498  -28.9292 C.ar    1  UNL1       -0.0218
     32 C          45.5062   15.2876  -28.2079 C.ar    1  UNL1       -0.0042
     33 C          45.7770   15.3830  -26.8398 C.ar    1  UNL1        0.0012
     34 C          46.4279   14.3349  -26.1744 C.ar    1  UNL1        0.0174
     35 C          46.8104   13.1924  -26.8910 C.ar    1  UNL1        0.0012
     36 C          46.5405   13.0966  -28.2592 C.ar    1  UNL1       -0.0042
@<TRIPOS>BOND
     1    30    31    1
     2    31    32   ar
     3    32    33   ar
     4    33    34   ar
     5    34    24    1
     6    24    25   ar
     7    25     1    1
     8     1     2   ar
     9     2     3   ar
    10     3     4    1
    11     3     5   ar
    12     5     6   ar
    13     6     7   ar
    14     7     8   ar
    15     8     9   ar
    16     9    11    1
    17    11    12    1
    18    12    13    1
    19    13    14    1
    20    13    15    1
    21    15    18    1
    22    18    19    1
    23    19    20    1
    24    20    21    1
    25    21    22    1
    26    22    23    1
    27    15    16    1
    28     9    10   ar
    29    25    26   ar
    30    26    27   ar
    31    27    28   ar
    32    28    29    1
    33    34    35   ar
    34    35    36   ar
    35    36    31   ar
    36    28    24   ar
    37    10     1   ar
    38    10     5   ar
    39    16    11    1
    40    23    18    1
    41    14    17    1
