@<TRIPOS>MOLECULE
*****
 36 41 0 0 0
SMALL
GASTEIGER

@<TRIPOS>ATOM
      1 C         -22.3650   -9.5288  -10.4899 C.ar    1  UNL1        0.1379
      2 N         -22.6353   -9.8758   -9.1957 N.ar    1  UNL1       -0.2089
      3 C         -22.6148   -8.9609   -8.1774 C.ar    1  UNL1        0.2014
      4 N         -22.2841   -7.6604   -8.4232 N.ar    1  UNL1       -0.2050
      5 C         -22.0152   -7.3017   -9.7008 C.ar    1  UNL1        0.1654
      6 C         -22.0717   -8.1812  -10.7411 C.ar    1  UNL1        0.0865
      7 C         -21.7477   -7.4115  -11.8544 C.ar    1  UNL1        0.1095
      8 N         -21.4882   -6.1420  -11.4523 N.ar    1  UNL1       -0.1677
      9 N         -21.6594   -6.0844  -10.1376 N.ar    1  UNL1       -0.2319
     10 C         -21.4381   -4.8927   -9.3296 C.3     1  UNL1        0.1554
     11 C         -21.7821   -7.8030  -13.2681 C.ar    1  UNL1        0.0577
     12 C         -20.6988   -8.1409  -14.0524 C.ar    1  UNL1        0.1231
     13 N         -21.1349   -8.5746  -15.2510 N.ar    1  UNL1       -0.1676
     14 N         -22.4582   -8.5262  -15.2463 N.ar    1  UNL1       -0.2488
     15 C         -23.2680   -8.9079  -16.3985 C.3     1  UNL1        0.1537
     16 C         -22.8929   -8.0906  -14.0417 C.ar    1  UNL1        0.0809
     17 C         -24.3082   -7.9415  -13.6333 C.ar    1  UNL1        0.0174
     18 C         -25.2569   -8.9163  -13.9797 C.ar    1  UNL1        0.0012
     19 C         -26.5888   -8.7813  -13.5771 C.ar    1  UNL1       -0.0042
     20 C         -26.9924   -7.6663  -12.8280 C.ar    1  UNL1       -0.0218
     21 C         -28.4122   -7.5433  -12.3606 C.3     1  UNL1        0.0310
     22 C         -26.0406   -6.7052  -12.4574 C.ar    1  UNL1       -0.0042
     23 C         -24.7092   -6.8398  -12.8603 C.ar    1  UNL1        0.0012
     24 C         -23.3345  -11.0556  -12.3243 C.3     1  UNL1        0.0887
     25 C         -22.7191  -12.2262  -13.1150 C.3     1  UNL1        0.0773
     26 C         -21.2074  -11.9562  -13.0851 C.3     1  UNL1        0.0391
     27 C         -20.9912  -11.2529  -11.7524 C.3     1  UNL1        0.0936
     28 N         -22.2403  -10.5524  -11.4922 N.pl3   1  UNL1       -0.2933
     29 N         -23.3554  -12.3813  -14.4529 N.3     1  UNL1       -0.2724
     30 C         -22.6440  -13.1429  -15.5046 C.3     1  UNL1        0.0721
     31 C         -23.0070  -14.6429  -15.5222 C.3     1  UNL1        0.0174
     32 C         -24.5198  -14.8575  -15.4996 C.3     1  UNL1        0.0029
     33 C         -25.1472  -14.1018  -14.3299 C.3     1  UNL1        0.0174
     34 C         -24.8142  -12.6128  -14.4358 C.3     1  UNL1        0.0721
     35 C         -25.2216  -10.3301  -10.6888 C.3     1  UNL1        0.0018
     36 C         -24.5923  -11.4589  -11.5159 C.3     1  UNL1        0.0211
@<TRIPOS>BOND
     1    35    36    1
     2    36    24    1
     3    24    25    1
     4    25    29    1
     5    29    30    1
     6    30    31    1
     7    31    32    1
     8    32    33    1
     9    33    34    1
    10    25    26    1
    11    26    27    1
    12    27    28    1
    13    28     1    1
    14     1     2   ar
    15     2     3   ar
    16     3     4   ar
    17     4     5   ar
    18     5     6   ar
    19     6     7   ar
    20     7    11    1
    21    11    12   ar
    22    12    13   ar
    23    13    14   ar
    24    14    15    1
    25    14    16   ar
    26    16    17    1
    27    17    18   ar
    28    18    19   ar
    29    19    20   ar
    30    20    21    1
    31    20    22   ar
    32    22    23   ar
    33     7     8   ar
    34     8     9   ar
    35     9    10    1
    36    28    24    1
    37     6     1   ar
    38    16    11   ar
    39    23    17   ar
    40    34    29    1
    41     9     5   ar
@<TRIPOS>MOLECULE
*****
 36 41 0 0 0
SMALL
GASTEIGER

@<TRIPOS>ATOM
      1 C         -26.2606   -8.3842  -13.1586 C.ar    1  UNL1        0.1379
      2 N         -27.5383   -8.6969  -12.7868 N.ar    1  UNL1       -0.2089
      3 C         -28.6115   -7.9301  -13.1538 C.ar    1  UNL1        0.2014
      4 N         -28.4304   -6.7925  -13.8846 N.ar    1  UNL1       -0.2050
      5 C         -27.1703   -6.4708  -14.2615 C.ar    1  UNL1        0.1654
      6 C         -26.0883   -7.2392  -13.9488 C.ar    1  UNL1        0.0865
      7 C         -25.0165   -6.5691  -14.5309 C.ar    1  UNL1        0.1095
      8 N         -25.4746   -5.4414  -15.1303 N.ar    1  UNL1       -0.1677
      9 N         -26.7903   -5.3936  -14.9647 N.ar    1  UNL1       -0.2319
     10 C         -27.6411   -4.3097  -15.4370 C.3     1  UNL1        0.1554
     11 C         -23.6198   -7.0077  -14.6309 C.ar    1  UNL1        0.0577
     12 C         -22.7304   -7.1582  -13.5872 C.ar    1  UNL1        0.1231
     13 N         -21.5906   -7.7078  -14.0494 N.ar    1  UNL1       -0.1676
     14 N         -21.7340   -7.9137  -15.3496 N.ar    1  UNL1       -0.2488
     15 C         -20.6789   -8.4822  -16.1818 C.3     1  UNL1        0.1537
     16 C         -22.9715   -7.5287  -15.7369 C.ar    1  UNL1        0.0809
     17 C         -23.5247   -7.6396  -17.1058 C.ar    1  UNL1        0.0174
     18 C         -24.0530   -6.5128  -17.7549 C.ar    1  UNL1        0.0012
     19 C         -24.5582   -6.6172  -19.0542 C.ar    1  UNL1       -0.0042
     20 C         -24.5484   -7.8515  -19.7204 C.ar    1  UNL1       -0.0218
     21 C         -25.0518   -7.9539  -21.1296 C.3     1  UNL1        0.0310
     22 C         -23.9959   -8.9725  -19.0841 C.ar    1  UNL1       -0.0042
     23 C         -23.4914   -8.8683  -17.7850 C.ar    1  UNL1        0.0012
     24 C         -24.1582   -9.8530  -13.4007 C.3     1  UNL1        0.0887
     25 C         -23.2958  -10.5887  -12.3570 C.3     1  UNL1        0.0773
     26 C         -23.5171   -9.8041  -11.0553 C.3     1  UNL1        0.0391
     27 C         -24.9426   -9.2854  -11.1827 C.3     1  UNL1        0.0936
     28 N         -25.1565   -9.1272  -12.6137 N.pl3   1  UNL1       -0.2933
     29 N         -21.8899  -10.7519  -12.8216 N.3     1  UNL1       -0.2724
     30 C         -20.8102  -10.8815  -11.8168 C.3     1  UNL1        0.0721
     31 C         -20.5068  -12.3454  -11.4331 C.3     1  UNL1        0.0174
     32 C         -20.3305  -13.2274  -12.6685 C.3     1  UNL1        0.0029
     33 C         -21.5341  -13.0877  -13.5985 C.3     1  UNL1        0.0174
     34 C         -21.7113  -11.6229  -14.0012 C.3     1  UNL1        0.0721
     35 C         -25.3586  -12.1042  -13.9043 C.3     1  UNL1        0.0018
     36 C         -24.7739  -10.7993  -14.4607 C.3     1  UNL1        0.0211
@<TRIPOS>BOND
     1    35    36    1
     2    36    24    1
     3    24    25    1
     4    25    29    1
     5    29    30    1
     6    30    31    1
     7    31    32    1
     8    32    33    1
     9    33    34    1
    10    25    26    1
    11    26    27    1
    12    27    28    1
    13    28     1    1
    14     1     2   ar
    15     2     3   ar
    16     3     4   ar
    17     4     5   ar
    18     5     6   ar
    19     6     7   ar
    20     7    11    1
    21    11    12   ar
    22    12    13   ar
    23    13    14   ar
    24    14    15    1
    25    14    16   ar
    26    16    17    1
    27    17    18   ar
    28    18    19   ar
    29    19    20   ar
    30    20    21    1
    31    20    22   ar
    32    22    23   ar
    33     7     8   ar
    34     8     9   ar
    35     9    10    1
    36    28    24    1
    37     6     1   ar
    38    16    11   ar
    39    23    17   ar
    40    34    29    1
    41     9     5   ar
@<TRIPOS>MOLECULE
*****
 36 41 0 0 0
SMALL
GASTEIGER

@<TRIPOS>ATOM
      1 C         -23.9097   -9.3579  -11.7149 C.ar    1  UNL1        0.1379
      2 N         -24.4706   -9.6165  -10.4955 N.ar    1  UNL1       -0.2089
      3 C         -24.3327   -8.7618   -9.4348 C.ar    1  UNL1        0.2014
      4 N         -23.5893   -7.6244   -9.5560 N.ar    1  UNL1       -0.2050
      5 C         -23.0287   -7.3544  -10.7585 C.ar    1  UNL1        0.1654
      6 C         -23.1864   -8.1641  -11.8441 C.ar    1  UNL1        0.0865
      7 C         -22.4750   -7.5216  -12.8530 C.ar    1  UNL1        0.1095
      8 N         -21.9089   -6.3975  -12.3462 N.ar    1  UNL1       -0.1677
      9 N         -22.2572   -6.3020  -11.0693 N.ar    1  UNL1       -0.2319
     10 C         -21.8138   -5.2440  -10.1716 C.3     1  UNL1        0.1554
     11 C         -22.4058   -7.8705  -14.2765 C.ar    1  UNL1        0.0577
     12 C         -21.4602   -8.6740  -14.8793 C.ar    1  UNL1        0.1231
     13 N         -21.8021   -8.8748  -16.1668 N.ar    1  UNL1       -0.1676
     14 N         -22.9353   -8.2286  -16.3943 N.ar    1  UNL1       -0.2488
     15 C         -23.5887   -8.2123  -17.6988 C.3     1  UNL1        0.1537
     16 C         -23.3531   -7.6290  -15.2560 C.ar    1  UNL1        0.0809
     17 C         -24.5998   -6.8465  -15.0960 C.ar    1  UNL1        0.0174
     18 C         -24.9562   -5.8719  -16.0411 C.ar    1  UNL1        0.0012
     19 C         -26.1430   -5.1474  -15.8965 C.ar    1  UNL1       -0.0042
     20 C         -26.9870   -5.3825  -14.8012 C.ar    1  UNL1       -0.0218
     21 C         -28.2804   -4.6347  -14.6692 C.3     1  UNL1        0.0310
     22 C         -26.6463   -6.3750  -13.8706 C.ar    1  UNL1       -0.0042
     23 C         -25.4596   -7.0989  -14.0148 C.ar    1  UNL1        0.0012
     24 C         -23.0673  -11.5290  -12.8163 C.3     1  UNL1        0.0887
     25 C         -23.4083  -12.1943  -14.1635 C.3     1  UNL1        0.0773
     26 C         -24.8159  -11.6798  -14.4996 C.3     1  UNL1        0.0391
     27 C         -24.8494  -10.2879  -13.8842 C.3     1  UNL1        0.0936
     28 N         -23.9466  -10.3609  -12.7447 N.pl3   1  UNL1       -0.2933
     29 N         -23.2190  -13.6710  -14.1114 N.3     1  UNL1       -0.2724
     30 C         -24.3695  -14.5552  -14.4058 C.3     1  UNL1        0.0721
     31 C         -24.4694  -14.9505  -15.8944 C.3     1  UNL1        0.0174
     32 C         -23.1314  -15.4520  -16.4358 C.3     1  UNL1        0.0029
     33 C         -22.0288  -14.4320  -16.1583 C.3     1  UNL1        0.0174
     34 C         -21.9370  -14.1633  -14.6556 C.3     1  UNL1        0.0721
     35 C         -20.9351  -11.5844  -11.3285 C.3     1  UNL1        0.0018
     36 C         -21.5650  -11.1831  -12.6688 C.3     1  UNL1        0.0211
@<TRIPOS>BOND
     1    35    36    1
     2    36    24    1
     3    24    25    1
     4    25    29    1
     5    29    30    1
     6    30    31    1
     7    31    32    1
     8    32    33    1
     9    33    34    1
    10    25    26    1
    11    26    27    1
    12    27    28    1
    13    28     1    1
    14     1     2   ar
    15     2     3   ar
    16     3     4   ar
    17     4     5   ar
    18     5     6   ar
    19     6     7   ar
    20     7    11    1
    21    11    12   ar
    22    12    13   ar
    23    13    14   ar
    24    14    15    1
    25    14    16   ar
    26    16    17    1
    27    17    18   ar
    28    18    19   ar
    29    19    20   ar
    30    20    21    1
    31    20    22   ar
    32    22    23   ar
    33     7     8   ar
    34     8     9   ar
    35     9    10    1
    36    28    24    1
    37     6     1   ar
    38    16    11   ar
    39    23    17   ar
    40    34    29    1
    41     9     5   ar
@<TRIPOS>MOLECULE
*****
 36 41 0 0 0
SMALL
GASTEIGER

@<TRIPOS>ATOM
      1 C         -22.2842   -8.9054  -12.3714 C.ar    1  UNL1        0.1379
      2 N         -20.9374   -9.1118  -12.4816 N.ar    1  UNL1       -0.2089
      3 C         -20.0257   -8.1255  -12.2159 C.ar    1  UNL1        0.2014
      4 N         -20.4429   -6.8762  -11.8609 N.ar    1  UNL1       -0.2050
      5 C         -21.7742   -6.6573  -11.7463 C.ar    1  UNL1        0.1654
      6 C         -22.7029   -7.6321  -11.9610 C.ar    1  UNL1        0.0865
      7 C         -23.9198   -6.9993  -11.7255 C.ar    1  UNL1        0.1095
      8 N         -23.6879   -5.6992  -11.4147 N.ar    1  UNL1       -0.1677
      9 N         -22.3756   -5.5022  -11.4250 N.ar    1  UNL1       -0.2319
     10 C         -21.7334   -4.2188  -11.1751 C.3     1  UNL1        0.1554
     11 C         -25.2585   -7.5982  -11.6781 C.ar    1  UNL1        0.0577
     12 C         -25.7372   -8.4623  -10.7152 C.ar    1  UNL1        0.1231
     13 N         -27.0476   -8.6881  -10.9314 N.ar    1  UNL1       -0.1676
     14 N         -27.4123   -7.9904  -11.9962 N.ar    1  UNL1       -0.2488
     15 C         -28.7695   -8.0147  -12.5312 C.3     1  UNL1        0.1537
     16 C         -26.3555   -7.2863  -12.4620 C.ar    1  UNL1        0.0809
     17 C         -26.3740   -6.3556  -13.6134 C.ar    1  UNL1        0.0174
     18 C         -25.5071   -6.5484  -14.7003 C.ar    1  UNL1        0.0012
     19 C         -25.5397   -5.6781  -15.7938 C.ar    1  UNL1       -0.0042
     20 C         -26.4350   -4.5986  -15.8130 C.ar    1  UNL1       -0.0218
     21 C         -26.4986   -3.6903  -17.0048 C.3     1  UNL1        0.0310
     22 C         -27.3209   -4.4203  -14.7405 C.ar    1  UNL1       -0.0042
     23 C         -27.2881   -5.2900  -13.6470 C.ar    1  UNL1        0.0012
     24 C         -23.4608  -10.2663  -14.2152 C.3     1  UNL1        0.0887
     25 C         -24.6102  -11.2908  -14.1578 C.3     1  UNL1        0.0773
     26 C         -24.5483  -11.8568  -12.7314 C.3     1  UNL1        0.0391
     27 C         -24.0286  -10.6913  -11.9014 C.3     1  UNL1        0.0936
     28 N         -23.2006   -9.9200  -12.8169 N.pl3   1  UNL1       -0.2933
     29 N         -24.5335  -12.2671  -15.2803 N.3     1  UNL1       -0.2724
     30 C         -23.2161  -12.5642  -15.8873 C.3     1  UNL1        0.0721
     31 C         -22.4983  -13.7623  -15.2303 C.3     1  UNL1        0.0174
     32 C         -23.4227  -14.9722  -15.1015 C.3     1  UNL1        0.0029
     33 C         -24.7148  -14.5812  -14.3870 C.3     1  UNL1        0.0174
     34 C         -25.4076  -13.4507  -15.1493 C.3     1  UNL1        0.0721
     35 C         -22.6454   -8.6132  -16.0496 C.3     1  UNL1        0.0018
     36 C         -23.7785   -9.0412  -15.1077 C.3     1  UNL1        0.0211
@<TRIPOS>BOND
     1    35    36    1
     2    36    24    1
     3    24    25    1
     4    25    29    1
     5    29    30    1
     6    30    31    1
     7    31    32    1
     8    32    33    1
     9    33    34    1
    10    25    26    1
    11    26    27    1
    12    27    28    1
    13    28     1    1
    14     1     2   ar
    15     2     3   ar
    16     3     4   ar
    17     4     5   ar
    18     5     6   ar
    19     6     7   ar
    20     7    11    1
    21    11    12   ar
    22    12    13   ar
    23    13    14   ar
    24    14    15    1
    25    14    16   ar
    26    16    17    1
    27    17    18   ar
    28    18    19   ar
    29    19    20   ar
    30    20    21    1
    31    20    22   ar
    32    22    23   ar
    33     7     8   ar
    34     8     9   ar
    35     9    10    1
    36    28    24    1
    37     6     1   ar
    38    16    11   ar
    39    23    17   ar
    40    34    29    1
    41     9     5   ar
@<TRIPOS>MOLECULE
*****
 36 41 0 0 0
SMALL
GASTEIGER

@<TRIPOS>ATOM
      1 C         -21.9415   -7.9533  -10.1857 C.ar    1  UNL1        0.1379
      2 N         -21.8285   -7.7759   -8.8351 N.ar    1  UNL1       -0.2089
      3 C         -21.0441   -8.5853   -8.0578 C.ar    1  UNL1        0.2014
      4 N         -20.3680   -9.6321   -8.6127 N.ar    1  UNL1       -0.2050
      5 C         -20.4693   -9.8193   -9.9499 C.ar    1  UNL1        0.1654
      6 C         -21.2067   -9.0026  -10.7550 C.ar    1  UNL1        0.0865
      7 C         -21.0273   -9.5308  -12.0300 C.ar    1  UNL1        0.1095
      8 N         -20.2355  -10.6293  -11.9447 N.ar    1  UNL1       -0.1677
      9 N         -19.8964  -10.7934  -10.6723 N.ar    1  UNL1       -0.2319
     10 C         -19.0787  -11.8906  -10.1729 C.3     1  UNL1        0.1554
     11 C         -21.4803   -8.9787  -13.3118 C.ar    1  UNL1        0.0577
     12 C         -21.3284   -7.6776  -13.7442 C.ar    1  UNL1        0.1231
     13 N         -21.7446   -7.5817  -15.0219 N.ar    1  UNL1       -0.1676
     14 N         -22.1492   -8.7810  -15.4110 N.ar    1  UNL1       -0.2488
     15 C         -22.6862   -9.0413  -16.7425 C.3     1  UNL1        0.1537
     16 C         -21.9738   -9.6684  -14.4053 C.ar    1  UNL1        0.0809
     17 C         -22.2686  -11.1180  -14.4675 C.ar    1  UNL1        0.0174
     18 C         -23.5430  -11.6015  -14.1324 C.ar    1  UNL1        0.0012
     19 C         -23.8232  -12.9690  -14.2095 C.ar    1  UNL1       -0.0042
     20 C         -22.8311  -13.8731  -14.6163 C.ar    1  UNL1       -0.0218
     21 C         -23.1446  -15.3346  -14.7391 C.3     1  UNL1        0.0310
     22 C         -21.5654  -13.3890  -14.9780 C.ar    1  UNL1       -0.0042
     23 C         -21.2850  -12.0221  -14.9004 C.ar    1  UNL1        0.0012
     24 C         -24.2833   -7.5834  -11.1932 C.3     1  UNL1        0.0887
     25 C         -24.8328   -6.4981  -12.1389 C.3     1  UNL1        0.0773
     26 C         -23.9162   -5.2878  -11.9069 C.3     1  UNL1        0.0391
     27 C         -22.5717   -5.9125  -11.5610 C.3     1  UNL1        0.0936
     28 N         -22.9007   -7.1818  -10.9292 N.pl3   1  UNL1       -0.2933
     29 N         -26.2952   -6.2899  -11.9466 N.3     1  UNL1       -0.2724
     30 C         -26.9662   -5.1852  -12.6687 C.3     1  UNL1        0.0721
     31 C         -27.5400   -5.6108  -14.0369 C.3     1  UNL1        0.0174
     32 C         -28.3682   -6.8904  -13.9278 C.3     1  UNL1        0.0029
     33 C         -27.5584   -7.9923  -13.2474 C.3     1  UNL1        0.0174
     34 C         -27.1038   -7.5234  -11.8645 C.3     1  UNL1        0.0721
     35 C         -24.6425  -10.1154  -10.7211 C.3     1  UNL1        0.0018
     36 C         -24.4133   -9.0161  -11.7667 C.3     1  UNL1        0.0211
@<TRIPOS>BOND
     1    35    36    1
     2    36    24    1
     3    24    25    1
     4    25    29    1
     5    29    30    1
     6    30    31    1
     7    31    32    1
     8    32    33    1
     9    33    34    1
    10    25    26    1
    11    26    27    1
    12    27    28    1
    13    28     1    1
    14     1     2   ar
    15     2     3   ar
    16     3     4   ar
    17     4     5   ar
    18     5     6   ar
    19     6     7   ar
    20     7    11    1
    21    11    12   ar
    22    12    13   ar
    23    13    14   ar
    24    14    15    1
    25    14    16   ar
    26    16    17    1
    27    17    18   ar
    28    18    19   ar
    29    19    20   ar
    30    20    21    1
    31    20    22   ar
    32    22    23   ar
    33     7     8   ar
    34     8     9   ar
    35     9    10    1
    36    28    24    1
    37     6     1   ar
    38    16    11   ar
    39    23    17   ar
    40    34    29    1
    41     9     5   ar
@<TRIPOS>MOLECULE
*****
 36 41 0 0 0
SMALL
GASTEIGER

@<TRIPOS>ATOM
      1 C         -21.5018   -8.7410  -12.4533 C.ar    1  UNL1        0.1379
      2 N         -20.3329   -9.2952  -12.0117 N.ar    1  UNL1       -0.2089
      3 C         -19.6122   -8.7506  -10.9828 C.ar    1  UNL1        0.2014
      4 N         -20.0285   -7.5993  -10.3809 N.ar    1  UNL1       -0.2050
      5 C         -21.1855   -7.0397  -10.8070 C.ar    1  UNL1        0.1654
      6 C         -21.9467   -7.5841  -11.7985 C.ar    1  UNL1        0.0865
      7 C         -23.0314   -6.7191  -11.9075 C.ar    1  UNL1        0.1095
      8 N         -22.8742   -5.7013  -11.0242 N.ar    1  UNL1       -0.1677
      9 N         -21.7478   -5.9092  -10.3542 N.ar    1  UNL1       -0.2319
     10 C         -21.2155   -5.0103   -9.3390 C.3     1  UNL1        0.1554
     11 C         -24.2396   -6.8790  -12.7247 C.ar    1  UNL1        0.0577
     12 C         -24.4634   -6.3364  -13.9731 C.ar    1  UNL1        0.1231
     13 N         -25.6230   -6.8145  -14.4649 N.ar    1  UNL1       -0.1676
     14 N         -26.1351   -7.6449  -13.5695 N.ar    1  UNL1       -0.2488
     15 C         -27.4064   -8.3336  -13.7654 C.3     1  UNL1        0.1537
     16 C         -25.3039   -7.7360  -12.5063 C.ar    1  UNL1        0.0809
     17 C         -25.5078   -8.5956  -11.3182 C.ar    1  UNL1        0.0174
     18 C         -24.6789   -9.7051  -11.0900 C.ar    1  UNL1        0.0012
     19 C         -24.8627  -10.5042   -9.9578 C.ar    1  UNL1       -0.0042
     20 C         -25.8824  -10.2092   -9.0411 C.ar    1  UNL1       -0.0218
     21 C         -26.0521  -11.0418   -7.8052 C.3     1  UNL1        0.0310
     22 C         -26.6940   -9.0851   -9.2528 C.ar    1  UNL1       -0.0042
     23 C         -26.5107   -8.2865  -10.3850 C.ar    1  UNL1        0.0012
     24 C         -22.9255  -10.4853  -13.7048 C.3     1  UNL1        0.0887
     25 C         -23.2454  -10.6645  -15.2014 C.3     1  UNL1        0.0773
     26 C         -23.0856   -9.2585  -15.7985 C.3     1  UNL1        0.0391
     27 C         -22.0004   -8.6220  -14.9415 C.3     1  UNL1        0.0936
     28 N         -22.1332   -9.2563  -13.6381 N.pl3   1  UNL1       -0.2933
     29 N         -24.5544  -11.3453  -15.4065 N.3     1  UNL1       -0.2724
     30 C         -24.6192  -12.5285  -16.2943 C.3     1  UNL1        0.0721
     31 C         -24.4142  -13.8634  -15.5471 C.3     1  UNL1        0.0174
     32 C         -25.2987  -13.9558  -14.3044 C.3     1  UNL1        0.0029
     33 C         -25.0948  -12.7318  -13.4137 C.3     1  UNL1        0.0174
     34 C         -25.4032  -11.4586  -14.2029 C.3     1  UNL1        0.0721
     35 C         -21.2871  -12.4783  -14.0299 C.3     1  UNL1        0.0018
     36 C         -22.2179  -11.7130  -13.0801 C.3     1  UNL1        0.0211
@<TRIPOS>BOND
     1    35    36    1
     2    36    24    1
     3    24    25    1
     4    25    29    1
     5    29    30    1
     6    30    31    1
     7    31    32    1
     8    32    33    1
     9    33    34    1
    10    25    26    1
    11    26    27    1
    12    27    28    1
    13    28     1    1
    14     1     2   ar
    15     2     3   ar
    16     3     4   ar
    17     4     5   ar
    18     5     6   ar
    19     6     7   ar
    20     7    11    1
    21    11    12   ar
    22    12    13   ar
    23    13    14   ar
    24    14    15    1
    25    14    16   ar
    26    16    17    1
    27    17    18   ar
    28    18    19   ar
    29    19    20   ar
    30    20    21    1
    31    20    22   ar
    32    22    23   ar
    33     7     8   ar
    34     8     9   ar
    35     9    10    1
    36    28    24    1
    37     6     1   ar
    38    16    11   ar
    39    23    17   ar
    40    34    29    1
    41     9     5   ar
@<TRIPOS>MOLECULE
*****
 36 41 0 0 0
SMALL
GASTEIGER

@<TRIPOS>ATOM
      1 C         -20.0304   -9.2988  -10.6359 C.ar    1  UNL1        0.1379
      2 N         -19.3545  -10.4775  -10.4858 N.ar    1  UNL1       -0.2089
      3 C         -18.7418  -10.8206   -9.3105 C.ar    1  UNL1        0.2014
      4 N         -18.7585   -9.9662   -8.2472 N.ar    1  UNL1       -0.2050
      5 C         -19.4255   -8.7954   -8.3807 C.ar    1  UNL1        0.1654
      6 C         -20.0823   -8.4472   -9.5236 C.ar    1  UNL1        0.0865
      7 C         -20.6324   -7.2023   -9.2331 C.ar    1  UNL1        0.1095
      8 N         -20.2740   -6.8447   -7.9744 N.ar    1  UNL1       -0.1677
      9 N         -19.5423   -7.8258   -7.4613 N.ar    1  UNL1       -0.2319
     10 C         -18.9394   -7.7969   -6.1356 C.3     1  UNL1        0.1554
     11 C         -21.5568   -6.4071  -10.0493 C.ar    1  UNL1        0.0577
     12 C         -21.2719   -5.2185  -10.6890 C.ar    1  UNL1        0.1231
     13 N         -22.3237   -4.8595  -11.4504 N.ar    1  UNL1       -0.1676
     14 N         -23.2606   -5.7856  -11.3160 N.ar    1  UNL1       -0.2488
     15 C         -24.5529   -5.7072  -11.9889 C.3     1  UNL1        0.1537
     16 C         -22.8180   -6.7639  -10.4935 C.ar    1  UNL1        0.0809
     17 C         -23.5605   -7.9921  -10.1296 C.ar    1  UNL1        0.0174
     18 C         -23.4105   -8.5656   -8.8573 C.ar    1  UNL1        0.0012
     19 C         -24.1268   -9.7150   -8.5109 C.ar    1  UNL1       -0.0042
     20 C         -24.9982  -10.3113   -9.4342 C.ar    1  UNL1       -0.0218
     21 C         -25.7979  -11.5198   -9.0474 C.3     1  UNL1        0.0310
     22 C         -25.1703   -9.7242  -10.6961 C.ar    1  UNL1       -0.0042
     23 C         -24.4539   -8.5754  -11.0428 C.ar    1  UNL1        0.0012
     24 C         -21.5876   -9.5884  -12.6674 C.3     1  UNL1        0.0887
     25 C         -21.6203   -8.8922  -14.0416 C.3     1  UNL1        0.0773
     26 C         -20.9497   -7.5320  -13.7982 C.3     1  UNL1        0.0391
     27 C         -19.9368   -7.8190  -12.6987 C.3     1  UNL1        0.0936
     28 N         -20.5151   -8.9142  -11.9340 N.pl3   1  UNL1       -0.2933
     29 N         -22.9933   -8.8793  -14.6193 N.3     1  UNL1       -0.2724
     30 C         -23.5280   -7.6162  -15.1769 C.3     1  UNL1        0.0721
     31 C         -23.2467   -7.4482  -16.6851 C.3     1  UNL1        0.0174
     32 C         -23.6302   -8.7000  -17.4733 C.3     1  UNL1        0.0029
     33 C         -22.9605   -9.9339  -16.8715 C.3     1  UNL1        0.0174
     34 C         -23.3607  -10.0767  -15.4023 C.3     1  UNL1        0.0721
     35 C         -22.6703  -11.9474  -12.5081 C.3     1  UNL1        0.0018
     36 C         -21.4020  -11.1228  -12.7644 C.3     1  UNL1        0.0211
@<TRIPOS>BOND
     1    35    36    1
     2    36    24    1
     3    24    25    1
     4    25    29    1
     5    29    30    1
     6    30    31    1
     7    31    32    1
     8    32    33    1
     9    33    34    1
    10    25    26    1
    11    26    27    1
    12    27    28    1
    13    28     1    1
    14     1     2   ar
    15     2     3   ar
    16     3     4   ar
    17     4     5   ar
    18     5     6   ar
    19     6     7   ar
    20     7    11    1
    21    11    12   ar
    22    12    13   ar
    23    13    14   ar
    24    14    15    1
    25    14    16   ar
    26    16    17    1
    27    17    18   ar
    28    18    19   ar
    29    19    20   ar
    30    20    21    1
    31    20    22   ar
    32    22    23   ar
    33     7     8   ar
    34     8     9   ar
    35     9    10    1
    36    28    24    1
    37     6     1   ar
    38    16    11   ar
    39    23    17   ar
    40    34    29    1
    41     9     5   ar
@<TRIPOS>MOLECULE
*****
 36 41 0 0 0
SMALL
GASTEIGER

@<TRIPOS>ATOM
      1 C         -25.1106   -7.8300  -11.0869 C.ar    1  UNL1        0.1379
      2 N         -25.7964   -7.8506   -9.9046 N.ar    1  UNL1       -0.2089
      3 C         -27.1644   -7.8243   -9.8563 C.ar    1  UNL1        0.2014
      4 N         -27.8951   -7.7400  -11.0051 N.ar    1  UNL1       -0.2050
      5 C         -27.2293   -7.7202  -12.1840 C.ar    1  UNL1        0.1654
      6 C         -25.8701   -7.7904  -12.2644 C.ar    1  UNL1        0.0865
      7 C         -25.6087   -7.7568  -13.6309 C.ar    1  UNL1        0.1095
      8 N         -26.7826   -7.6425  -14.3017 N.ar    1  UNL1       -0.1677
      9 N         -27.7653   -7.6263  -13.4100 N.ar    1  UNL1       -0.2319
     10 C         -29.1759   -7.4778  -13.7416 C.3     1  UNL1        0.1554
     11 C         -24.3216   -7.9361  -14.3122 C.ar    1  UNL1        0.0577
     12 C         -23.4227   -6.9432  -14.6424 C.ar    1  UNL1        0.1231
     13 N         -22.2995   -7.5040  -15.1311 N.ar    1  UNL1       -0.1676
     14 N         -22.4587   -8.8185  -15.1150 N.ar    1  UNL1       -0.2488
     15 C         -21.4393   -9.7448  -15.5963 C.3     1  UNL1        0.1537
     16 C         -23.6682   -9.1235  -14.5919 C.ar    1  UNL1        0.0809
     17 C         -24.1969  -10.4885  -14.3695 C.ar    1  UNL1        0.0174
     18 C         -24.1376  -11.0776  -13.0969 C.ar    1  UNL1        0.0012
     19 C         -24.6539  -12.3596  -12.8864 C.ar    1  UNL1       -0.0042
     20 C         -25.2307  -13.0734  -13.9470 C.ar    1  UNL1       -0.0218
     21 C         -25.8222  -14.4314  -13.7111 C.3     1  UNL1        0.0310
     22 C         -25.3158  -12.4758  -15.2129 C.ar    1  UNL1       -0.0042
     23 C         -24.7992  -11.1944  -15.4236 C.ar    1  UNL1        0.0012
     24 C         -22.7290   -8.7968  -10.9157 C.3     1  UNL1        0.0887
     25 C         -21.3495   -8.1156  -10.8315 C.3     1  UNL1        0.0773
     26 C         -21.5573   -6.7460  -11.4949 C.3     1  UNL1        0.0391
     27 C         -23.0078   -6.4075  -11.1806 C.3     1  UNL1        0.0936
     28 N         -23.6789   -7.6952  -11.0793 N.pl3   1  UNL1       -0.2933
     29 N         -20.2728   -8.9829  -11.3859 N.3     1  UNL1       -0.2724
     30 C         -19.0401   -9.1955  -10.5938 C.3     1  UNL1        0.0721
     31 C         -19.1117  -10.4335   -9.6749 C.3     1  UNL1        0.0174
     32 C         -19.5991  -11.6692  -10.4303 C.3     1  UNL1        0.0029
     33 C         -20.9179  -11.3725  -11.1416 C.3     1  UNL1        0.0174
     34 C         -20.7380  -10.1915  -12.0965 C.3     1  UNL1        0.0721
     35 C         -22.7598   -9.0711   -8.3299 C.3     1  UNL1        0.0018
     36 C         -23.0371   -9.7047   -9.6995 C.3     1  UNL1        0.0211
@<TRIPOS>BOND
     1    35    36    1
     2    36    24    1
     3    24    25    1
     4    25    29    1
     5    29    30    1
     6    30    31    1
     7    31    32    1
     8    32    33    1
     9    33    34    1
    10    25    26    1
    11    26    27    1
    12    27    28    1
    13    28     1    1
    14     1     2   ar
    15     2     3   ar
    16     3     4   ar
    17     4     5   ar
    18     5     6   ar
    19     6     7   ar
    20     7    11    1
    21    11    12   ar
    22    12    13   ar
    23    13    14   ar
    24    14    15    1
    25    14    16   ar
    26    16    17    1
    27    17    18   ar
    28    18    19   ar
    29    19    20   ar
    30    20    21    1
    31    20    22   ar
    32    22    23   ar
    33     7     8   ar
    34     8     9   ar
    35     9    10    1
    36    28    24    1
    37     6     1   ar
    38    16    11   ar
    39    23    17   ar
    40    34    29    1
    41     9     5   ar
@<TRIPOS>MOLECULE
*****
 36 41 0 0 0
SMALL
GASTEIGER

@<TRIPOS>ATOM
      1 C         -19.6442  -10.5033   -9.9057 C.ar    1  UNL1        0.1379
      2 N         -18.3831  -11.0306   -9.9053 N.ar    1  UNL1       -0.2089
      3 C         -17.5135  -10.8367   -8.8657 C.ar    1  UNL1        0.2014
      4 N         -17.8740  -10.0692   -7.7971 N.ar    1  UNL1       -0.2050
      5 C         -19.1209   -9.5415   -7.7831 C.ar    1  UNL1        0.1654
      6 C         -20.0231   -9.7547   -8.7827 C.ar    1  UNL1        0.0865
      7 C         -21.1568   -9.0606   -8.3706 C.ar    1  UNL1        0.1095
      8 N         -20.8943   -8.4502   -7.1877 N.ar    1  UNL1       -0.1677
      9 N         -19.6515   -8.7542   -6.8355 N.ar    1  UNL1       -0.2319
     10 C         -18.9895   -8.2553   -5.6377 C.3     1  UNL1        0.1554
     11 C         -22.4864   -9.0466   -8.9911 C.ar    1  UNL1        0.0577
     12 C         -23.4977   -9.9619   -8.7850 C.ar    1  UNL1        0.1231
     13 N         -24.6117   -9.5443   -9.4169 N.ar    1  UNL1       -0.1676
     14 N         -24.3376   -8.3928  -10.0105 N.ar    1  UNL1       -0.2488
     15 C         -25.3161   -7.6610  -10.8079 C.3     1  UNL1        0.1537
     16 C         -23.0588   -8.0390   -9.7475 C.ar    1  UNL1        0.0809
     17 C         -22.3929   -6.7964  -10.2000 C.ar    1  UNL1        0.0174
     18 C         -21.9004   -5.8708   -9.2668 C.ar    1  UNL1        0.0012
     19 C         -21.2562   -4.7072   -9.6974 C.ar    1  UNL1       -0.0042
     20 C         -21.1015   -4.4492  -11.0674 C.ar    1  UNL1       -0.0218
     21 C         -20.3733   -3.2216  -11.5279 C.3     1  UNL1        0.0310
     22 C         -21.5683   -5.3859  -12.0009 C.ar    1  UNL1       -0.0042
     23 C         -22.2128   -6.5490  -11.5706 C.ar    1  UNL1        0.0012
     24 C         -21.1377  -11.8109  -11.5477 C.3     1  UNL1        0.0887
     25 C         -21.7398  -11.4280  -12.9134 C.3     1  UNL1        0.0773
     26 C         -21.8273   -9.8951  -12.8775 C.3     1  UNL1        0.0391
     27 C         -20.6490   -9.4852  -12.0052 C.3     1  UNL1        0.0936
     28 N         -20.4575  -10.5990  -11.0879 N.pl3   1  UNL1       -0.2933
     29 N         -22.9994  -12.1744  -13.1880 N.3     1  UNL1       -0.2724
     30 C         -24.2819  -11.6319  -12.6851 C.3     1  UNL1        0.0721
     31 C         -24.9936  -10.7108  -13.6986 C.3     1  UNL1        0.0174
     32 C         -25.0778  -11.3534  -15.0824 C.3     1  UNL1        0.0029
     33 C         -23.6931  -11.8005  -15.5469 C.3     1  UNL1        0.0174
     34 C         -23.0961  -12.7775  -14.5330 C.3     1  UNL1        0.0721
     35 C         -19.9182  -13.5664  -13.0287 C.3     1  UNL1        0.0018
     36 C         -20.2142  -13.0522  -11.6137 C.3     1  UNL1        0.0211
@<TRIPOS>BOND
     1    35    36    1
     2    36    24    1
     3    24    25    1
     4    25    29    1
     5    29    30    1
     6    30    31    1
     7    31    32    1
     8    32    33    1
     9    33    34    1
    10    25    26    1
    11    26    27    1
    12    27    28    1
    13    28     1    1
    14     1     2   ar
    15     2     3   ar
    16     3     4   ar
    17     4     5   ar
    18     5     6   ar
    19     6     7   ar
    20     7    11    1
    21    11    12   ar
    22    12    13   ar
    23    13    14   ar
    24    14    15    1
    25    14    16   ar
    26    16    17    1
    27    17    18   ar
    28    18    19   ar
    29    19    20   ar
    30    20    21    1
    31    20    22   ar
    32    22    23   ar
    33     7     8   ar
    34     8     9   ar
    35     9    10    1
    36    28    24    1
    37     6     1   ar
    38    16    11   ar
    39    23    17   ar
    40    34    29    1
    41     9     5   ar
