@<TRIPOS>MOLECULE
*****
 53 59 0 0 0
SMALL
GASTEIGER

@<TRIPOS>ATOM
      1 C         -23.9537   52.1446  -10.8913 C.3     1  UNL1        0.1239
      2 C         -24.8558   53.0302  -10.0397 C.3     1  UNL1        0.0374
      3 C         -25.7993   52.0519   -9.3688 C.3     1  UNL1        0.0739
      4 N         -25.9841   50.9222  -10.2937 N.3     1  UNL1       -0.2638
      5 C         -24.9321   51.0367  -11.3239 C.3     1  UNL1        0.0913
      6 C         -22.7951   51.6199  -10.0539 C.2     1  UNL1        0.2359
      7 O         -22.9671   51.3255   -8.8388 O.2     1  UNL1       -0.2739
      8 N         -21.5161   51.3827  -10.6633 N.am    1  UNL1       -0.2832
      9 H         -21.4944   51.1439  -11.6806 H       1  UNL1        0.1549
     10 C         -20.2652   51.4883   -9.9614 C.ar    1  UNL1        0.0505
     11 C         -19.3369   50.4174  -10.0333 C.ar    1  UNL1        0.0162
     12 C         -18.0778   50.5095   -9.4112 C.ar    1  UNL1        0.0198
     13 C         -17.7830   51.6804   -8.7199 C.ar    1  UNL1        0.0754
     14 N         -16.6406   52.0130   -8.0981 N.ar    1  UNL1       -0.2757
     15 N         -16.7700   53.2396   -7.6048 N.ar    1  UNL1       -0.1726
     16 C         -18.0116   53.6925   -7.9088 C.ar    1  UNL1        0.1036
     17 C         -18.6717   52.7121   -8.6312 C.ar    1  UNL1        0.0376
     18 C         -19.9133   52.6700   -9.2643 C.ar    1  UNL1        0.0177
     19 H         -15.7794   51.4287   -8.0151 H       1  UNL1        0.1889
     20 C         -18.5284   55.0125   -7.4971 C.ar    1  UNL1        0.0388
     21 C         -19.6647   55.5522   -8.1133 C.ar    1  UNL1        0.0079
     22 C         -20.1517   56.8009   -7.7196 C.ar    1  UNL1        0.0578
     23 C         -19.4821   57.5185   -6.7117 C.ar    1  UNL1        0.2247
     24 N         -18.3630   56.9857   -6.1551 N.ar    1  UNL1       -0.2101
     25 C         -17.8757   55.7709   -6.5158 C.ar    1  UNL1        0.1036
     26 O         -19.9111   58.7754   -6.2569 O.3     1  UNL1       -0.4640
     27 C         -19.1336   59.9739   -6.2479 C.3     1  UNL1        0.1678
     28 C         -20.0192   61.1259   -5.7763 C.3     1  UNL1        0.0473
     29 C         -18.5916   60.2645   -7.6513 C.3     1  UNL1        0.0473
     30 C         -22.3797   54.3653  -11.3947 C.3     1  UNL1        0.0696
     31 S         -23.3154   53.1059  -12.3276 S.3     1  UNL1       -0.1308
     32 C         -25.9419   49.6274   -9.5822 C.3     1  UNL1        0.1587
     33 C         -27.3298   49.1509   -9.2301 C.2     1  UNL1        0.2423
     34 O         -28.0940   48.7635  -10.1573 O.2     1  UNL1       -0.2733
     35 N         -27.8138   49.1557   -7.8677 N.am    1  UNL1       -0.2731
     36 C         -29.0854   48.4700   -7.5761 C.3     1  UNL1        0.1196
     37 C         -29.4051   48.3886   -6.1034 C.2     1  UNL1       -0.0081
     38 C         -28.5387   48.7475   -5.1408 C.2     1  UNL1       -0.0129
     39 C         -27.1576   49.2285   -5.5073 C.3     1  UNL1        0.0988
     40 BR        -25.9568   47.7051   -5.6360 Br      1  UNL1       -0.0751
     41 C         -27.1926   49.9911   -6.8290 C.3     1  UNL1        0.1095
     42 C         -28.9081   48.5953   -3.7119 C.ar    1  UNL1       -0.0034
     43 C         -27.9641   48.1442   -2.7741 C.ar    1  UNL1       -0.0002
     44 C         -28.3112   48.0106   -1.4268 C.ar    1  UNL1        0.0031
     45 C         -29.6098   48.3236   -0.9913 C.ar    1  UNL1        0.0375
     46 C         -30.5545   48.7709   -1.9298 C.ar    1  UNL1        0.0031
     47 C         -30.2068   48.9050   -3.2765 C.ar    1  UNL1       -0.0002
     48 C         -29.9776   48.1827    0.4340 C.ar    1  UNL1        0.1832
     49 N         -31.1498   47.6561    0.8605 N.ar    1  UNL1       -0.2034
     50 C         -31.0359   47.7415    2.1999 C.ar    1  UNL1        0.1972
     51 N         -29.8573   48.2787    2.5520 N.ar    1  UNL1       -0.2281
     52 C         -29.4138   48.5963    3.9017 C.3     1  UNL1        0.1556
     53 N         -29.1868   48.5748    1.4548 N.ar    1  UNL1       -0.1484
@<TRIPOS>BOND
     1    30    31    1
     2     1    31    1
     3     1     6    1
     4     6     7    2
     5     6     8   am
     6     8    10    1
     7    10    11   ar
     8    11    12   ar
     9    12    13   ar
    10    13    14   ar
    11    14    15   ar
    12    15    16   ar
    13    16    20    1
    14    20    21   ar
    15    21    22   ar
    16    22    23   ar
    17    23    26    1
    18    26    27    1
    19    27    28    1
    20    27    29    1
    21    23    24   ar
    22    24    25   ar
    23    16    17   ar
    24    17    18   ar
    25     1     2    1
    26     2     3    1
    27     3     4    1
    28     4    32    1
    29    32    33    1
    30    33    34    2
    31    33    35   am
    32    35    36    1
    33    36    37    1
    34    37    38    2
    35    38    42    1
    36    42    43   ar
    37    43    44   ar
    38    44    45   ar
    39    45    48    1
    40    48    49   ar
    41    49    50   ar
    42    50    51   ar
    43    51    52    1
    44    51    53   ar
    45    45    46   ar
    46    46    47   ar
    47    38    39    1
    48    39    40    1
    49    39    41    1
    50     4     5    1
    51     5     1    1
    52    18    10   ar
    53    41    35    1
    54    17    13   ar
    55    47    42   ar
    56    25    20   ar
    57    53    48   ar
    58     8     9    1
    59    14    19    1
@<TRIPOS>MOLECULE
*****
 53 59 0 0 0
SMALL
GASTEIGER

@<TRIPOS>ATOM
      1 C         -25.8694   50.7584   -8.2256 C.3     1  UNL1        0.1239
      2 C         -26.2596   52.1443   -8.7256 C.3     1  UNL1        0.0374
      3 C         -25.2600   52.4289   -9.8288 C.3     1  UNL1        0.0739
      4 N         -24.0097   51.7401   -9.4709 N.3     1  UNL1       -0.2638
      5 C         -24.3381   50.7952   -8.3845 C.3     1  UNL1        0.0913
      6 C         -26.5301   49.6880   -9.0839 C.2     1  UNL1        0.2359
      7 O         -26.9481   49.9657  -10.2418 O.2     1  UNL1       -0.2739
      8 N         -26.6112   48.3343   -8.6100 N.am    1  UNL1       -0.2832
      9 H         -25.8764   48.0027   -7.9449 H       1  UNL1        0.1549
     10 C         -27.6632   47.4231   -8.9728 C.ar    1  UNL1        0.0505
     11 C         -28.1091   46.4656   -8.0250 C.ar    1  UNL1        0.0162
     12 C         -29.1774   45.5986   -8.3215 C.ar    1  UNL1        0.0198
     13 C         -29.7707   45.7097   -9.5751 C.ar    1  UNL1        0.0754
     14 N         -30.8250   45.0335  -10.0582 N.ar    1  UNL1       -0.2757
     15 N         -31.0895   45.4811  -11.2806 N.ar    1  UNL1       -0.1726
     16 C         -30.1894   46.4488  -11.5843 C.ar    1  UNL1        0.1036
     17 C         -29.3429   46.6165  -10.5008 C.ar    1  UNL1        0.0376
     18 C         -28.3115   47.5144  -10.2289 C.ar    1  UNL1        0.0177
     19 H         -31.3687   44.2881   -9.5695 H       1  UNL1        0.1889
     20 C         -30.1524   47.1602  -12.8772 C.ar    1  UNL1        0.0388
     21 C         -30.3686   48.5431  -12.9316 C.ar    1  UNL1        0.0079
     22 C         -30.3309   49.2128  -14.1569 C.ar    1  UNL1        0.0578
     23 C         -30.0909   48.4848  -15.3365 C.ar    1  UNL1        0.2247
     24 N         -29.9181   47.1394  -15.2576 N.ar    1  UNL1       -0.2101
     25 C         -29.9426   46.4682  -14.0778 C.ar    1  UNL1        0.1036
     26 O         -30.0324   49.0845  -16.6044 O.3     1  UNL1       -0.4640
     27 C         -28.9515   48.9792  -17.5326 C.3     1  UNL1        0.1678
     28 C         -27.7760   49.8014  -17.0072 C.3     1  UNL1        0.0473
     29 C         -29.3832   49.4947  -18.9094 C.3     1  UNL1        0.0473
     30 C         -27.5020   52.0022   -6.3681 C.3     1  UNL1        0.0696
     31 S         -26.3797   50.5660   -6.4657 S.3     1  UNL1       -0.1308
     32 C         -23.4064   51.0699  -10.6419 C.3     1  UNL1        0.1587
     33 C         -21.9412   51.4072  -10.7709 C.2     1  UNL1        0.2423
     34 O         -21.1808   50.5983  -11.3723 O.2     1  UNL1       -0.2733
     35 N         -21.3841   52.6129  -10.1996 N.am    1  UNL1       -0.2731
     36 C         -20.0032   52.9822  -10.5585 C.3     1  UNL1        0.1196
     37 C         -19.5874   54.3397  -10.0467 C.2     1  UNL1       -0.0081
     38 C         -20.4417   55.2033   -9.4717 C.2     1  UNL1       -0.0129
     39 C         -21.9018   54.8502   -9.3431 C.3     1  UNL1        0.0988
     40 BR        -22.8455   55.4127  -10.9469 Br      1  UNL1       -0.0751
     41 C         -22.0695   53.3486   -9.1265 C.3     1  UNL1        0.1095
     42 C         -19.9682   56.5398   -9.0350 C.ar    1  UNL1       -0.0034
     43 C         -19.4368   56.7238   -7.7473 C.ar    1  UNL1       -0.0002
     44 C         -18.9823   57.9816   -7.3410 C.ar    1  UNL1        0.0031
     45 C         -19.0522   59.0803   -8.2138 C.ar    1  UNL1        0.0375
     46 C         -19.5870   58.8969   -9.4998 C.ar    1  UNL1        0.0031
     47 C         -20.0405   57.6391   -9.9057 C.ar    1  UNL1       -0.0002
     48 C         -18.5713   60.4112   -7.7847 C.ar    1  UNL1        0.1832
     49 N         -19.3255   61.2969   -7.0920 N.ar    1  UNL1       -0.2034
     50 C         -18.4847   62.3383   -6.9409 C.ar    1  UNL1        0.1972
     51 N         -17.2926   62.0831   -7.5025 N.ar    1  UNL1       -0.2281
     52 C         -16.1647   62.9978   -7.6049 C.3     1  UNL1        0.1556
     53 N         -17.3349   60.8830   -8.0493 N.ar    1  UNL1       -0.1484
@<TRIPOS>BOND
     1    30    31    1
     2     1    31    1
     3     1     6    1
     4     6     7    2
     5     6     8   am
     6     8    10    1
     7    10    11   ar
     8    11    12   ar
     9    12    13   ar
    10    13    14   ar
    11    14    15   ar
    12    15    16   ar
    13    16    20    1
    14    20    21   ar
    15    21    22   ar
    16    22    23   ar
    17    23    26    1
    18    26    27    1
    19    27    28    1
    20    27    29    1
    21    23    24   ar
    22    24    25   ar
    23    16    17   ar
    24    17    18   ar
    25     1     2    1
    26     2     3    1
    27     3     4    1
    28     4    32    1
    29    32    33    1
    30    33    34    2
    31    33    35   am
    32    35    36    1
    33    36    37    1
    34    37    38    2
    35    38    42    1
    36    42    43   ar
    37    43    44   ar
    38    44    45   ar
    39    45    48    1
    40    48    49   ar
    41    49    50   ar
    42    50    51   ar
    43    51    52    1
    44    51    53   ar
    45    45    46   ar
    46    46    47   ar
    47    38    39    1
    48    39    40    1
    49    39    41    1
    50     4     5    1
    51     5     1    1
    52    18    10   ar
    53    41    35    1
    54    17    13   ar
    55    47    42   ar
    56    25    20   ar
    57    53    48   ar
    58     8     9    1
    59    14    19    1
@<TRIPOS>MOLECULE
*****
 53 59 0 0 0
SMALL
GASTEIGER

@<TRIPOS>ATOM
      1 C         -25.7086   51.3772   -9.4958 C.3     1  UNL1        0.1239
      2 C         -25.9417   51.5783  -10.9886 C.3     1  UNL1        0.0374
      3 C         -24.5798   51.3326  -11.6069 C.3     1  UNL1        0.0739
      4 N         -23.5722   51.7552  -10.6211 N.3     1  UNL1       -0.2638
      5 C         -24.2765   51.9198   -9.3335 C.3     1  UNL1        0.0913
      6 C         -25.8278   49.9008   -9.1425 C.2     1  UNL1        0.2359
      7 O         -25.6481   49.0162  -10.0245 O.2     1  UNL1       -0.2739
      8 N         -26.0692   49.5033   -7.7833 N.am    1  UNL1       -0.2832
      9 H         -25.7321   50.1336   -7.0208 H       1  UNL1        0.1549
     10 C         -26.7764   48.3062   -7.4151 C.ar    1  UNL1        0.0505
     11 C         -26.6461   47.8017   -6.0951 C.ar    1  UNL1        0.0162
     12 C         -27.3704   46.6688   -5.6796 C.ar    1  UNL1        0.0198
     13 C         -28.2079   46.0608   -6.6096 C.ar    1  UNL1        0.0754
     14 N         -29.0260   45.0117   -6.4300 N.ar    1  UNL1       -0.2757
     15 N         -29.6777   44.7853   -7.5652 N.ar    1  UNL1       -0.1726
     16 C         -29.2658   45.6956   -8.4820 C.ar    1  UNL1        0.1036
     17 C         -28.3321   46.5273   -7.8860 C.ar    1  UNL1        0.0376
     18 C         -27.6575   47.6671   -8.3215 C.ar    1  UNL1        0.0177
     19 H         -29.1547   44.4604   -5.5527 H       1  UNL1        0.1889
     20 C         -29.7515   45.7362   -9.8753 C.ar    1  UNL1        0.0388
     21 C         -31.1252   45.7802  -10.1459 C.ar    1  UNL1        0.0079
     22 C         -31.5808   45.8204  -11.4658 C.ar    1  UNL1        0.0578
     23 C         -30.6498   45.7993  -12.5203 C.ar    1  UNL1        0.2247
     24 N         -29.3249   45.7223  -12.2290 N.ar    1  UNL1       -0.2101
     25 C         -28.8584   45.6902  -10.9544 C.ar    1  UNL1        0.1036
     26 O         -31.0270   45.8423  -13.8718 O.3     1  UNL1       -0.4640
     27 C         -30.2352   46.3492  -14.9475 C.3     1  UNL1        0.1678
     28 C         -30.4000   47.8670  -15.0010 C.3     1  UNL1        0.0473
     29 C         -30.6792   45.7226  -16.2733 C.3     1  UNL1        0.0473
     30 C         -28.4462   51.5096   -9.1079 C.3     1  UNL1        0.0696
     31 S         -26.9360   52.3612   -8.5368 S.3     1  UNL1       -0.1308
     32 C         -22.4574   50.7884  -10.5377 C.3     1  UNL1        0.1587
     33 C         -21.1421   51.4376  -10.8927 C.2     1  UNL1        0.2423
     34 O         -20.3942   50.8745  -11.7398 O.2     1  UNL1       -0.2733
     35 N         -20.7061   52.6662  -10.2676 N.am    1  UNL1       -0.2731
     36 C         -19.5272   53.3530  -10.8250 C.3     1  UNL1        0.1196
     37 C         -19.2674   54.7058  -10.2086 C.2     1  UNL1       -0.0081
     38 C         -20.1211   55.3052   -9.3611 C.2     1  UNL1       -0.0129
     39 C         -21.4286   54.6418   -9.0097 C.3     1  UNL1        0.0988
     40 BR        -22.7833   55.1596  -10.3043 Br      1  UNL1       -0.0751
     41 C         -21.2668   53.1242   -8.9876 C.3     1  UNL1        0.1095
     42 C         -19.8182   56.6577   -8.8316 C.ar    1  UNL1       -0.0034
     43 C         -19.9046   57.7865   -9.6638 C.ar    1  UNL1       -0.0002
     44 C         -19.6282   59.0609   -9.1607 C.ar    1  UNL1        0.0031
     45 C         -19.2581   59.2311   -7.8161 C.ar    1  UNL1        0.0375
     46 C         -19.1681   58.1019   -6.9853 C.ar    1  UNL1        0.0031
     47 C         -19.4452   56.8282   -7.4886 C.ar    1  UNL1       -0.0002
     48 C         -18.9658   60.5791   -7.2831 C.ar    1  UNL1        0.1832
     49 N         -17.9612   61.3660   -7.7354 N.ar    1  UNL1       -0.2034
     50 C         -18.0815   62.4629   -6.9629 C.ar    1  UNL1        0.1972
     51 N         -19.1072   62.3409   -6.1059 N.ar    1  UNL1       -0.2281
     52 C         -19.4931   63.2877   -5.0696 C.3     1  UNL1        0.1556
     53 N         -19.6641   61.1580   -6.2839 N.ar    1  UNL1       -0.1484
@<TRIPOS>BOND
     1    30    31    1
     2     1    31    1
     3     1     6    1
     4     6     7    2
     5     6     8   am
     6     8    10    1
     7    10    11   ar
     8    11    12   ar
     9    12    13   ar
    10    13    14   ar
    11    14    15   ar
    12    15    16   ar
    13    16    20    1
    14    20    21   ar
    15    21    22   ar
    16    22    23   ar
    17    23    26    1
    18    26    27    1
    19    27    28    1
    20    27    29    1
    21    23    24   ar
    22    24    25   ar
    23    16    17   ar
    24    17    18   ar
    25     1     2    1
    26     2     3    1
    27     3     4    1
    28     4    32    1
    29    32    33    1
    30    33    34    2
    31    33    35   am
    32    35    36    1
    33    36    37    1
    34    37    38    2
    35    38    42    1
    36    42    43   ar
    37    43    44   ar
    38    44    45   ar
    39    45    48    1
    40    48    49   ar
    41    49    50   ar
    42    50    51   ar
    43    51    52    1
    44    51    53   ar
    45    45    46   ar
    46    46    47   ar
    47    38    39    1
    48    39    40    1
    49    39    41    1
    50     4     5    1
    51     5     1    1
    52    18    10   ar
    53    41    35    1
    54    17    13   ar
    55    47    42   ar
    56    25    20   ar
    57    53    48   ar
    58     8     9    1
    59    14    19    1
@<TRIPOS>MOLECULE
*****
 53 59 0 0 0
SMALL
GASTEIGER

@<TRIPOS>ATOM
      1 C         -26.4433   51.4454   -9.7675 C.3     1  UNL1        0.1239
      2 C         -26.4663   50.9772  -11.2178 C.3     1  UNL1        0.0374
      3 C         -25.0093   50.7087  -11.5377 C.3     1  UNL1        0.0739
      4 N         -24.2080   51.6466  -10.7352 N.3     1  UNL1       -0.2638
      5 C         -25.1115   52.2171   -9.7158 C.3     1  UNL1        0.0913
      6 C         -26.4711   50.2455   -8.8304 C.2     1  UNL1        0.2359
      7 O         -25.4475   49.5207   -8.6899 O.2     1  UNL1       -0.2739
      8 N         -27.6401   49.9765   -8.0400 N.am    1  UNL1       -0.2832
      9 H         -28.2477   50.7838   -7.7728 H       1  UNL1        0.1549
     10 C         -28.0377   48.6579   -7.6256 C.ar    1  UNL1        0.0505
     11 C         -28.0095   47.5967   -8.5674 C.ar    1  UNL1        0.0162
     12 C         -28.3320   46.2815   -8.1840 C.ar    1  UNL1        0.0198
     13 C         -28.6856   46.0641   -6.8560 C.ar    1  UNL1        0.0754
     14 N         -28.9802   44.9007   -6.2544 N.ar    1  UNL1       -0.2757
     15 N         -29.2179   45.1383   -4.9692 N.ar    1  UNL1       -0.1726
     16 C         -29.0806   46.4693   -4.7493 C.ar    1  UNL1        0.1036
     17 C         -28.7302   47.0777   -5.9434 C.ar    1  UNL1        0.0376
     18 C         -28.3832   48.3856   -6.2791 C.ar    1  UNL1        0.0177
     19 H         -29.0105   43.9560   -6.6979 H       1  UNL1        0.1889
     20 C         -29.2983   47.1123   -3.4385 C.ar    1  UNL1        0.0388
     21 C         -30.5098   47.7570   -3.1579 C.ar    1  UNL1        0.0079
     22 C         -30.7126   48.3627   -1.9156 C.ar    1  UNL1        0.0578
     23 C         -29.6844   48.3344   -0.9558 C.ar    1  UNL1        0.2247
     24 N         -28.5075   47.7314   -1.2675 N.ar    1  UNL1       -0.2101
     25 C         -28.2904   47.1294   -2.4649 C.ar    1  UNL1        0.1036
     26 O         -29.8122   48.9147    0.3161 O.3     1  UNL1       -0.4640
     27 C         -30.3741   48.2885    1.4707 C.3     1  UNL1        0.1678
     28 C         -29.4404   48.5249    2.6565 C.3     1  UNL1        0.0473
     29 C         -30.5482   46.7859    1.2267 C.3     1  UNL1        0.0473
     30 C         -29.0098   51.8612  -10.7176 C.3     1  UNL1        0.0696
     31 S         -27.8911   52.5380   -9.4439 S.3     1  UNL1       -0.1308
     32 C         -23.0304   50.9809  -10.1399 C.3     1  UNL1        0.1587
     33 C         -21.7450   51.5347  -10.7043 C.2     1  UNL1        0.2423
     34 O         -21.1653   50.9034  -11.6314 O.2     1  UNL1       -0.2733
     35 N         -21.1485   52.7478  -10.1916 N.am    1  UNL1       -0.2731
     36 C         -20.0253   53.3428  -10.9377 C.3     1  UNL1        0.1196
     37 C         -19.5965   54.6911  -10.4122 C.2     1  UNL1       -0.0081
     38 C         -20.2785   55.3654   -9.4707 C.2     1  UNL1       -0.0129
     39 C         -21.5576   54.7968   -8.9105 C.3     1  UNL1        0.0988
     40 BR        -23.0544   55.3685  -10.0113 Br      1  UNL1       -0.0751
     41 C         -21.4860   53.2730   -8.8602 C.3     1  UNL1        0.1095
     42 C         -19.8200   56.7082   -9.0374 C.ar    1  UNL1       -0.0034
     43 C         -19.2690   56.8968   -7.7587 C.ar    1  UNL1       -0.0002
     44 C         -18.8288   58.1607   -7.3558 C.ar    1  UNL1        0.0031
     45 C         -18.9329   59.2612   -8.2231 C.ar    1  UNL1        0.0375
     46 C         -19.4873   59.0731   -9.5000 C.ar    1  UNL1        0.0031
     47 C         -19.9266   57.8092   -9.9026 C.ar    1  UNL1       -0.0002
     48 C         -18.4671   60.5986   -7.7976 C.ar    1  UNL1        0.1832
     49 N         -19.2415   61.4899   -7.1352 N.ar    1  UNL1       -0.2034
     50 C         -18.4079   62.5358   -6.9748 C.ar    1  UNL1        0.1972
     51 N         -17.2010   62.2778   -7.5025 N.ar    1  UNL1       -0.2281
     52 C         -16.0735   63.1948   -7.5865 C.3     1  UNL1        0.1556
     53 N         -17.2257   61.0711   -8.0358 N.ar    1  UNL1       -0.1484
@<TRIPOS>BOND
     1    30    31    1
     2     1    31    1
     3     1     6    1
     4     6     7    2
     5     6     8   am
     6     8    10    1
     7    10    11   ar
     8    11    12   ar
     9    12    13   ar
    10    13    14   ar
    11    14    15   ar
    12    15    16   ar
    13    16    20    1
    14    20    21   ar
    15    21    22   ar
    16    22    23   ar
    17    23    26    1
    18    26    27    1
    19    27    28    1
    20    27    29    1
    21    23    24   ar
    22    24    25   ar
    23    16    17   ar
    24    17    18   ar
    25     1     2    1
    26     2     3    1
    27     3     4    1
    28     4    32    1
    29    32    33    1
    30    33    34    2
    31    33    35   am
    32    35    36    1
    33    36    37    1
    34    37    38    2
    35    38    42    1
    36    42    43   ar
    37    43    44   ar
    38    44    45   ar
    39    45    48    1
    40    48    49   ar
    41    49    50   ar
    42    50    51   ar
    43    51    52    1
    44    51    53   ar
    45    45    46   ar
    46    46    47   ar
    47    38    39    1
    48    39    40    1
    49    39    41    1
    50     4     5    1
    51     5     1    1
    52    18    10   ar
    53    41    35    1
    54    17    13   ar
    55    47    42   ar
    56    25    20   ar
    57    53    48   ar
    58     8     9    1
    59    14    19    1
@<TRIPOS>MOLECULE
*****
 53 59 0 0 0
SMALL
GASTEIGER

@<TRIPOS>ATOM
      1 C         -25.3889   50.9116   -8.3936 C.3     1  UNL1        0.1239
      2 C         -25.8261   52.0943   -9.2498 C.3     1  UNL1        0.0374
      3 C         -24.7455   52.1982  -10.3076 C.3     1  UNL1        0.0739
      4 N         -23.4905   51.7356   -9.6939 N.3     1  UNL1       -0.2638
      5 C         -23.8559   51.0523   -8.4366 C.3     1  UNL1        0.0913
      6 C         -25.8831   49.6095   -9.0094 C.2     1  UNL1        0.2359
      7 O         -25.9247   49.4711  -10.2631 O.2     1  UNL1       -0.2739
      8 N         -26.2320   48.5009   -8.1651 N.am    1  UNL1       -0.2832
      9 H         -25.7538   48.4202   -7.2392 H       1  UNL1        0.1549
     10 C         -27.2241   47.5175   -8.5076 C.ar    1  UNL1        0.0505
     11 C         -27.4080   47.1628   -9.8693 C.ar    1  UNL1        0.0162
     12 C         -28.3251   46.1607  -10.2375 C.ar    1  UNL1        0.0198
     13 C         -29.0465   45.5407   -9.2222 C.ar    1  UNL1        0.0754
     14 N         -29.9295   44.5348   -9.3253 N.ar    1  UNL1       -0.2757
     15 N         -30.3515   44.2168   -8.1065 N.ar    1  UNL1       -0.1726
     16 C         -29.7365   45.0337   -7.2158 C.ar    1  UNL1        0.1036
     17 C         -28.8896   45.8818   -7.9102 C.ar    1  UNL1        0.0376
     18 C         -27.9653   46.8442   -7.5059 C.ar    1  UNL1        0.0177
     19 H         -30.2374   44.0587  -10.2020 H       1  UNL1        0.1889
     20 C         -29.9804   44.9946   -5.7605 C.ar    1  UNL1        0.0388
     21 C         -30.9714   44.1585   -5.2302 C.ar    1  UNL1        0.0079
     22 C         -31.1977   44.1230   -3.8523 C.ar    1  UNL1        0.0578
     23 C         -30.4343   44.9457   -3.0041 C.ar    1  UNL1        0.2247
     24 N         -29.5031   45.7714   -3.5490 N.ar    1  UNL1       -0.2101
     25 C         -29.2600   45.8174   -4.8840 C.ar    1  UNL1        0.1036
     26 O         -30.5974   44.9638   -1.6099 O.3     1  UNL1       -0.4640
     27 C         -30.0564   45.9373   -0.7150 C.3     1  UNL1        0.1678
     28 C         -30.6795   45.7309    0.6644 C.3     1  UNL1        0.0473
     29 C         -30.3574   47.3506   -1.2246 C.3     1  UNL1        0.0473
     30 C         -27.5790   52.0124   -7.1074 C.3     1  UNL1        0.0696
     31 S         -26.0551   51.1000   -6.6862 S.3     1  UNL1       -0.1308
     32 C         -22.7281   50.8635  -10.6119 C.3     1  UNL1        0.1587
     33 C         -21.3436   51.4093  -10.8618 C.2     1  UNL1        0.2423
     34 O         -20.5584   50.7596  -11.6070 O.2     1  UNL1       -0.2733
     35 N         -20.8863   52.6358  -10.2478 N.am    1  UNL1       -0.2731
     36 C         -19.6152   53.2182  -10.7139 C.3     1  UNL1        0.1196
     37 C         -19.3235   54.5793  -10.1310 C.2     1  UNL1       -0.0081
     38 C         -20.2113   55.2720   -9.3974 C.2     1  UNL1       -0.0129
     39 C         -21.5888   54.7113   -9.1497 C.3     1  UNL1        0.0988
     40 BR        -22.7747   55.2527  -10.5918 Br      1  UNL1       -0.0751
     41 C         -21.5342   53.1893   -9.0493 C.3     1  UNL1        0.1095
     42 C         -19.8686   56.6259   -8.8966 C.ar    1  UNL1       -0.0034
     43 C         -19.9741   57.7465   -9.7377 C.ar    1  UNL1       -0.0002
     44 C         -19.6600   59.0224   -9.2613 C.ar    1  UNL1        0.0031
     45 C         -19.2323   59.2024   -7.9352 C.ar    1  UNL1        0.0375
     46 C         -19.1232   58.0813   -7.0957 C.ar    1  UNL1        0.0031
     47 C         -19.4381   56.8061   -7.5722 C.ar    1  UNL1       -0.0002
     48 C         -18.9001   60.5520   -7.4305 C.ar    1  UNL1        0.1832
     49 N         -17.7807   61.2307   -7.7763 N.ar    1  UNL1       -0.2034
     50 C         -17.9092   62.3764   -7.0798 C.ar    1  UNL1        0.1972
     51 N         -19.0468   62.3846   -6.3675 N.ar    1  UNL1       -0.2281
     52 C         -19.4855   63.4169   -5.4396 C.3     1  UNL1        0.1556
     53 N         -19.6736   61.2404   -6.5651 N.ar    1  UNL1       -0.1484
@<TRIPOS>BOND
     1    30    31    1
     2     1    31    1
     3     1     6    1
     4     6     7    2
     5     6     8   am
     6     8    10    1
     7    10    11   ar
     8    11    12   ar
     9    12    13   ar
    10    13    14   ar
    11    14    15   ar
    12    15    16   ar
    13    16    20    1
    14    20    21   ar
    15    21    22   ar
    16    22    23   ar
    17    23    26    1
    18    26    27    1
    19    27    28    1
    20    27    29    1
    21    23    24   ar
    22    24    25   ar
    23    16    17   ar
    24    17    18   ar
    25     1     2    1
    26     2     3    1
    27     3     4    1
    28     4    32    1
    29    32    33    1
    30    33    34    2
    31    33    35   am
    32    35    36    1
    33    36    37    1
    34    37    38    2
    35    38    42    1
    36    42    43   ar
    37    43    44   ar
    38    44    45   ar
    39    45    48    1
    40    48    49   ar
    41    49    50   ar
    42    50    51   ar
    43    51    52    1
    44    51    53   ar
    45    45    46   ar
    46    46    47   ar
    47    38    39    1
    48    39    40    1
    49    39    41    1
    50     4     5    1
    51     5     1    1
    52    18    10   ar
    53    41    35    1
    54    17    13   ar
    55    47    42   ar
    56    25    20   ar
    57    53    48   ar
    58     8     9    1
    59    14    19    1
