@<TRIPOS>MOLECULE
*****
 50 55 0 0 0
SMALL
GASTEIGER

@<TRIPOS>ATOM
      1 C          61.3931   80.2112   14.4786 C.3     1  UNL1        0.1535
      2 N          60.3026   79.3616   12.3385 N.am    1  UNL1       -0.2825
      3 C          60.1651   79.9663   13.6357 C.2     1  UNL1        0.2443
      4 O          59.0448   80.3947   14.0266 O.2     1  UNL1       -0.2730
      5 H          61.2672   79.1162   12.0192 H       1  UNL1        0.1549
      6 C          58.1623   80.4395    9.4772 C.ar    1  UNL1        0.0900
      7 C          59.1873   80.4188   10.4322 C.ar    1  UNL1        0.0319
      8 C          59.2618   79.3625   11.3490 C.ar    1  UNL1        0.0532
      9 C          58.3352   78.3127   11.2572 C.ar    1  UNL1        0.0353
     10 C          57.3401   78.3581   10.2782 C.ar    1  UNL1        0.0998
     11 N          57.2750   79.4091    9.4188 N.ar    1  UNL1       -0.2456
     12 C          58.0657   81.5624    8.4919 C.3     1  UNL1        0.1876
     13 C          57.7624   83.5101    9.6795 C.3     1  UNL1        0.1747
     14 O          57.1106   82.4938    8.9517 O.3     1  UNL1       -0.3447
     15 N          61.6045   81.6508   14.6606 N.am    1  UNL1       -0.2945
     16 C          61.1909   82.6187   13.6825 C.2     1  UNL1        0.2483
     17 O          60.5053   82.2530   12.6885 O.2     1  UNL1       -0.2701
     18 H          61.8770   81.9960   15.6089 H       1  UNL1        0.1501
     19 C          61.5272   84.0521   13.8431 C.ar    1  UNL1        0.0808
     20 C          61.3561   84.6692   15.0938 C.ar    1  UNL1        0.0080
     21 C          61.6713   86.0188   15.2702 C.ar    1  UNL1        0.0148
     22 C          62.1493   86.7835   14.1957 C.ar    1  UNL1        0.0502
     23 C          62.3115   86.1729   12.9421 C.ar    1  UNL1        0.0443
     24 C          61.9993   84.8218   12.7617 C.ar    1  UNL1        0.1457
     25 F          62.1209   84.2859   11.5207 F       1  UNL1       -0.2040
     26 N          62.4859   88.1718   14.3805 N.pl3   1  UNL1       -0.3040
     27 C          62.8584   88.6563   15.7198 C.3     1  UNL1        0.1122
     28 C          63.4186   90.0821   15.6626 C.3     1  UNL1        0.1122
     29 N          64.3368   90.2094   14.5218 N.pl3   1  UNL1       -0.3040
     30 C          63.8971   89.7859   13.1820 C.3     1  UNL1        0.1122
     31 C          62.5312   89.0920   13.2351 C.3     1  UNL1        0.1122
     32 C          65.6865   90.6752   14.7127 C.ar    1  UNL1        0.0488
     33 C          66.0441   91.3563   15.8879 C.ar    1  UNL1        0.0154
     34 C          67.3565   91.7954   16.0790 C.ar    1  UNL1        0.0135
     35 C          68.3295   91.5579   15.1029 C.ar    1  UNL1        0.0683
     36 CL         69.9706   92.1258   15.3797 Cl      1  UNL1       -0.0814
     37 C          67.9838   90.8721   13.9267 C.ar    1  UNL1        0.0694
     38 CL         69.1765   90.5527   12.6744 Cl      1  UNL1       -0.0813
     39 C          66.6682   90.4321   13.7376 C.ar    1  UNL1        0.0268
     40 C          62.6379   79.5840   13.8261 C.3     1  UNL1        0.0569
     41 C          63.5123   80.6250   13.1837 C.ar    1  UNL1       -0.0017
     42 C          64.6927   81.1447   13.7064 C.ar    1  UNL1        0.0681
     43 N          65.2894   81.9604   12.8075 N.ar    1  UNL1       -0.3523
     44 C          64.5041   81.9494   11.7165 C.ar    1  UNL1        0.0563
     45 C          64.7305   82.6050   10.5069 C.ar    1  UNL1        0.0170
     46 C          63.7960   82.4179    9.4723 C.ar    1  UNL1        0.0015
     47 C          62.6719   81.5851    9.6654 C.ar    1  UNL1        0.0001
     48 C          62.4696   80.9350   10.8962 C.ar    1  UNL1        0.0012
     49 C          63.4103   81.1438   11.9059 C.ar    1  UNL1        0.0131
     50 H          66.1926   82.4699   12.9294 H       1  UNL1        0.1660
@<TRIPOS>BOND
     1    13    14    1
     2    14    12    1
     3    12     6    1
     4     6     7   ar
     5     7     8   ar
     6     8     2    1
     7     2     3   am
     8     3     4    2
     9     3     1    1
    10     1    40    1
    11    40    41    1
    12    41    42   ar
    13    42    43   ar
    14    43    44   ar
    15    44    45   ar
    16    45    46   ar
    17    46    47   ar
    18    47    48   ar
    19    48    49   ar
    20     1    15    1
    21    15    16   am
    22    16    17    2
    23    16    19    1
    24    19    20   ar
    25    20    21   ar
    26    21    22   ar
    27    22    26    1
    28    26    27    1
    29    27    28    1
    30    28    29    1
    31    29    32    1
    32    32    33   ar
    33    33    34   ar
    34    34    35   ar
    35    35    36    1
    36    35    37   ar
    37    37    38    1
    38    37    39   ar
    39    29    30    1
    40    30    31    1
    41    22    23   ar
    42    23    24   ar
    43    24    25    1
    44     8     9   ar
    45     9    10   ar
    46    10    11   ar
    47    11     6   ar
    48    49    41   ar
    49    24    19   ar
    50    49    44   ar
    51    31    26    1
    52    39    32   ar
    53     2     5    1
    54    43    50    1
    55    15    18    1
@<TRIPOS>MOLECULE
*****
 50 55 0 0 0
SMALL
GASTEIGER

@<TRIPOS>ATOM
      1 C          59.7098   80.6979   13.3193 C.3     1  UNL1        0.1535
      2 N          59.8268   80.3614   10.7965 N.am    1  UNL1       -0.2825
      3 C          59.0484   80.6809   11.9625 C.2     1  UNL1        0.2443
      4 O          57.8492   81.0553   11.8486 O.2     1  UNL1       -0.2730
      5 H          60.8423   80.1558   10.9345 H       1  UNL1        0.1549
      6 C          59.6887   81.7266    7.3257 C.ar    1  UNL1        0.0900
      7 C          60.1269   81.4618    8.6299 C.ar    1  UNL1        0.0319
      8 C          59.3816   80.6089    9.4538 C.ar    1  UNL1        0.0532
      9 C          58.2335   79.9908    8.9352 C.ar    1  UNL1        0.0353
     10 C          57.8396   80.2631    7.6233 C.ar    1  UNL1        0.0998
     11 N          58.5670   81.1163    6.8550 N.ar    1  UNL1       -0.2456
     12 C          60.4713   82.6384    6.4327 C.3     1  UNL1        0.1876
     13 C          62.1994   83.9418    7.2139 C.3     1  UNL1        0.1747
     14 O          60.7974   83.8104    7.1477 O.3     1  UNL1       -0.3447
     15 N          60.0903   82.0671   13.6808 N.am    1  UNL1       -0.2945
     16 C          60.2220   83.1123   12.7037 C.2     1  UNL1        0.2483
     17 O          59.8775   82.9012   11.5085 O.2     1  UNL1       -0.2701
     18 H          60.0674   82.3380   14.6902 H       1  UNL1        0.1501
     19 C          60.7239   84.4519   13.0875 C.ar    1  UNL1        0.0808
     20 C          61.9789   84.8817   12.6242 C.ar    1  UNL1        0.0080
     21 C          62.4707   86.1431   12.9691 C.ar    1  UNL1        0.0148
     22 C          61.7248   86.9947   13.7975 C.ar    1  UNL1        0.0502
     23 C          60.4753   86.5644   14.2708 C.ar    1  UNL1        0.0443
     24 C          59.9782   85.3035   13.9262 C.ar    1  UNL1        0.1457
     25 F          58.7901   84.9072   14.4490 F       1  UNL1       -0.2040
     26 N          62.2263   88.3000   14.1432 N.pl3   1  UNL1       -0.3040
     27 C          62.8176   88.5215   15.4731 C.3     1  UNL1        0.1122
     28 C          63.5123   89.8856   15.5558 C.3     1  UNL1        0.1122
     29 N          64.2836   90.1253   14.3276 N.pl3   1  UNL1       -0.3040
     30 C          63.6323   89.9693   13.0163 C.3     1  UNL1        0.1122
     31 C          62.2195   89.3916   13.1588 C.3     1  UNL1        0.1122
     32 C          65.6880   90.4394   14.3908 C.ar    1  UNL1        0.0488
     33 C          66.2632   90.8867   15.5916 C.ar    1  UNL1        0.0154
     34 C          67.6280   91.1777   15.6564 C.ar    1  UNL1        0.0135
     35 C          68.4372   91.0230   14.5262 C.ar    1  UNL1        0.0683
     36 CL         70.1507   91.3991   14.6470 Cl      1  UNL1       -0.0814
     37 C          67.8731   90.5701   13.3220 C.ar    1  UNL1        0.0694
     38 CL         68.8548   90.3617   11.8779 Cl      1  UNL1       -0.0813
     39 C          66.5053   90.2782   13.2595 C.ar    1  UNL1        0.0268
     40 C          60.9557   79.7945   13.3314 C.3     1  UNL1        0.0569
     41 C          62.2244   80.5989   13.3969 C.ar    1  UNL1       -0.0017
     42 C          63.0353   80.7672   14.5153 C.ar    1  UNL1        0.0681
     43 N          64.1621   81.4388   14.1858 N.ar    1  UNL1       -0.3523
     44 C          64.0771   81.6838   12.8668 C.ar    1  UNL1        0.0563
     45 C          65.0267   82.3122   12.0620 C.ar    1  UNL1        0.0170
     46 C          64.7532   82.4237   10.6867 C.ar    1  UNL1        0.0015
     47 C          63.5532   81.9060   10.1515 C.ar    1  UNL1        0.0001
     48 C          62.6137   81.2756   10.9871 C.ar    1  UNL1        0.0012
     49 C          62.9097   81.1845   12.3482 C.ar    1  UNL1        0.0131
     50 H          64.9499   81.6882   14.8241 H       1  UNL1        0.1660
@<TRIPOS>BOND
     1    13    14    1
     2    14    12    1
     3    12     6    1
     4     6     7   ar
     5     7     8   ar
     6     8     2    1
     7     2     3   am
     8     3     4    2
     9     3     1    1
    10     1    40    1
    11    40    41    1
    12    41    42   ar
    13    42    43   ar
    14    43    44   ar
    15    44    45   ar
    16    45    46   ar
    17    46    47   ar
    18    47    48   ar
    19    48    49   ar
    20     1    15    1
    21    15    16   am
    22    16    17    2
    23    16    19    1
    24    19    20   ar
    25    20    21   ar
    26    21    22   ar
    27    22    26    1
    28    26    27    1
    29    27    28    1
    30    28    29    1
    31    29    32    1
    32    32    33   ar
    33    33    34   ar
    34    34    35   ar
    35    35    36    1
    36    35    37   ar
    37    37    38    1
    38    37    39   ar
    39    29    30    1
    40    30    31    1
    41    22    23   ar
    42    23    24   ar
    43    24    25    1
    44     8     9   ar
    45     9    10   ar
    46    10    11   ar
    47    11     6   ar
    48    49    41   ar
    49    24    19   ar
    50    49    44   ar
    51    31    26    1
    52    39    32   ar
    53     2     5    1
    54    43    50    1
    55    15    18    1
@<TRIPOS>MOLECULE
*****
 50 55 0 0 0
SMALL
GASTEIGER

@<TRIPOS>ATOM
      1 C          61.0384   81.8992   14.4165 C.3     1  UNL1        0.1535
      2 N          59.7615   80.2458   12.9582 N.am    1  UNL1       -0.2825
      3 C          59.9419   81.5937   13.4252 C.2     1  UNL1        0.2443
      4 O          59.2675   82.5380   12.9305 O.2     1  UNL1       -0.2730
      5 H          60.4137   79.5157   13.3247 H       1  UNL1        0.1549
      6 C          58.0676   80.5011    9.6423 C.ar    1  UNL1        0.0900
      7 C          58.8577   80.8170   10.7554 C.ar    1  UNL1        0.0319
      8 C          58.9675   79.9036   11.8116 C.ar    1  UNL1        0.0532
      9 C          58.3237   78.6610   11.7086 C.ar    1  UNL1        0.0353
     10 C          57.5618   78.3737   10.5739 C.ar    1  UNL1        0.0998
     11 N          57.4505   79.2898    9.5761 N.ar    1  UNL1       -0.2456
     12 C          57.9364   81.4670    8.5061 C.3     1  UNL1        0.1876
     13 C          58.0010   83.7283    8.9279 C.3     1  UNL1        0.1747
     14 O          57.1832   82.5800    8.9361 O.3     1  UNL1       -0.3447
     15 N          61.6619   83.1886   14.1018 N.am    1  UNL1       -0.2945
     16 C          61.5513   84.3286   14.9693 C.2     1  UNL1        0.2483
     17 O          61.0165   84.2035   16.1052 O.2     1  UNL1       -0.2701
     18 H          62.3696   83.2227   13.3333 H       1  UNL1        0.1501
     19 C          62.0910   85.6468   14.5637 C.ar    1  UNL1        0.0808
     20 C          62.6182   86.5106   15.5385 C.ar    1  UNL1        0.0080
     21 C          63.1373   87.7569   15.1788 C.ar    1  UNL1        0.0148
     22 C          63.1256   88.1719   13.8388 C.ar    1  UNL1        0.0502
     23 C          62.5901   87.3159   12.8637 C.ar    1  UNL1        0.0443
     24 C          62.0715   86.0667   13.2190 C.ar    1  UNL1        0.1457
     25 F          61.5156   85.2938   12.2518 F       1  UNL1       -0.2040
     26 N          63.6719   89.4516   13.4662 N.pl3   1  UNL1       -0.3040
     27 C          64.9514   89.8913   14.0466 C.3     1  UNL1        0.1122
     28 C          65.4820   91.1461   13.3437 C.3     1  UNL1        0.1122
     29 N          65.3089   91.0118   11.8902 N.pl3   1  UNL1       -0.3040
     30 C          63.9911   90.6467   11.3442 C.3     1  UNL1        0.1122
     31 C          63.0030   90.2891   12.4603 C.3     1  UNL1        0.1122
     32 C          66.4308   91.1613   10.9991 C.ar    1  UNL1        0.0488
     33 C          67.5542   90.3275   11.1241 C.ar    1  UNL1        0.0154
     34 C          68.6360   90.4632   10.2508 C.ar    1  UNL1        0.0135
     35 C          68.6102   91.4292    9.2397 C.ar    1  UNL1        0.0683
     36 CL         69.9909   91.5695    8.1599 Cl      1  UNL1       -0.0814
     37 C          67.4889   92.2639    9.1020 C.ar    1  UNL1        0.0694
     38 CL         67.4157   93.4911    7.8445 Cl      1  UNL1       -0.0813
     39 C          66.4053   92.1256    9.9778 C.ar    1  UNL1        0.0268
     40 C          62.1073   80.7919   14.4079 C.3     1  UNL1        0.0569
     41 C          63.2465   81.1270   13.4856 C.ar    1  UNL1       -0.0017
     42 C          64.5917   80.8442   13.7028 C.ar    1  UNL1        0.0681
     43 N          65.3246   81.1644   12.6121 N.ar    1  UNL1       -0.3523
     44 C          64.4528   81.6335   11.7026 C.ar    1  UNL1        0.0563
     45 C          64.7319   82.0469   10.4005 C.ar    1  UNL1        0.0170
     46 C          63.6544   82.4608    9.5965 C.ar    1  UNL1        0.0015
     47 C          62.3366   82.4473   10.1039 C.ar    1  UNL1        0.0001
     48 C          62.0843   82.0239   11.4213 C.ar    1  UNL1        0.0012
     49 C          63.1735   81.6242   12.1972 C.ar    1  UNL1        0.0131
     50 H          66.3548   81.0423   12.4937 H       1  UNL1        0.1660
@<TRIPOS>BOND
     1    13    14    1
     2    14    12    1
     3    12     6    1
     4     6     7   ar
     5     7     8   ar
     6     8     2    1
     7     2     3   am
     8     3     4    2
     9     3     1    1
    10     1    40    1
    11    40    41    1
    12    41    42   ar
    13    42    43   ar
    14    43    44   ar
    15    44    45   ar
    16    45    46   ar
    17    46    47   ar
    18    47    48   ar
    19    48    49   ar
    20     1    15    1
    21    15    16   am
    22    16    17    2
    23    16    19    1
    24    19    20   ar
    25    20    21   ar
    26    21    22   ar
    27    22    26    1
    28    26    27    1
    29    27    28    1
    30    28    29    1
    31    29    32    1
    32    32    33   ar
    33    33    34   ar
    34    34    35   ar
    35    35    36    1
    36    35    37   ar
    37    37    38    1
    38    37    39   ar
    39    29    30    1
    40    30    31    1
    41    22    23   ar
    42    23    24   ar
    43    24    25    1
    44     8     9   ar
    45     9    10   ar
    46    10    11   ar
    47    11     6   ar
    48    49    41   ar
    49    24    19   ar
    50    49    44   ar
    51    31    26    1
    52    39    32   ar
    53     2     5    1
    54    43    50    1
    55    15    18    1
@<TRIPOS>MOLECULE
*****
 50 55 0 0 0
SMALL
GASTEIGER

@<TRIPOS>ATOM
      1 C          60.0046   83.8809   11.5734 C.3     1  UNL1        0.1535
      2 N          60.5291   85.5533   13.4225 N.am    1  UNL1       -0.2825
      3 C          60.8766   84.3528   12.7115 C.2     1  UNL1        0.2443
      4 O          61.9602   83.7551   12.9563 O.2     1  UNL1       -0.2730
      5 H          59.6730   86.0675   13.1136 H       1  UNL1        0.1549
      6 C          63.0927   87.9750   14.6441 C.ar    1  UNL1        0.0900
      7 C          62.1935   87.3088   13.8012 C.ar    1  UNL1        0.0319
      8 C          61.4316   86.2445   14.3000 C.ar    1  UNL1        0.0532
      9 C          61.5456   85.9002   15.6555 C.ar    1  UNL1        0.0353
     10 C          62.4377   86.6013   16.4699 C.ar    1  UNL1        0.0998
     11 N          63.1846   87.6122   15.9527 N.ar    1  UNL1       -0.2456
     12 C          63.9173   89.1124   14.1268 C.3     1  UNL1        0.1876
     13 C          63.9900   89.8335   11.9427 C.3     1  UNL1        0.1747
     14 O          63.1985   89.7725   13.1076 O.3     1  UNL1       -0.3447
     15 N          59.6781   85.0018   10.6861 N.am    1  UNL1       -0.2945
     16 C          60.0691   85.0276    9.3037 C.2     1  UNL1        0.2483
     17 O          60.5964   84.0073    8.7814 O.2     1  UNL1       -0.2701
     18 H          58.9732   85.7020   11.0106 H       1  UNL1        0.1501
     19 C          59.8279   86.2267    8.4686 C.ar    1  UNL1        0.0808
     20 C          58.7387   86.2467    7.5811 C.ar    1  UNL1        0.0080
     21 C          58.4886   87.3686    6.7869 C.ar    1  UNL1        0.0148
     22 C          59.3318   88.4878    6.8521 C.ar    1  UNL1        0.0502
     23 C          60.4270   88.4673    7.7300 C.ar    1  UNL1        0.0443
     24 C          60.6797   87.3473    8.5282 C.ar    1  UNL1        0.1457
     25 F          61.7795   87.3496    9.3233 F       1  UNL1       -0.2040
     26 N          59.0670   89.6493    6.0424 N.pl3   1  UNL1       -0.3040
     27 C          60.1076   90.6792    5.8883 C.3     1  UNL1        0.1122
     28 C          59.7331   91.6941    4.8022 C.3     1  UNL1        0.1122
     29 N          59.1755   90.9918    3.6374 N.pl3   1  UNL1       -0.3040
     30 C          58.0801   90.0260    3.8249 C.3     1  UNL1        0.1122
     31 C          57.7983   89.7816    5.3117 C.3     1  UNL1        0.1122
     32 C          59.7375   91.1831    2.3250 C.ar    1  UNL1        0.0488
     33 C          61.1298   91.2448    2.1498 C.ar    1  UNL1        0.0154
     34 C          61.6751   91.4161    0.8751 C.ar    1  UNL1        0.0135
     35 C          60.8397   91.5244   -0.2413 C.ar    1  UNL1        0.0683
     36 CL         61.5633   91.7390   -1.8295 Cl      1  UNL1       -0.0814
     37 C          59.4460   91.4577   -0.0780 C.ar    1  UNL1        0.0694
     38 CL         58.3601   91.5893   -1.4549 Cl      1  UNL1       -0.0813
     39 C          58.9017   91.2851    1.2004 C.ar    1  UNL1        0.0268
     40 C          58.7068   83.2473   12.1054 C.3     1  UNL1        0.0569
     41 C          58.3268   82.0203   11.3238 C.ar    1  UNL1       -0.0017
     42 C          57.9869   81.9763    9.9751 C.ar    1  UNL1        0.0681
     43 N          57.8323   80.6958    9.5677 N.ar    1  UNL1       -0.3523
     44 C          58.0855   79.9301   10.6432 C.ar    1  UNL1        0.0563
     45 C          58.0972   78.5371   10.7037 C.ar    1  UNL1        0.0170
     46 C          58.4364   77.9347   11.9288 C.ar    1  UNL1        0.0015
     47 C          58.7580   78.7285   13.0516 C.ar    1  UNL1        0.0001
     48 C          58.7393   80.1320   12.9612 C.ar    1  UNL1        0.0012
     49 C          58.3936   80.7015   11.7346 C.ar    1  UNL1        0.0131
     50 H          57.5939   80.3712    8.6044 H       1  UNL1        0.1660
@<TRIPOS>BOND
     1    13    14    1
     2    14    12    1
     3    12     6    1
     4     6     7   ar
     5     7     8   ar
     6     8     2    1
     7     2     3   am
     8     3     4    2
     9     3     1    1
    10     1    40    1
    11    40    41    1
    12    41    42   ar
    13    42    43   ar
    14    43    44   ar
    15    44    45   ar
    16    45    46   ar
    17    46    47   ar
    18    47    48   ar
    19    48    49   ar
    20     1    15    1
    21    15    16   am
    22    16    17    2
    23    16    19    1
    24    19    20   ar
    25    20    21   ar
    26    21    22   ar
    27    22    26    1
    28    26    27    1
    29    27    28    1
    30    28    29    1
    31    29    32    1
    32    32    33   ar
    33    33    34   ar
    34    34    35   ar
    35    35    36    1
    36    35    37   ar
    37    37    38    1
    38    37    39   ar
    39    29    30    1
    40    30    31    1
    41    22    23   ar
    42    23    24   ar
    43    24    25    1
    44     8     9   ar
    45     9    10   ar
    46    10    11   ar
    47    11     6   ar
    48    49    41   ar
    49    24    19   ar
    50    49    44   ar
    51    31    26    1
    52    39    32   ar
    53     2     5    1
    54    43    50    1
    55    15    18    1
@<TRIPOS>MOLECULE
*****
 50 55 0 0 0
SMALL
GASTEIGER

@<TRIPOS>ATOM
      1 C          59.9300   83.8772   11.4966 C.3     1  UNL1        0.1535
      2 N          60.4921   85.5723   13.3136 N.am    1  UNL1       -0.2825
      3 C          60.7915   84.3328   12.6493 C.2     1  UNL1        0.2443
      4 O          61.8301   83.6817   12.9470 O.2     1  UNL1       -0.2730
      5 H          59.6776   86.1251   12.9618 H       1  UNL1        0.1549
      6 C          63.2352   87.7905   14.5318 C.ar    1  UNL1        0.0900
      7 C          62.3260   87.1535   13.6772 C.ar    1  UNL1        0.0319
      8 C          61.4051   86.2371   14.2007 C.ar    1  UNL1        0.0532
      9 C          61.3757   86.0150   15.5859 C.ar    1  UNL1        0.0353
     10 C          62.2843   86.6846   16.4086 C.ar    1  UNL1        0.0998
     11 N          63.1852   87.5482   15.8701 N.ar    1  UNL1       -0.2456
     12 C          64.2285   88.7701   13.9888 C.3     1  UNL1        0.1876
     13 C          64.0700   89.9543   12.0220 C.3     1  UNL1        0.1747
     14 O          63.5358   89.8000   13.3174 O.3     1  UNL1       -0.3447
     15 N          59.6202   85.0086   10.6167 N.am    1  UNL1       -0.2945
     16 C          60.0086   85.0362    9.2336 C.2     1  UNL1        0.2483
     17 O          60.5178   84.0105    8.7041 O.2     1  UNL1       -0.2701
     18 H          58.9277   85.7185   10.9469 H       1  UNL1        0.1501
     19 C          59.7856   86.2441    8.4061 C.ar    1  UNL1        0.0808
     20 C          58.6906   86.2904    7.5267 C.ar    1  UNL1        0.0080
     21 C          58.4574   87.4211    6.7400 C.ar    1  UNL1        0.0148
     22 C          59.3233   88.5229    6.8045 C.ar    1  UNL1        0.0502
     23 C          60.4242   88.4760    7.6742 C.ar    1  UNL1        0.0443
     24 C          60.6601   87.3471    8.4651 C.ar    1  UNL1        0.1457
     25 F          61.7655   87.3233    9.2521 F       1  UNL1       -0.2040
     26 N          59.0761   89.6935    6.0024 N.pl3   1  UNL1       -0.3040
     27 C          60.1460   90.6884    5.8212 C.3     1  UNL1        0.1122
     28 C          59.7769   91.7165    4.7457 C.3     1  UNL1        0.1122
     29 N          59.1657   91.0346    3.5958 N.pl3   1  UNL1       -0.3040
     30 C          58.0440   90.1056    3.8119 C.3     1  UNL1        0.1122
     31 C          57.7937   89.8689    5.3056 C.3     1  UNL1        0.1122
     32 C          59.6989   91.2087    2.2690 C.ar    1  UNL1        0.0488
     33 C          58.8388   91.2822    1.1611 C.ar    1  UNL1        0.0154
     34 C          59.3553   91.4652   -0.1240 C.ar    1  UNL1        0.0135
     35 C          60.7351   91.5810   -0.3203 C.ar    1  UNL1        0.0683
     36 CL         61.3473   91.8108   -1.9526 Cl      1  UNL1       -0.0814
     37 C          61.6037   91.5152    0.7818 C.ar    1  UNL1        0.0694
     38 CL         63.3449   91.6562    0.5791 Cl      1  UNL1       -0.0813
     39 C          61.0839   91.3326    2.0688 C.ar    1  UNL1        0.0268
     40 C          58.6225   83.2461   12.0074 C.3     1  UNL1        0.0569
     41 C          58.2756   81.9957   11.2477 C.ar    1  UNL1       -0.0017
     42 C          57.9606   81.9156    9.8946 C.ar    1  UNL1        0.0681
     43 N          57.8331   80.6239    9.5142 N.ar    1  UNL1       -0.3523
     44 C          58.0788   79.8869   10.6112 C.ar    1  UNL1        0.0563
     45 C          58.1111   78.4960   10.7041 C.ar    1  UNL1        0.0170
     46 C          58.4376   77.9272   11.9484 C.ar    1  UNL1        0.0015
     47 C          58.7268   78.7513   13.0581 C.ar    1  UNL1        0.0001
     48 C          58.6879   80.1519   12.9351 C.ar    1  UNL1        0.0012
     49 C          58.3555   80.6878   11.6898 C.ar    1  UNL1        0.0131
     50 H          57.6170   80.2737    8.5545 H       1  UNL1        0.1660
@<TRIPOS>BOND
     1    13    14    1
     2    14    12    1
     3    12     6    1
     4     6     7   ar
     5     7     8   ar
     6     8     2    1
     7     2     3   am
     8     3     4    2
     9     3     1    1
    10     1    40    1
    11    40    41    1
    12    41    42   ar
    13    42    43   ar
    14    43    44   ar
    15    44    45   ar
    16    45    46   ar
    17    46    47   ar
    18    47    48   ar
    19    48    49   ar
    20     1    15    1
    21    15    16   am
    22    16    17    2
    23    16    19    1
    24    19    20   ar
    25    20    21   ar
    26    21    22   ar
    27    22    26    1
    28    26    27    1
    29    27    28    1
    30    28    29    1
    31    29    32    1
    32    32    33   ar
    33    33    34   ar
    34    34    35   ar
    35    35    36    1
    36    35    37   ar
    37    37    38    1
    38    37    39   ar
    39    29    30    1
    40    30    31    1
    41    22    23   ar
    42    23    24   ar
    43    24    25    1
    44     8     9   ar
    45     9    10   ar
    46    10    11   ar
    47    11     6   ar
    48    49    41   ar
    49    24    19   ar
    50    49    44   ar
    51    31    26    1
    52    39    32   ar
    53     2     5    1
    54    43    50    1
    55    15    18    1
@<TRIPOS>MOLECULE
*****
 50 55 0 0 0
SMALL
GASTEIGER

@<TRIPOS>ATOM
      1 C          61.0693   81.5195    8.2243 C.3     1  UNL1        0.1535
      2 N          59.7029   80.4848   10.1094 N.am    1  UNL1       -0.2825
      3 C          60.8460   80.4247    9.2393 C.2     1  UNL1        0.2443
      4 O          61.7202   79.5283    9.3922 O.2     1  UNL1       -0.2730
      5 H          59.0612   81.3039   10.0089 H       1  UNL1        0.1549
      6 C          60.3633   79.0281   13.4816 C.ar    1  UNL1        0.0900
      7 C          60.4804   79.8259   12.3358 C.ar    1  UNL1        0.0319
      8 C          59.5613   79.6784   11.2892 C.ar    1  UNL1        0.0532
      9 C          58.5037   78.7673   11.4332 C.ar    1  UNL1        0.0353
     10 C          58.4080   78.0044   12.5992 C.ar    1  UNL1        0.0998
     11 N          59.3298   78.1488   13.5874 N.ar    1  UNL1       -0.2456
     12 C          61.3388   79.1701   14.6081 C.3     1  UNL1        0.1876
     13 C          63.2481   80.4190   14.9092 C.3     1  UNL1        0.1747
     14 O          61.8771   80.4743   14.5858 O.3     1  UNL1       -0.3447
     15 N          61.3787   82.7830    8.9010 N.am    1  UNL1       -0.2945
     16 C          61.9039   82.8313   10.2376 C.2     1  UNL1        0.2483
     17 O          62.2404   81.7631   10.8187 O.2     1  UNL1       -0.2701
     18 H          61.4102   83.6572    8.3288 H       1  UNL1        0.1501
     19 C          62.0916   84.1251   10.9335 C.ar    1  UNL1        0.0808
     20 C          61.9585   85.3253   10.2151 C.ar    1  UNL1        0.0080
     21 C          62.1262   86.5577   10.8515 C.ar    1  UNL1        0.0148
     22 C          62.4461   86.6153   12.2161 C.ar    1  UNL1        0.0502
     23 C          62.5903   85.4180   12.9346 C.ar    1  UNL1        0.0443
     24 C          62.4211   84.1824   12.3021 C.ar    1  UNL1        0.1457
     25 F          62.6218   83.0497   13.0223 F       1  UNL1       -0.2040
     26 N          62.6071   87.8860   12.8750 N.pl3   1  UNL1       -0.3040
     27 C          62.8748   87.9244   14.3222 C.3     1  UNL1        0.1122
     28 C          63.2610   89.3349   14.7819 C.3     1  UNL1        0.1122
     29 N          64.1939   89.9338   13.8166 N.pl3   1  UNL1       -0.3040
     30 C          63.8521   89.9457   12.3845 C.3     1  UNL1        0.1122
     31 C          62.5787   89.1389   12.1067 C.3     1  UNL1        0.1122
     32 C          65.4708   90.4431   14.2469 C.ar    1  UNL1        0.0488
     33 C          65.6028   91.0650   15.4994 C.ar    1  UNL1        0.0154
     34 C          66.8442   91.5461   15.9225 C.ar    1  UNL1        0.0135
     35 C          67.9702   91.4101   15.1041 C.ar    1  UNL1        0.0683
     36 CL         69.5156   92.0281   15.6715 Cl      1  UNL1       -0.0814
     37 C          67.8504   90.7840   13.8523 C.ar    1  UNL1        0.0694
     38 CL         69.2407   90.5924   12.7927 Cl      1  UNL1       -0.0813
     39 C          66.6055   90.3017   13.4307 C.ar    1  UNL1        0.0268
     40 C          59.8275   81.7004    7.3333 C.3     1  UNL1        0.0569
     41 C          59.0290   82.9104    7.7326 C.ar    1  UNL1       -0.0017
     42 C          57.8275   82.9084    8.4347 C.ar    1  UNL1        0.0681
     43 N          57.4553   84.1727    8.7390 N.ar    1  UNL1       -0.3523
     44 C          58.4180   84.9723    8.2481 C.ar    1  UNL1        0.0563
     45 C          58.4993   86.3601    8.3563 C.ar    1  UNL1        0.0170
     46 C          59.6256   86.9980    7.8057 C.ar    1  UNL1        0.0015
     47 C          60.6367   86.2432    7.1715 C.ar    1  UNL1        0.0001
     48 C          60.5290   84.8438    7.0782 C.ar    1  UNL1        0.0012
     49 C          59.3977   84.2391    7.6285 C.ar    1  UNL1        0.0131
     50 H          56.6065   84.4625    9.2734 H       1  UNL1        0.1660
@<TRIPOS>BOND
     1    13    14    1
     2    14    12    1
     3    12     6    1
     4     6     7   ar
     5     7     8   ar
     6     8     2    1
     7     2     3   am
     8     3     4    2
     9     3     1    1
    10     1    40    1
    11    40    41    1
    12    41    42   ar
    13    42    43   ar
    14    43    44   ar
    15    44    45   ar
    16    45    46   ar
    17    46    47   ar
    18    47    48   ar
    19    48    49   ar
    20     1    15    1
    21    15    16   am
    22    16    17    2
    23    16    19    1
    24    19    20   ar
    25    20    21   ar
    26    21    22   ar
    27    22    26    1
    28    26    27    1
    29    27    28    1
    30    28    29    1
    31    29    32    1
    32    32    33   ar
    33    33    34   ar
    34    34    35   ar
    35    35    36    1
    36    35    37   ar
    37    37    38    1
    38    37    39   ar
    39    29    30    1
    40    30    31    1
    41    22    23   ar
    42    23    24   ar
    43    24    25    1
    44     8     9   ar
    45     9    10   ar
    46    10    11   ar
    47    11     6   ar
    48    49    41   ar
    49    24    19   ar
    50    49    44   ar
    51    31    26    1
    52    39    32   ar
    53     2     5    1
    54    43    50    1
    55    15    18    1
@<TRIPOS>MOLECULE
*****
 50 55 0 0 0
SMALL
GASTEIGER

@<TRIPOS>ATOM
      1 C          60.7782   82.0936   14.1294 C.3     1  UNL1        0.1535
      2 N          60.2869   82.2738   11.6359 N.am    1  UNL1       -0.2825
      3 C          59.8449   81.9155   12.9564 C.2     1  UNL1        0.2443
      4 O          58.6511   81.5612   13.1575 O.2     1  UNL1       -0.2730
      5 H          61.2541   82.6580   11.5374 H       1  UNL1        0.1549
      6 C          58.4615   83.8315    8.7775 C.ar    1  UNL1        0.0900
      7 C          59.3404   83.6628    9.8554 C.ar    1  UNL1        0.0319
      8 C          59.3993   82.4301   10.5179 C.ar    1  UNL1        0.0532
      9 C          58.6116   81.3666   10.0515 C.ar    1  UNL1        0.0353
     10 C          57.7627   81.5670    8.9607 C.ar    1  UNL1        0.0998
     11 N          57.7057   82.7818    8.3538 N.ar    1  UNL1       -0.2456
     12 C          58.3832   85.1432    8.0602 C.3     1  UNL1        0.1876
     13 C          59.5603   87.0550    7.5550 C.3     1  UNL1        0.1747
     14 O          59.5355   85.8995    8.3623 O.3     1  UNL1       -0.3447
     15 N          61.5253   83.3484   13.9971 N.am    1  UNL1       -0.2945
     16 C          61.0771   84.5769   14.5924 C.2     1  UNL1        0.2483
     17 O          60.0812   84.5723   15.3670 O.2     1  UNL1       -0.2701
     18 H          62.5052   83.3063   13.6356 H       1  UNL1        0.1501
     19 C          61.7920   85.8489   14.3386 C.ar    1  UNL1        0.0808
     20 C          62.0191   86.2654   13.0159 C.ar    1  UNL1        0.0080
     21 C          62.6868   87.4639   12.7522 C.ar    1  UNL1        0.0148
     22 C          63.1553   88.2633   13.8055 C.ar    1  UNL1        0.0502
     23 C          62.9394   87.8451   15.1280 C.ar    1  UNL1        0.0443
     24 C          62.2696   86.6473   15.3965 C.ar    1  UNL1        0.1457
     25 F          62.1296   86.2554   16.6883 F       1  UNL1       -0.2040
     26 N          63.8329   89.5050   13.5339 N.pl3   1  UNL1       -0.3040
     27 C          65.1941   89.7176   14.0529 C.3     1  UNL1        0.1122
     28 C          65.8308   90.9763   13.4527 C.3     1  UNL1        0.1122
     29 N          65.5445   91.0391   12.0123 N.pl3   1  UNL1       -0.3040
     30 C          64.1573   90.9004   11.5387 C.3     1  UNL1        0.1122
     31 C          63.2093   90.5304   12.6851 C.3     1  UNL1        0.1122
     32 C          66.6136   91.1611   11.0547 C.ar    1  UNL1        0.0488
     33 C          67.7212   90.2992   11.1119 C.ar    1  UNL1        0.0154
     34 C          68.7512   90.4085   10.1744 C.ar    1  UNL1        0.0135
     35 C          68.6883   91.3757    9.1661 C.ar    1  UNL1        0.0683
     36 CL         70.0040   91.4823    8.0044 Cl      1  UNL1       -0.0814
     37 C          67.5820   92.2386    9.0962 C.ar    1  UNL1        0.0694
     38 CL         67.4635   93.4682    7.8446 Cl      1  UNL1       -0.0813
     39 C          66.5505   92.1267   10.0362 C.ar    1  UNL1        0.0268
     40 C          61.7616   80.9140   14.2295 C.3     1  UNL1        0.0569
     41 C          61.3889   79.7991   13.2919 C.ar    1  UNL1       -0.0017
     42 C          60.4791   78.7778   13.5483 C.ar    1  UNL1        0.0681
     43 N          60.2867   78.0265   12.4402 N.ar    1  UNL1       -0.3523
     44 C          61.0558   78.5724   11.4823 C.ar    1  UNL1        0.0563
     45 C          61.1568   78.1720   10.1505 C.ar    1  UNL1        0.0170
     46 C          61.9926   78.9188    9.3006 C.ar    1  UNL1        0.0015
     47 C          62.6965   80.0396    9.7934 C.ar    1  UNL1        0.0001
     48 C          62.5745   80.4214   11.1416 C.ar    1  UNL1        0.0012
     49 C          61.7425   79.6583   11.9624 C.ar    1  UNL1        0.0131
     50 H          59.6466   77.2071   12.3443 H       1  UNL1        0.1660
@<TRIPOS>BOND
     1    13    14    1
     2    14    12    1
     3    12     6    1
     4     6     7   ar
     5     7     8   ar
     6     8     2    1
     7     2     3   am
     8     3     4    2
     9     3     1    1
    10     1    40    1
    11    40    41    1
    12    41    42   ar
    13    42    43   ar
    14    43    44   ar
    15    44    45   ar
    16    45    46   ar
    17    46    47   ar
    18    47    48   ar
    19    48    49   ar
    20     1    15    1
    21    15    16   am
    22    16    17    2
    23    16    19    1
    24    19    20   ar
    25    20    21   ar
    26    21    22   ar
    27    22    26    1
    28    26    27    1
    29    27    28    1
    30    28    29    1
    31    29    32    1
    32    32    33   ar
    33    33    34   ar
    34    34    35   ar
    35    35    36    1
    36    35    37   ar
    37    37    38    1
    38    37    39   ar
    39    29    30    1
    40    30    31    1
    41    22    23   ar
    42    23    24   ar
    43    24    25    1
    44     8     9   ar
    45     9    10   ar
    46    10    11   ar
    47    11     6   ar
    48    49    41   ar
    49    24    19   ar
    50    49    44   ar
    51    31    26    1
    52    39    32   ar
    53     2     5    1
    54    43    50    1
    55    15    18    1
@<TRIPOS>MOLECULE
*****
 50 55 0 0 0
SMALL
GASTEIGER

@<TRIPOS>ATOM
      1 C          62.1418   86.5147   13.9550 C.3     1  UNL1        0.1535
      2 N          63.2208   88.8222   13.9056 N.am    1  UNL1       -0.2825
      3 C          63.2389   87.4630   14.3742 C.2     1  UNL1        0.2443
      4 O          64.2195   87.0278   15.0378 O.2     1  UNL1       -0.2730
      5 H          62.4371   89.1058   13.2746 H       1  UNL1        0.1549
      6 C          66.1981   90.8402   12.9093 C.ar    1  UNL1        0.0900
      7 C          65.0817   89.9972   12.8324 C.ar    1  UNL1        0.0319
      8 C          64.3501   89.7053   13.9906 C.ar    1  UNL1        0.0532
      9 C          64.7201   90.3096   15.2018 C.ar    1  UNL1        0.0353
     10 C          65.8267   91.1611   15.2350 C.ar    1  UNL1        0.0998
     11 N          66.5348   91.4052   14.1009 N.ar    1  UNL1       -0.2456
     12 C          66.9934   91.1602   11.6820 C.3     1  UNL1        0.1876
     13 C          66.4710   92.5439    9.9191 C.3     1  UNL1        0.1747
     14 O          66.1074   91.3662   10.6033 O.3     1  UNL1       -0.3447
     15 N          61.5051   86.9890   12.7221 N.am    1  UNL1       -0.2945
     16 C          61.7475   86.3749   11.4460 C.2     1  UNL1        0.2483
     17 O          62.4233   85.3115   11.3793 O.2     1  UNL1       -0.2701
     18 H          60.7042   87.6558   12.8025 H       1  UNL1        0.1501
     19 C          61.1825   86.9535   10.2052 C.ar    1  UNL1        0.0808
     20 C          61.6970   88.1622    9.7063 C.ar    1  UNL1        0.0080
     21 C          61.1832   88.7244    8.5350 C.ar    1  UNL1        0.0148
     22 C          60.1336   88.0979    7.8468 C.ar    1  UNL1        0.0502
     23 C          59.6101   86.8957    8.3481 C.ar    1  UNL1        0.0443
     24 C          60.1228   86.3284    9.5189 C.ar    1  UNL1        0.1457
     25 F          59.5517   85.1937    9.9965 F       1  UNL1       -0.2040
     26 N          59.6120   88.6710    6.6326 N.pl3   1  UNL1       -0.3040
     27 C          59.2379   90.0946    6.6043 C.3     1  UNL1        0.1122
     28 C          58.9484   90.5681    5.1753 C.3     1  UNL1        0.1122
     29 N          59.9612   90.0264    4.2579 N.pl3   1  UNL1       -0.3040
     30 C          60.2502   88.5826    4.2624 C.3     1  UNL1        0.1122
     31 C          59.5175   87.8691    5.4042 C.3     1  UNL1        0.1122
     32 C          60.7259   90.9016    3.4069 C.ar    1  UNL1        0.0488
     33 C          62.1271   90.8111    3.3693 C.ar    1  UNL1        0.0154
     34 C          62.8675   91.6505    2.5333 C.ar    1  UNL1        0.0135
     35 C          62.2205   92.5879    1.7217 C.ar    1  UNL1        0.0683
     36 CL         63.1868   93.6266    0.6827 Cl      1  UNL1       -0.0814
     37 C          60.8192   92.6822    1.7471 C.ar    1  UNL1        0.0694
     38 CL         59.9662   93.8468    0.7426 Cl      1  UNL1       -0.0813
     39 C          60.0790   91.8395    2.5850 C.ar    1  UNL1        0.0268
     40 C          61.0837   86.3785   15.0643 C.3     1  UNL1        0.0569
     41 C          59.7089   86.1583   14.4964 C.ar    1  UNL1       -0.0017
     42 C          58.6648   87.0783   14.4885 C.ar    1  UNL1        0.0681
     43 N          57.6168   86.5983   13.7810 N.ar    1  UNL1       -0.3523
     44 C          57.9946   85.3896   13.3300 C.ar    1  UNL1        0.0563
     45 C          57.2648   84.5278   12.5120 C.ar    1  UNL1        0.0170
     46 C          57.8736   83.3228   12.1171 C.ar    1  UNL1        0.0015
     47 C          59.1849   83.0117   12.5391 C.ar    1  UNL1        0.0001
     48 C          59.8982   83.9007   13.3632 C.ar    1  UNL1        0.0012
     49 C          59.2666   85.0860   13.7435 C.ar    1  UNL1        0.0131
     50 H          56.7106   87.0842   13.5993 H       1  UNL1        0.1660
@<TRIPOS>BOND
     1    13    14    1
     2    14    12    1
     3    12     6    1
     4     6     7   ar
     5     7     8   ar
     6     8     2    1
     7     2     3   am
     8     3     4    2
     9     3     1    1
    10     1    40    1
    11    40    41    1
    12    41    42   ar
    13    42    43   ar
    14    43    44   ar
    15    44    45   ar
    16    45    46   ar
    17    46    47   ar
    18    47    48   ar
    19    48    49   ar
    20     1    15    1
    21    15    16   am
    22    16    17    2
    23    16    19    1
    24    19    20   ar
    25    20    21   ar
    26    21    22   ar
    27    22    26    1
    28    26    27    1
    29    27    28    1
    30    28    29    1
    31    29    32    1
    32    32    33   ar
    33    33    34   ar
    34    34    35   ar
    35    35    36    1
    36    35    37   ar
    37    37    38    1
    38    37    39   ar
    39    29    30    1
    40    30    31    1
    41    22    23   ar
    42    23    24   ar
    43    24    25    1
    44     8     9   ar
    45     9    10   ar
    46    10    11   ar
    47    11     6   ar
    48    49    41   ar
    49    24    19   ar
    50    49    44   ar
    51    31    26    1
    52    39    32   ar
    53     2     5    1
    54    43    50    1
    55    15    18    1
@<TRIPOS>MOLECULE
*****
 50 55 0 0 0
SMALL
GASTEIGER

@<TRIPOS>ATOM
      1 C          61.4612   86.6022   14.2889 C.3     1  UNL1        0.1535
      2 N          61.9736   84.1328   13.9270 N.am    1  UNL1       -0.2825
      3 C          61.1492   85.1450   14.5298 C.2     1  UNL1        0.2443
      4 O          60.1056   84.8271   15.1631 O.2     1  UNL1       -0.2730
      5 H          62.7688   84.4505   13.3276 H       1  UNL1        0.1549
      6 C          60.1083   81.0430   12.9767 C.ar    1  UNL1        0.0900
      7 C          60.4981   82.3867   13.0497 C.ar    1  UNL1        0.0319
      8 C          61.5955   82.7501   13.8407 C.ar    1  UNL1        0.0532
      9 C          62.3194   81.7481   14.5049 C.ar    1  UNL1        0.0353
     10 C          61.9129   80.4168   14.3913 C.ar    1  UNL1        0.0998
     11 N          60.8277   80.0959   13.6385 N.ar    1  UNL1       -0.2456
     12 C          58.9359   80.6374   12.1388 C.3     1  UNL1        0.1876
     13 C          58.2256   78.6154   11.3006 C.3     1  UNL1        0.1747
     14 O          59.3003   79.5265   11.3488 O.3     1  UNL1       -0.3447
     15 N          60.9377   87.0243   12.9858 N.am    1  UNL1       -0.2945
     16 C          61.5197   86.5903   11.7459 C.2     1  UNL1        0.2483
     17 O          62.4283   85.7149   11.7514 O.2     1  UNL1       -0.2701
     18 H          60.0002   87.4854   12.9538 H       1  UNL1        0.1501
     19 C          61.0416   87.1305   10.4524 C.ar    1  UNL1        0.0808
     20 C          60.2059   86.3465    9.6392 C.ar    1  UNL1        0.0080
     21 C          59.7386   86.8370    8.4173 C.ar    1  UNL1        0.0148
     22 C          60.1102   88.1155    7.9757 C.ar    1  UNL1        0.0502
     23 C          60.9535   88.8975    8.7806 C.ar    1  UNL1        0.0443
     24 C          61.4217   88.4113   10.0054 C.ar    1  UNL1        0.1457
     25 F          62.2772   89.1796   10.7263 F       1  UNL1       -0.2040
     26 N          59.6186   88.6261    6.7217 N.pl3   1  UNL1       -0.3040
     27 C          59.1673   90.0246    6.6343 C.3     1  UNL1        0.1122
     28 C          58.9236   90.4435    5.1799 C.3     1  UNL1        0.1122
     29 N          60.0097   89.9370    4.3287 N.pl3   1  UNL1       -0.3040
     30 C          60.3784   88.5128    4.3887 C.3     1  UNL1        0.1122
     31 C          59.6307   87.7884    5.5138 C.3     1  UNL1        0.1122
     32 C          60.7657   90.8323    3.4908 C.ar    1  UNL1        0.0488
     33 C          62.1663   90.7419    3.4356 C.ar    1  UNL1        0.0154
     34 C          62.8983   91.6008    2.6122 C.ar    1  UNL1        0.0135
     35 C          62.2432   92.5581    1.8308 C.ar    1  UNL1        0.0683
     36 CL         63.1989   93.6211    0.8068 Cl      1  UNL1       -0.0814
     37 C          60.8423   92.6526    1.8738 C.ar    1  UNL1        0.0694
     38 CL         59.9794   93.8417    0.9074 Cl      1  UNL1       -0.0813
     39 C          60.1106   91.7902    2.6991 C.ar    1  UNL1        0.0268
     40 C          62.9788   86.8524   14.3424 C.3     1  UNL1        0.0569
     41 C          63.3012   88.1775   14.9757 C.ar    1  UNL1       -0.0017
     42 C          62.8813   88.6148   16.2284 C.ar    1  UNL1        0.0681
     43 N          63.4633   89.7962   16.5365 N.ar    1  UNL1       -0.3523
     44 C          64.2579   90.1021   15.4963 C.ar    1  UNL1        0.0563
     45 C          65.0997   91.2069   15.3734 C.ar    1  UNL1        0.0170
     46 C          65.8855   91.3091   14.2112 C.ar    1  UNL1        0.0015
     47 C          65.8175   90.3137   13.2117 C.ar    1  UNL1        0.0001
     48 C          64.9601   89.2091   13.3631 C.ar    1  UNL1        0.0012
     49 C          64.1884   89.1373   14.5240 C.ar    1  UNL1        0.0131
     50 H          63.3405   90.3419   17.4182 H       1  UNL1        0.1660
@<TRIPOS>BOND
     1    13    14    1
     2    14    12    1
     3    12     6    1
     4     6     7   ar
     5     7     8   ar
     6     8     2    1
     7     2     3   am
     8     3     4    2
     9     3     1    1
    10     1    40    1
    11    40    41    1
    12    41    42   ar
    13    42    43   ar
    14    43    44   ar
    15    44    45   ar
    16    45    46   ar
    17    46    47   ar
    18    47    48   ar
    19    48    49   ar
    20     1    15    1
    21    15    16   am
    22    16    17    2
    23    16    19    1
    24    19    20   ar
    25    20    21   ar
    26    21    22   ar
    27    22    26    1
    28    26    27    1
    29    27    28    1
    30    28    29    1
    31    29    32    1
    32    32    33   ar
    33    33    34   ar
    34    34    35   ar
    35    35    36    1
    36    35    37   ar
    37    37    38    1
    38    37    39   ar
    39    29    30    1
    40    30    31    1
    41    22    23   ar
    42    23    24   ar
    43    24    25    1
    44     8     9   ar
    45     9    10   ar
    46    10    11   ar
    47    11     6   ar
    48    49    41   ar
    49    24    19   ar
    50    49    44   ar
    51    31    26    1
    52    39    32   ar
    53     2     5    1
    54    43    50    1
    55    15    18    1
