@<TRIPOS>MOLECULE
*****
 50 55 0 0 0
SMALL
GASTEIGER

@<TRIPOS>ATOM
      1 C         -63.1866  -40.8285  -18.7704 C.3     1  UNL1        0.1535
      2 N         -62.8285  -41.0371  -20.1777 N.am    1  UNL1       -0.2945
      3 C         -61.8260  -41.9835  -20.5821 C.2     1  UNL1        0.2483
      4 O         -61.1656  -42.6072  -19.7068 O.2     1  UNL1       -0.2701
      5 H         -63.1639  -40.3501  -20.8872 H       1  UNL1        0.1501
      6 C         -61.5516  -42.2259  -22.0196 C.ar    1  UNL1        0.0808
      7 C         -62.5875  -42.1295  -22.9664 C.ar    1  UNL1        0.0080
      8 C         -62.3361  -42.3577  -24.3213 C.ar    1  UNL1        0.0148
      9 C         -61.0471  -42.6921  -24.7589 C.ar    1  UNL1        0.0502
     10 C         -60.0107  -42.7951  -23.8179 C.ar    1  UNL1        0.0443
     11 C         -60.2577  -42.5688  -22.4602 C.ar    1  UNL1        0.1457
     12 F         -59.2252  -42.6638  -21.5842 F       1  UNL1       -0.2040
     13 N         -60.7948  -42.9202  -26.1582 N.pl3   1  UNL1       -0.3040
     14 C         -60.4127  -41.8087  -27.0373 C.3     1  UNL1        0.1122
     15 C         -61.0763  -41.9730  -28.4051 C.3     1  UNL1        0.1122
     16 N         -60.8776  -43.3399  -28.9022 N.pl3   1  UNL1       -0.3040
     17 C         -61.2592  -44.4515  -28.0226 C.3     1  UNL1        0.1122
     18 C         -60.5954  -44.2870  -26.6551 C.3     1  UNL1        0.1122
     19 C         -60.6324  -43.5674  -30.3028 C.ar    1  UNL1        0.0488
     20 C         -59.4394  -44.1717  -30.7325 C.ar    1  UNL1        0.0154
     21 C         -59.2078  -44.3873  -32.0934 C.ar    1  UNL1        0.0135
     22 C         -60.1608  -44.0011  -33.0417 C.ar    1  UNL1        0.0683
     23 CL        -59.8332  -44.2889  -34.7451 Cl      1  UNL1       -0.0814
     24 C         -61.3557  -43.3930  -32.6216 C.ar    1  UNL1        0.0694
     25 CL        -62.5771  -42.8862  -33.7806 Cl      1  UNL1       -0.0813
     26 C         -61.5858  -43.1787  -31.2574 C.ar    1  UNL1        0.0268
     27 C         -63.7697  -39.4524  -18.5634 C.2     1  UNL1        0.2443
     28 O         -64.6626  -39.2972  -17.6868 O.2     1  UNL1       -0.2730
     29 N         -63.3830  -38.3534  -19.4078 N.am    1  UNL1       -0.2825
     30 H         -62.8532  -38.5642  -20.2830 H       1  UNL1        0.1549
     31 C         -63.8203  -36.9995  -19.2098 C.ar    1  UNL1        0.0535
     32 C         -65.1399  -36.6062  -19.4877 C.ar    1  UNL1        0.0353
     33 C         -65.5266  -35.2836  -19.2565 C.ar    1  UNL1        0.1002
     34 N         -64.6346  -34.3893  -18.7540 N.ar    1  UNL1       -0.2422
     35 C         -63.3566  -34.7471  -18.4598 C.ar    1  UNL1        0.1002
     36 C         -62.9295  -36.0595  -18.6745 C.ar    1  UNL1        0.0353
     37 C         -64.1295  -41.9379  -18.2572 C.3     1  UNL1        0.0569
     38 N         -67.5899  -40.9026  -23.9659 N.pl3   1  UNL1       -0.3570
     39 C         -66.8879  -41.2576  -22.7721 C.ar    1  UNL1        0.0430
     40 C         -66.1012  -40.2913  -22.0983 C.ar    1  UNL1        0.0142
     41 C         -65.4069  -40.6266  -20.9225 C.ar    1  UNL1        0.0024
     42 C         -65.5232  -41.9323  -20.4460 C.ar    1  UNL1        0.0132
     43 C         -64.9889  -42.5505  -19.3308 C.ar    1  UNL1       -0.0017
     44 C         -65.4570  -43.8613  -19.3687 C.ar    1  UNL1        0.0681
     45 N         -66.2470  -44.0501  -20.4497 N.ar    1  UNL1       -0.3522
     46 C         -66.2808  -42.8718  -21.0958 C.ar    1  UNL1        0.0576
     47 C         -66.9794  -42.5705  -22.2637 C.ar    1  UNL1        0.0310
     48 H         -68.1735  -41.6059  -24.4715 H       1  UNL1        0.1424
     49 H         -67.5314  -39.9340  -24.3522 H       1  UNL1        0.1424
     50 H         -66.7381  -44.9317  -20.7181 H       1  UNL1        0.1660
@<TRIPOS>BOND
     1    38    39    1
     2    39    40   ar
     3    40    41   ar
     4    41    42   ar
     5    42    43   ar
     6    43    37    1
     7    37     1    1
     8     1     2    1
     9     2     3   am
    10     3     4    2
    11     3     6    1
    12     6     7   ar
    13     7     8   ar
    14     8     9   ar
    15     9    13    1
    16    13    14    1
    17    14    15    1
    18    15    16    1
    19    16    19    1
    20    19    20   ar
    21    20    21   ar
    22    21    22   ar
    23    22    23    1
    24    22    24   ar
    25    24    25    1
    26    24    26   ar
    27    16    17    1
    28    17    18    1
    29     9    10   ar
    30    10    11   ar
    31    11    12    1
    32     1    27    1
    33    27    28    2
    34    27    29   am
    35    29    31    1
    36    31    32   ar
    37    32    33   ar
    38    33    34   ar
    39    34    35   ar
    40    35    36   ar
    41    43    44   ar
    42    44    45   ar
    43    45    46   ar
    44    46    47   ar
    45    47    39   ar
    46    46    42   ar
    47    11     6   ar
    48    36    31   ar
    49    18    13    1
    50    26    19   ar
    51    38    48    1
    52    38    49    1
    53     2     5    1
    54    29    30    1
    55    45    50    1
@<TRIPOS>MOLECULE
*****
 50 55 0 0 0
SMALL
GASTEIGER

@<TRIPOS>ATOM
      1 C         -61.2750  -47.3512  -25.8956 C.3     1  UNL1        0.1535
      2 N         -61.7213  -46.1798  -25.1335 N.am    1  UNL1       -0.2945
      3 C         -61.1270  -45.8085  -23.8793 C.2     1  UNL1        0.2483
      4 O         -60.2452  -46.5476  -23.3621 O.2     1  UNL1       -0.2701
      5 H         -62.6159  -45.7170  -25.4044 H       1  UNL1        0.1501
      6 C         -61.5489  -44.5700  -23.1803 C.ar    1  UNL1        0.0808
      7 C         -62.2149  -44.6445  -21.9434 C.ar    1  UNL1        0.0080
      8 C         -62.6159  -43.4823  -21.2805 C.ar    1  UNL1        0.0148
      9 C         -62.3654  -42.2218  -21.8404 C.ar    1  UNL1        0.0502
     10 C         -61.7061  -42.1417  -23.0770 C.ar    1  UNL1        0.0443
     11 C         -61.3039  -43.3025  -23.7452 C.ar    1  UNL1        0.1457
     12 F         -60.6558  -43.1814  -24.9317 F       1  UNL1       -0.2040
     13 N         -62.7769  -41.0281  -21.1480 N.pl3   1  UNL1       -0.3040
     14 C         -64.0100  -41.0159  -20.3523 C.3     1  UNL1        0.1122
     15 C         -64.7229  -39.6729  -20.5147 C.3     1  UNL1        0.1122
     16 N         -63.7729  -38.5702  -20.3239 N.pl3   1  UNL1       -0.3040
     17 C         -62.5392  -38.5829  -21.1193 C.3     1  UNL1        0.1122
     18 C         -61.8265  -39.9258  -20.9567 C.3     1  UNL1        0.1122
     19 C         -64.1874  -37.3741  -19.6376 C.ar    1  UNL1        0.0488
     20 C         -63.3176  -36.7191  -18.7502 C.ar    1  UNL1        0.0154
     21 C         -63.7278  -35.5602  -18.0864 C.ar    1  UNL1        0.0135
     22 C         -65.0100  -35.0421  -18.2971 C.ar    1  UNL1        0.0683
     23 CL        -65.4899  -33.5818  -17.4432 Cl      1  UNL1       -0.0814
     24 C         -65.8882  -35.6923  -19.1803 C.ar    1  UNL1        0.0694
     25 CL        -67.5107  -35.0787  -19.4687 Cl      1  UNL1       -0.0813
     26 C         -65.4746  -36.8529  -19.8448 C.ar    1  UNL1        0.0268
     27 C         -61.6752  -48.6286  -25.1994 C.2     1  UNL1        0.2443
     28 O         -62.7928  -49.1445  -25.4730 O.2     1  UNL1       -0.2730
     29 N         -60.8418  -49.2030  -24.1768 N.am    1  UNL1       -0.2825
     30 H         -60.0663  -48.6223  -23.7862 H       1  UNL1        0.1549
     31 C         -61.1083  -50.4634  -23.5414 C.ar    1  UNL1        0.0535
     32 C         -62.4195  -50.8792  -23.2567 C.ar    1  UNL1        0.0353
     33 C         -62.6320  -52.1245  -22.6596 C.ar    1  UNL1        0.1002
     34 N         -61.5771  -52.9314  -22.3695 N.ar    1  UNL1       -0.2422
     35 C         -60.2995  -52.5615  -22.6499 C.ar    1  UNL1        0.1002
     36 C         -60.0432  -51.3255  -23.2480 C.ar    1  UNL1        0.0353
     37 C         -61.7833  -47.3044  -27.3525 C.3     1  UNL1        0.0569
     38 N         -61.8252  -42.8568  -32.4372 N.pl3   1  UNL1       -0.3570
     39 C         -61.6785  -43.7759  -31.3520 C.ar    1  UNL1        0.0430
     40 C         -62.8253  -44.3332  -30.7347 C.ar    1  UNL1        0.0142
     41 C         -62.6953  -45.2394  -29.6675 C.ar    1  UNL1        0.0024
     42 C         -61.4076  -45.5696  -29.2453 C.ar    1  UNL1        0.0132
     43 C         -60.9602  -46.4253  -28.2559 C.ar    1  UNL1       -0.0017
     44 C         -59.5702  -46.3534  -28.2987 C.ar    1  UNL1        0.0681
     45 N         -59.1707  -45.5001  -29.2685 N.ar    1  UNL1       -0.3522
     46 C         -60.2947  -45.0310  -29.8373 C.ar    1  UNL1        0.0576
     47 C         -60.3910  -44.1295  -30.8959 C.ar    1  UNL1        0.0310
     48 H         -60.9874  -42.4397  -32.9007 H       1  UNL1        0.1424
     49 H         -62.7725  -42.5877  -32.7850 H       1  UNL1        0.1424
     50 H         -58.1866  -45.2648  -29.5268 H       1  UNL1        0.1660
@<TRIPOS>BOND
     1    38    39    1
     2    39    40   ar
     3    40    41   ar
     4    41    42   ar
     5    42    43   ar
     6    43    37    1
     7    37     1    1
     8     1     2    1
     9     2     3   am
    10     3     4    2
    11     3     6    1
    12     6     7   ar
    13     7     8   ar
    14     8     9   ar
    15     9    13    1
    16    13    14    1
    17    14    15    1
    18    15    16    1
    19    16    19    1
    20    19    20   ar
    21    20    21   ar
    22    21    22   ar
    23    22    23    1
    24    22    24   ar
    25    24    25    1
    26    24    26   ar
    27    16    17    1
    28    17    18    1
    29     9    10   ar
    30    10    11   ar
    31    11    12    1
    32     1    27    1
    33    27    28    2
    34    27    29   am
    35    29    31    1
    36    31    32   ar
    37    32    33   ar
    38    33    34   ar
    39    34    35   ar
    40    35    36   ar
    41    43    44   ar
    42    44    45   ar
    43    45    46   ar
    44    46    47   ar
    45    47    39   ar
    46    46    42   ar
    47    11     6   ar
    48    36    31   ar
    49    18    13    1
    50    26    19   ar
    51    38    48    1
    52    38    49    1
    53     2     5    1
    54    29    30    1
    55    45    50    1
@<TRIPOS>MOLECULE
*****
 50 55 0 0 0
SMALL
GASTEIGER

@<TRIPOS>ATOM
      1 C         -61.7461  -47.8701  -26.5754 C.3     1  UNL1        0.1535
      2 N         -62.1270  -46.6563  -25.8448 N.am    1  UNL1       -0.2945
      3 C         -61.3099  -46.1002  -24.8021 C.2     1  UNL1        0.2483
      4 O         -60.2664  -46.7066  -24.4348 O.2     1  UNL1       -0.2701
      5 H         -63.1007  -46.2963  -25.9445 H       1  UNL1        0.1501
      6 C         -61.6877  -44.8253  -24.1445 C.ar    1  UNL1        0.0808
      7 C         -61.8847  -44.7754  -22.7525 C.ar    1  UNL1        0.0080
      8 C         -62.2417  -43.5785  -22.1273 C.ar    1  UNL1        0.0148
      9 C         -62.4146  -42.4077  -22.8785 C.ar    1  UNL1        0.0502
     10 C         -62.2246  -42.4529  -24.2685 C.ar    1  UNL1        0.0443
     11 C         -61.8685  -43.6491  -24.8993 C.ar    1  UNL1        0.1457
     12 F         -61.6797  -43.6473  -26.2435 F       1  UNL1       -0.2040
     13 N         -62.7770  -41.1764  -22.2257 N.pl3   1  UNL1       -0.3040
     14 C         -61.8283  -40.4982  -21.3346 C.3     1  UNL1        0.1122
     15 C         -62.5707  -39.9023  -20.1379 C.3     1  UNL1        0.1122
     16 N         -63.7422  -39.1456  -20.5959 N.pl3   1  UNL1       -0.3040
     17 C         -64.6907  -39.8237  -21.4878 C.3     1  UNL1        0.1122
     18 C         -63.9481  -40.4193  -22.6843 C.3     1  UNL1        0.1122
     19 C         -64.1079  -37.9180  -19.9379 C.ar    1  UNL1        0.0488
     20 C         -65.4573  -37.6017  -19.7096 C.ar    1  UNL1        0.0154
     21 C         -65.8043  -36.4077  -19.0724 C.ar    1  UNL1        0.0135
     22 C         -64.8111  -35.5143  -18.6575 C.ar    1  UNL1        0.0683
     23 CL        -65.2871  -34.0217  -17.8590 Cl      1  UNL1       -0.0814
     24 C         -63.4588  -35.8206  -18.8843 C.ar    1  UNL1        0.0694
     25 CL        -62.1793  -34.7226  -18.3851 Cl      1  UNL1       -0.0813
     26 C         -63.1136  -37.0178  -19.5224 C.ar    1  UNL1        0.0268
     27 C         -62.0038  -49.1012  -25.7418 C.2     1  UNL1        0.2443
     28 O         -62.9965  -49.8266  -26.0215 O.2     1  UNL1       -0.2730
     29 N         -61.1888  -49.3977  -24.5937 N.am    1  UNL1       -0.2825
     30 H         -60.5536  -48.6518  -24.2316 H       1  UNL1        0.1549
     31 C         -61.3121  -50.5972  -23.8130 C.ar    1  UNL1        0.0535
     32 C         -62.5674  -51.0976  -23.4295 C.ar    1  UNL1        0.0353
     33 C         -62.6395  -52.2814  -22.6907 C.ar    1  UNL1        0.1002
     34 N         -61.5030  -52.9492  -22.3584 N.ar    1  UNL1       -0.2422
     35 C         -60.2766  -52.4968  -22.7313 C.ar    1  UNL1        0.1002
     36 C         -60.1600  -51.3182  -23.4718 C.ar    1  UNL1        0.0353
     37 C         -62.4470  -47.9460  -27.9487 C.3     1  UNL1        0.0569
     38 N         -61.3940  -41.6590  -30.1849 N.pl3   1  UNL1       -0.3570
     39 C         -61.7537  -42.9651  -29.7281 C.ar    1  UNL1        0.0430
     40 C         -60.7497  -43.9387  -29.5025 C.ar    1  UNL1        0.0142
     41 C         -61.0895  -45.2266  -29.0519 C.ar    1  UNL1        0.0024
     42 C         -62.4383  -45.5067  -28.8335 C.ar    1  UNL1        0.0132
     43 C         -63.0747  -46.6486  -28.3837 C.ar    1  UNL1       -0.0017
     44 C         -64.4315  -46.3367  -28.3598 C.ar    1  UNL1        0.0681
     45 N         -64.6311  -45.0635  -28.7691 N.ar    1  UNL1       -0.3522
     46 C         -63.4138  -44.5690  -29.0530 C.ar    1  UNL1        0.0576
     47 C         -63.1089  -43.2847  -29.5007 C.ar    1  UNL1        0.0310
     48 H         -62.1249  -40.9324  -30.3544 H       1  UNL1        0.1424
     49 H         -60.3945  -41.4093  -30.3561 H       1  UNL1        0.1424
     50 H         -65.5466  -44.5660  -28.8384 H       1  UNL1        0.1660
@<TRIPOS>BOND
     1    38    39    1
     2    39    40   ar
     3    40    41   ar
     4    41    42   ar
     5    42    43   ar
     6    43    37    1
     7    37     1    1
     8     1     2    1
     9     2     3   am
    10     3     4    2
    11     3     6    1
    12     6     7   ar
    13     7     8   ar
    14     8     9   ar
    15     9    13    1
    16    13    14    1
    17    14    15    1
    18    15    16    1
    19    16    19    1
    20    19    20   ar
    21    20    21   ar
    22    21    22   ar
    23    22    23    1
    24    22    24   ar
    25    24    25    1
    26    24    26   ar
    27    16    17    1
    28    17    18    1
    29     9    10   ar
    30    10    11   ar
    31    11    12    1
    32     1    27    1
    33    27    28    2
    34    27    29   am
    35    29    31    1
    36    31    32   ar
    37    32    33   ar
    38    33    34   ar
    39    34    35   ar
    40    35    36   ar
    41    43    44   ar
    42    44    45   ar
    43    45    46   ar
    44    46    47   ar
    45    47    39   ar
    46    46    42   ar
    47    11     6   ar
    48    36    31   ar
    49    18    13    1
    50    26    19   ar
    51    38    48    1
    52    38    49    1
    53     2     5    1
    54    29    30    1
    55    45    50    1
@<TRIPOS>MOLECULE
*****
 50 55 0 0 0
SMALL
GASTEIGER

@<TRIPOS>ATOM
      1 C         -61.0996  -47.3836  -25.8387 C.3     1  UNL1        0.1535
      2 N         -61.5603  -46.2050  -25.0965 N.am    1  UNL1       -0.2945
      3 C         -61.0561  -45.8739  -23.7926 C.2     1  UNL1        0.2483
      4 O         -60.2489  -46.6546  -23.2177 O.2     1  UNL1       -0.2701
      5 H         -62.4110  -45.7030  -25.4314 H       1  UNL1        0.1501
      6 C         -61.4846  -44.6285  -23.1102 C.ar    1  UNL1        0.0808
      7 C         -62.1113  -44.6876  -21.8522 C.ar    1  UNL1        0.0080
      8 C         -62.5184  -43.5188  -21.2048 C.ar    1  UNL1        0.0148
      9 C         -62.3133  -42.2671  -21.8015 C.ar    1  UNL1        0.0502
     10 C         -61.6934  -42.2024  -23.0592 C.ar    1  UNL1        0.0443
     11 C         -61.2853  -43.3699  -23.7119 C.ar    1  UNL1        0.1457
     12 F         -60.6760  -43.2633  -24.9202 F       1  UNL1       -0.2040
     13 N         -62.7306  -41.0663  -21.1250 N.pl3   1  UNL1       -0.3040
     14 C         -63.9360  -41.0634  -20.2877 C.3     1  UNL1        0.1122
     15 C         -64.6872  -39.7425  -20.4585 C.3     1  UNL1        0.1122
     16 N         -63.7590  -38.6128  -20.3281 N.pl3   1  UNL1       -0.3040
     17 C         -62.5531  -38.6161  -21.1651 C.3     1  UNL1        0.1122
     18 C         -61.8021  -39.9369  -20.9940 C.3     1  UNL1        0.1122
     19 C         -64.1797  -37.4099  -19.6576 C.ar    1  UNL1        0.0488
     20 C         -63.3107  -36.7347  -18.7846 C.ar    1  UNL1        0.0154
     21 C         -63.7269  -35.5692  -18.1361 C.ar    1  UNL1        0.0135
     22 C         -65.0142  -35.0645  -18.3480 C.ar    1  UNL1        0.0683
     23 CL        -65.5015  -33.5954  -17.5136 Cl      1  UNL1       -0.0814
     24 C         -65.8916  -35.7348  -19.2169 C.ar    1  UNL1        0.0694
     25 CL        -67.5203  -35.1386  -19.5061 Cl      1  UNL1       -0.0813
     26 C         -65.4720  -36.9020  -19.8660 C.ar    1  UNL1        0.0268
     27 C         -61.5555  -48.6542  -25.1645 C.2     1  UNL1        0.2443
     28 O         -62.6946  -49.1156  -25.4461 O.2     1  UNL1       -0.2730
     29 N         -60.7480  -49.2823  -24.1528 N.am    1  UNL1       -0.2825
     30 H         -59.9478  -48.7431  -23.7527 H       1  UNL1        0.1549
     31 C         -61.0695  -50.5406  -23.5391 C.ar    1  UNL1        0.0535
     32 C         -62.3998  -50.9190  -23.2937 C.ar    1  UNL1        0.0353
     33 C         -62.6658  -52.1634  -22.7167 C.ar    1  UNL1        0.1002
     34 N         -61.6441  -53.0055  -22.4084 N.ar    1  UNL1       -0.2422
     35 C         -60.3489  -52.6721  -22.6511 C.ar    1  UNL1        0.1002
     36 C         -60.0393  -51.4382  -23.2280 C.ar    1  UNL1        0.0353
     37 C         -61.5375  -47.3262  -27.3179 C.3     1  UNL1        0.0569
     38 N         -61.3149  -40.7399  -28.8038 N.pl3   1  UNL1       -0.3570
     39 C         -61.4994  -42.1279  -28.5150 C.ar    1  UNL1        0.0430
     40 C         -60.3754  -42.9637  -28.3036 C.ar    1  UNL1        0.0142
     41 C         -60.5427  -44.3302  -28.0174 C.ar    1  UNL1        0.0024
     42 C         -61.8440  -44.8273  -27.9460 C.ar    1  UNL1        0.0132
     43 C         -62.3261  -46.0935  -27.6714 C.ar    1  UNL1       -0.0017
     44 C         -63.7132  -45.9879  -27.7333 C.ar    1  UNL1        0.0681
     45 N         -64.0780  -44.7194  -28.0268 N.ar    1  UNL1       -0.3522
     46 C         -62.9348  -44.0234  -28.1526 C.ar    1  UNL1        0.0576
     47 C         -62.8016  -42.6658  -28.4393 C.ar    1  UNL1        0.0310
     48 H         -62.1356  -40.1135  -28.9611 H       1  UNL1        0.1424
     49 H         -60.3565  -40.3291  -28.8617 H       1  UNL1        0.1424
     50 H         -65.0522  -44.3563  -28.1240 H       1  UNL1        0.1660
@<TRIPOS>BOND
     1    38    39    1
     2    39    40   ar
     3    40    41   ar
     4    41    42   ar
     5    42    43   ar
     6    43    37    1
     7    37     1    1
     8     1     2    1
     9     2     3   am
    10     3     4    2
    11     3     6    1
    12     6     7   ar
    13     7     8   ar
    14     8     9   ar
    15     9    13    1
    16    13    14    1
    17    14    15    1
    18    15    16    1
    19    16    19    1
    20    19    20   ar
    21    20    21   ar
    22    21    22   ar
    23    22    23    1
    24    22    24   ar
    25    24    25    1
    26    24    26   ar
    27    16    17    1
    28    17    18    1
    29     9    10   ar
    30    10    11   ar
    31    11    12    1
    32     1    27    1
    33    27    28    2
    34    27    29   am
    35    29    31    1
    36    31    32   ar
    37    32    33   ar
    38    33    34   ar
    39    34    35   ar
    40    35    36   ar
    41    43    44   ar
    42    44    45   ar
    43    45    46   ar
    44    46    47   ar
    45    47    39   ar
    46    46    42   ar
    47    11     6   ar
    48    36    31   ar
    49    18    13    1
    50    26    19   ar
    51    38    48    1
    52    38    49    1
    53     2     5    1
    54    29    30    1
    55    45    50    1
@<TRIPOS>MOLECULE
*****
 50 55 0 0 0
SMALL
GASTEIGER

@<TRIPOS>ATOM
      1 C         -65.8887  -55.5509  -21.9288 C.3     1  UNL1        0.1535
      2 N         -65.4703  -54.2468  -22.4548 N.am    1  UNL1       -0.2945
      3 C         -64.0924  -53.9273  -22.7065 C.2     1  UNL1        0.2483
      4 O         -63.1920  -54.7545  -22.3962 O.2     1  UNL1       -0.2701
      5 H         -66.1608  -53.4652  -22.4635 H       1  UNL1        0.1501
      6 C         -63.7170  -52.6286  -23.3173 C.ar    1  UNL1        0.0808
      7 C         -64.5028  -52.0729  -24.3432 C.ar    1  UNL1        0.0080
      8 C         -64.1543  -50.8510  -24.9234 C.ar    1  UNL1        0.0148
      9 C         -63.0117  -50.1609  -24.4956 C.ar    1  UNL1        0.0502
     10 C         -62.2208  -50.7133  -23.4760 C.ar    1  UNL1        0.0443
     11 C         -62.5649  -51.9370  -22.8930 C.ar    1  UNL1        0.1457
     12 F         -61.7821  -52.4298  -21.8996 F       1  UNL1       -0.2040
     13 N         -62.6623  -48.8989  -25.0947 N.pl3   1  UNL1       -0.3040
     14 C         -61.7081  -47.9997  -24.4351 C.3     1  UNL1        0.1122
     15 C         -62.1519  -46.5470  -24.6117 C.3     1  UNL1        0.1122
     16 N         -62.4796  -46.2864  -26.0187 N.pl3   1  UNL1       -0.3040
     17 C         -63.4334  -47.1862  -26.6785 C.3     1  UNL1        0.1122
     18 C         -62.9894  -48.6386  -26.5019 C.3     1  UNL1        0.1122
     19 C         -62.1361  -45.0214  -26.6149 C.ar    1  UNL1        0.0488
     20 C         -60.9649  -44.8834  -27.3781 C.ar    1  UNL1        0.0154
     21 C         -60.6372  -43.6522  -27.9516 C.ar    1  UNL1        0.0135
     22 C         -61.4712  -42.5441  -27.7693 C.ar    1  UNL1        0.0683
     23 CL        -61.0251  -41.0114  -28.5067 Cl      1  UNL1       -0.0814
     24 C         -62.6431  -42.6717  -27.0049 C.ar    1  UNL1        0.0694
     25 CL        -63.7157  -41.3026  -26.7452 Cl      1  UNL1       -0.0813
     26 C         -62.9696  -43.9065  -26.4318 C.ar    1  UNL1        0.0268
     27 C         -66.8621  -55.3822  -20.7883 C.2     1  UNL1        0.2443
     28 O         -66.5051  -55.7282  -19.6295 O.2     1  UNL1       -0.2730
     29 N         -68.2037  -54.9202  -21.0266 N.am    1  UNL1       -0.2825
     30 H         -68.5519  -54.8975  -22.0112 H       1  UNL1        0.1549
     31 C         -69.1520  -54.6434  -19.9837 C.ar    1  UNL1        0.0535
     32 C         -70.2313  -53.7676  -20.1865 C.ar    1  UNL1        0.0353
     33 C         -71.1426  -53.5475  -19.1505 C.ar    1  UNL1        0.1002
     34 N         -70.9914  -54.1874  -17.9606 N.ar    1  UNL1       -0.2422
     35 C         -69.9662  -55.0531  -17.7432 C.ar    1  UNL1        0.1002
     36 C         -69.0338  -55.3027  -18.7529 C.ar    1  UNL1        0.0353
     37 C         -66.4577  -56.4536  -23.0443 C.3     1  UNL1        0.0569
     38 N         -72.8102  -55.2599  -25.0085 N.pl3   1  UNL1       -0.3570
     39 C         -71.4259  -55.4185  -24.6885 C.ar    1  UNL1        0.0430
     40 C         -71.0417  -56.1934  -23.5665 C.ar    1  UNL1        0.0142
     41 C         -69.6838  -56.3588  -23.2414 C.ar    1  UNL1        0.0024
     42 C         -68.7373  -55.7410  -24.0588 C.ar    1  UNL1        0.0132
     43 C         -67.3557  -55.7308  -24.0128 C.ar    1  UNL1       -0.0017
     44 C         -66.9506  -54.9505  -25.0926 C.ar    1  UNL1        0.0681
     45 N         -68.0246  -54.5007  -25.7800 N.ar    1  UNL1       -0.3522
     46 C         -69.1039  -54.9879  -25.1439 C.ar    1  UNL1        0.0576
     47 C         -70.4413  -54.8043  -25.4910 C.ar    1  UNL1        0.0310
     48 H         -73.1060  -54.6915  -25.8333 H       1  UNL1        0.1424
     49 H         -73.5489  -55.7101  -24.4232 H       1  UNL1        0.1424
     50 H         -68.0125  -53.9048  -26.6375 H       1  UNL1        0.1660
@<TRIPOS>BOND
     1    38    39    1
     2    39    40   ar
     3    40    41   ar
     4    41    42   ar
     5    42    43   ar
     6    43    37    1
     7    37     1    1
     8     1     2    1
     9     2     3   am
    10     3     4    2
    11     3     6    1
    12     6     7   ar
    13     7     8   ar
    14     8     9   ar
    15     9    13    1
    16    13    14    1
    17    14    15    1
    18    15    16    1
    19    16    19    1
    20    19    20   ar
    21    20    21   ar
    22    21    22   ar
    23    22    23    1
    24    22    24   ar
    25    24    25    1
    26    24    26   ar
    27    16    17    1
    28    17    18    1
    29     9    10   ar
    30    10    11   ar
    31    11    12    1
    32     1    27    1
    33    27    28    2
    34    27    29   am
    35    29    31    1
    36    31    32   ar
    37    32    33   ar
    38    33    34   ar
    39    34    35   ar
    40    35    36   ar
    41    43    44   ar
    42    44    45   ar
    43    45    46   ar
    44    46    47   ar
    45    47    39   ar
    46    46    42   ar
    47    11     6   ar
    48    36    31   ar
    49    18    13    1
    50    26    19   ar
    51    38    48    1
    52    38    49    1
    53     2     5    1
    54    29    30    1
    55    45    50    1
@<TRIPOS>MOLECULE
*****
 50 55 0 0 0
SMALL
GASTEIGER

@<TRIPOS>ATOM
      1 C         -61.9254  -47.7703  -26.3185 C.3     1  UNL1        0.1535
      2 N         -62.3177  -46.5493  -25.6062 N.am    1  UNL1       -0.2945
      3 C         -61.6079  -46.0731  -24.4514 C.2     1  UNL1        0.2483
      4 O         -60.6625  -46.7574  -23.9725 O.2     1  UNL1       -0.2701
      5 H         -63.2449  -46.1214  -25.8185 H       1  UNL1        0.1501
      6 C         -61.9838  -44.7898  -23.8092 C.ar    1  UNL1        0.0808
      7 C         -62.1671  -43.6329  -24.5882 C.ar    1  UNL1        0.0080
      8 C         -62.5199  -42.4211  -23.9896 C.ar    1  UNL1        0.0148
      9 C         -62.6918  -42.3374  -22.6010 C.ar    1  UNL1        0.0502
     10 C         -62.5048  -43.4873  -21.8182 C.ar    1  UNL1        0.0443
     11 C         -62.1503  -44.7025  -22.4126 C.ar    1  UNL1        0.1457
     12 F         -61.9934  -45.7947  -21.6221 F       1  UNL1       -0.2040
     13 N         -63.0612  -41.0857  -21.9921 N.pl3   1  UNL1       -0.3040
     14 C         -62.0447  -40.2354  -21.3612 C.3     1  UNL1        0.1122
     15 C         -62.6134  -39.5938  -20.0951 C.3     1  UNL1        0.1122
     16 N         -63.9263  -38.9999  -20.3756 N.pl3   1  UNL1       -0.3040
     17 C         -64.9426  -39.8502  -21.0072 C.3     1  UNL1        0.1122
     18 C         -64.3737  -40.4915  -22.2733 C.3     1  UNL1        0.1122
     19 C         -64.2973  -37.7518  -19.7607 C.ar    1  UNL1        0.0488
     20 C         -63.4006  -37.0731  -18.9190 C.ar    1  UNL1        0.0154
     21 C         -63.7686  -35.8636  -18.3243 C.ar    1  UNL1        0.0135
     22 C         -65.0349  -35.3177  -18.5594 C.ar    1  UNL1        0.0683
     23 CL        -65.4616  -33.7937  -17.7929 Cl      1  UNL1       -0.0814
     24 C         -65.9398  -35.9909  -19.3972 C.ar    1  UNL1        0.0694
     25 CL        -67.5437  -35.3434  -19.7140 Cl      1  UNL1       -0.0813
     26 C         -65.5685  -37.2024  -19.9925 C.ar    1  UNL1        0.0268
     27 C         -62.1093  -48.9851  -25.4426 C.2     1  UNL1        0.2443
     28 O         -63.2457  -49.5288  -25.3898 O.2     1  UNL1       -0.2730
     29 N         -61.0363  -49.4643  -24.6125 N.am    1  UNL1       -0.2825
     30 H         -60.2046  -48.8478  -24.4736 H       1  UNL1        0.1549
     31 C         -61.1058  -50.6666  -23.8295 C.ar    1  UNL1        0.0535
     32 C         -62.1472  -50.8865  -22.9128 C.ar    1  UNL1        0.0353
     33 C         -62.1871  -52.0819  -22.1907 C.ar    1  UNL1        0.1002
     34 N         -61.2317  -53.0293  -22.3851 N.ar    1  UNL1       -0.2422
     35 C         -60.2228  -52.8501  -23.2783 C.ar    1  UNL1        0.1002
     36 C         -60.1467  -51.6700  -24.0218 C.ar    1  UNL1        0.0353
     37 C         -62.6765  -47.9074  -27.6603 C.3     1  UNL1        0.0569
     38 N         -65.8950  -44.7752  -32.7068 N.pl3   1  UNL1       -0.3570
     39 C         -65.1826  -45.3111  -31.5891 C.ar    1  UNL1        0.0430
     40 C         -65.2178  -46.7028  -31.3269 C.ar    1  UNL1        0.0142
     41 C         -64.5206  -47.2431  -30.2319 C.ar    1  UNL1        0.0024
     42 C         -63.7964  -46.3674  -29.4230 C.ar    1  UNL1        0.0132
     43 C         -63.0106  -46.5899  -28.3076 C.ar    1  UNL1       -0.0017
     44 C         -62.5360  -45.3372  -27.9277 C.ar    1  UNL1        0.0681
     45 N         -62.9982  -44.3824  -28.7662 N.ar    1  UNL1       -0.3522
     46 C         -63.7615  -45.0196  -29.6707 C.ar    1  UNL1        0.0576
     47 C         -64.4430  -44.4540  -30.7471 C.ar    1  UNL1        0.0310
     48 H         -65.8764  -43.7511  -32.9108 H       1  UNL1        0.1424
     49 H         -66.4454  -45.3989  -33.3384 H       1  UNL1        0.1424
     50 H         -62.7921  -43.3596  -28.7224 H       1  UNL1        0.1660
@<TRIPOS>BOND
     1    38    39    1
     2    39    40   ar
     3    40    41   ar
     4    41    42   ar
     5    42    43   ar
     6    43    37    1
     7    37     1    1
     8     1     2    1
     9     2     3   am
    10     3     4    2
    11     3     6    1
    12     6     7   ar
    13     7     8   ar
    14     8     9   ar
    15     9    13    1
    16    13    14    1
    17    14    15    1
    18    15    16    1
    19    16    19    1
    20    19    20   ar
    21    20    21   ar
    22    21    22   ar
    23    22    23    1
    24    22    24   ar
    25    24    25    1
    26    24    26   ar
    27    16    17    1
    28    17    18    1
    29     9    10   ar
    30    10    11   ar
    31    11    12    1
    32     1    27    1
    33    27    28    2
    34    27    29   am
    35    29    31    1
    36    31    32   ar
    37    32    33   ar
    38    33    34   ar
    39    34    35   ar
    40    35    36   ar
    41    43    44   ar
    42    44    45   ar
    43    45    46   ar
    44    46    47   ar
    45    47    39   ar
    46    46    42   ar
    47    11     6   ar
    48    36    31   ar
    49    18    13    1
    50    26    19   ar
    51    38    48    1
    52    38    49    1
    53     2     5    1
    54    29    30    1
    55    45    50    1
@<TRIPOS>MOLECULE
*****
 50 55 0 0 0
SMALL
GASTEIGER

@<TRIPOS>ATOM
      1 C         -59.9832  -44.1751  -28.5776 C.3     1  UNL1        0.1535
      2 N         -60.6752  -45.3271  -27.9891 N.am    1  UNL1       -0.2945
      3 C         -60.1491  -46.0435  -26.8603 C.2     1  UNL1        0.2483
      4 O         -59.0170  -45.7356  -26.3967 O.2     1  UNL1       -0.2701
      5 H         -61.4644  -45.7601  -28.5157 H       1  UNL1        0.1501
      6 C         -60.9192  -47.1502  -26.2418 C.ar    1  UNL1        0.0808
      7 C         -60.6658  -47.5355  -24.9128 C.ar    1  UNL1        0.0080
      8 C         -61.3866  -48.5774  -24.3247 C.ar    1  UNL1        0.0148
      9 C         -62.3713  -49.2601  -25.0521 C.ar    1  UNL1        0.0502
     10 C         -62.6245  -48.8836  -26.3804 C.ar    1  UNL1        0.0443
     11 C         -61.9047  -47.8419  -26.9740 C.ar    1  UNL1        0.1457
     12 F         -62.1903  -47.4986  -28.2558 F       1  UNL1       -0.2040
     13 N         -63.1140  -50.3295  -24.4369 N.pl3   1  UNL1       -0.3040
     14 C         -62.7152  -50.8557  -23.1261 C.3     1  UNL1        0.1122
     15 C         -62.9054  -52.3725  -23.0925 C.3     1  UNL1        0.1122
     16 N         -64.2380  -52.7259  -23.5966 N.pl3   1  UNL1       -0.3040
     17 C         -64.6371  -52.1991  -24.9073 C.3     1  UNL1        0.1122
     18 C         -64.4469  -50.6823  -24.9406 C.3     1  UNL1        0.1122
     19 C         -64.9769  -53.8001  -22.9852 C.ar    1  UNL1        0.0488
     20 C         -64.3076  -54.8804  -22.3867 C.ar    1  UNL1        0.0154
     21 C         -65.0315  -55.9199  -21.7972 C.ar    1  UNL1        0.0135
     22 C         -66.4301  -55.8963  -21.7994 C.ar    1  UNL1        0.0683
     23 CL        -67.3060  -57.2228  -21.0478 Cl      1  UNL1       -0.0814
     24 C         -67.1083  -54.8215  -22.3985 C.ar    1  UNL1        0.0694
     25 CL        -68.8652  -54.7557  -22.4294 Cl      1  UNL1       -0.0813
     26 C         -66.3808  -53.7807  -22.9879 C.ar    1  UNL1        0.0268
     27 C         -60.0531  -44.2194  -30.0842 C.2     1  UNL1        0.2443
     28 O         -59.3440  -45.0606  -30.7001 O.2     1  UNL1       -0.2730
     29 N         -60.8433  -43.2636  -30.8137 N.am    1  UNL1       -0.2825
     30 H         -61.2008  -42.4249  -30.3040 H       1  UNL1        0.1549
     31 C         -61.0351  -43.3036  -32.2368 C.ar    1  UNL1        0.0535
     32 C         -59.9782  -43.6041  -33.1118 C.ar    1  UNL1        0.0353
     33 C         -60.2174  -43.6555  -34.4874 C.ar    1  UNL1        0.1002
     34 N         -61.4672  -43.4292  -34.9721 N.ar    1  UNL1       -0.2422
     35 C         -62.5116  -43.1535  -34.1469 C.ar    1  UNL1        0.1002
     36 C         -62.3160  -43.0941  -32.7651 C.ar    1  UNL1        0.0353
     37 C         -60.5235  -42.8434  -28.0138 C.3     1  UNL1        0.0569
     38 N         -61.3514  -42.6823  -21.3112 N.pl3   1  UNL1       -0.3570
     39 C         -61.3140  -42.7384  -22.7393 C.ar    1  UNL1        0.0430
     40 C         -60.1235  -42.4056  -23.4311 C.ar    1  UNL1        0.0142
     41 C         -60.0726  -42.4579  -24.8352 C.ar    1  UNL1        0.0024
     42 C         -61.2254  -42.8498  -25.5157 C.ar    1  UNL1        0.0132
     43 C         -61.4809  -43.0133  -26.8645 C.ar    1  UNL1       -0.0017
     44 C         -62.8078  -43.4275  -26.9470 C.ar    1  UNL1        0.0681
     45 N         -63.3510  -43.5222  -25.7124 N.ar    1  UNL1       -0.3522
     46 C         -62.3807  -43.1701  -24.8512 C.ar    1  UNL1        0.0576
     47 C         -62.4629  -43.1267  -23.4604 C.ar    1  UNL1        0.0310
     48 H         -62.2230  -42.9258  -20.7898 H       1  UNL1        0.1424
     49 H         -60.5077  -42.3975  -20.7654 H       1  UNL1        0.1424
     50 H         -64.3245  -43.8197  -25.4795 H       1  UNL1        0.1660
@<TRIPOS>BOND
     1    38    39    1
     2    39    40   ar
     3    40    41   ar
     4    41    42   ar
     5    42    43   ar
     6    43    37    1
     7    37     1    1
     8     1     2    1
     9     2     3   am
    10     3     4    2
    11     3     6    1
    12     6     7   ar
    13     7     8   ar
    14     8     9   ar
    15     9    13    1
    16    13    14    1
    17    14    15    1
    18    15    16    1
    19    16    19    1
    20    19    20   ar
    21    20    21   ar
    22    21    22   ar
    23    22    23    1
    24    22    24   ar
    25    24    25    1
    26    24    26   ar
    27    16    17    1
    28    17    18    1
    29     9    10   ar
    30    10    11   ar
    31    11    12    1
    32     1    27    1
    33    27    28    2
    34    27    29   am
    35    29    31    1
    36    31    32   ar
    37    32    33   ar
    38    33    34   ar
    39    34    35   ar
    40    35    36   ar
    41    43    44   ar
    42    44    45   ar
    43    45    46   ar
    44    46    47   ar
    45    47    39   ar
    46    46    42   ar
    47    11     6   ar
    48    36    31   ar
    49    18    13    1
    50    26    19   ar
    51    38    48    1
    52    38    49    1
    53     2     5    1
    54    29    30    1
    55    45    50    1
