@<TRIPOS>MOLECULE
*****
 52 58 0 0 0
SMALL
GASTEIGER

@<TRIPOS>ATOM
      1 C          60.4711   86.1710   10.3454 C.ar    1  UNL1        0.0481
      2 C          59.4197   85.3418   10.7759 C.ar    1  UNL1        0.0176
      3 C          59.5953   84.4773   11.8593 C.ar    1  UNL1        0.0382
      4 C          60.8183   84.4191   12.5347 C.ar    1  UNL1        0.1388
      5 C          61.8728   85.2503   12.1126 C.ar    1  UNL1        0.0382
      6 C          61.6986   86.1164   11.0295 C.ar    1  UNL1        0.0176
      7 N          60.0841   88.7325    6.9178 N.pl3   1  UNL1       -0.3041
      8 C          60.5374   89.3123    8.1905 C.3     1  UNL1        0.1122
      9 C          61.1703   88.2399    9.0827 C.3     1  UNL1        0.1122
     10 N          60.2925   87.0679    9.2260 N.pl3   1  UNL1       -0.3041
     11 C          59.1848   86.8613    8.2816 C.3     1  UNL1        0.1122
     12 C          59.5627   87.3571    6.8822 C.3     1  UNL1        0.1122
     13 C          60.0388   91.1064    3.3649 C.ar    1  UNL1        0.0699
     14 C          58.9247   91.0799    4.2194 C.ar    1  UNL1        0.0190
     15 C          58.9398   90.3063    5.3830 C.ar    1  UNL1        0.0160
     16 C          60.0684   89.5364    5.7166 C.ar    1  UNL1        0.0480
     17 C          61.1781   89.5548    4.8533 C.ar    1  UNL1        0.0160
     18 C          61.1633   90.3304    3.6909 C.ar    1  UNL1        0.0190
     19 N          59.9683   92.5629    0.0374 N.ar    1  UNL1       -0.2024
     20 N          60.0540   93.6565    0.7807 N.ar    1  UNL1       -0.1442
     21 C          60.0796   93.2498    2.0677 C.ar    1  UNL1        0.2073
     22 N          60.0155   91.9035    2.1648 N.ar    1  UNL1       -0.2398
     23 C          59.9588   91.5063    0.8781 C.ar    1  UNL1        0.3522
     24 O          59.9491   90.3012    0.5092 O.2     1  UNL1       -0.2444
     25 C          59.9797   92.5932   -1.4332 C.3     1  UNL1        0.1099
     26 C          61.2683   93.2084   -2.0009 C.3     1  UNL1        0.0265
     27 C          57.3925   92.6518   -1.4596 C.3     1  UNL1        0.0021
     28 C          58.6973   93.2394   -2.0009 C.3     1  UNL1        0.0245
     29 O          60.9369   83.5256   13.6119 O.3     1  UNL1       -0.4727
     30 C          60.9031   82.1019   13.5146 C.3     1  UNL1        0.2373
     31 C          59.7600   81.6147   12.5948 C.3     1  UNL1        0.1883
     32 O          59.9699   82.1598   11.3269 O.3     1  UNL1       -0.3270
     33 C          60.4970   81.1214   10.5201 C.3     1  UNL1        0.2079
     34 O          60.5834   79.9303   11.2823 O.3     1  UNL1       -0.3307
     35 C          59.7027   80.1192   12.3431 C.3     1  UNL1        0.1487
     36 C          59.6093   80.8532    9.2946 C.ar    1  UNL1        0.0390
     37 C          60.1641   80.0977    8.2381 C.ar    1  UNL1        0.0021
     38 C          59.4323   79.8209    7.0834 C.ar    1  UNL1        0.0113
     39 C          58.1322   80.3012    6.9479 C.ar    1  UNL1        0.0585
     40 CL         57.2146   79.9537    5.4938 Cl      1  UNL1       -0.0822
     41 C          57.5652   81.0675    7.9659 C.ar    1  UNL1        0.0226
     42 C          58.2854   81.3567    9.1328 C.ar    1  UNL1        0.0590
     43 CL         57.4623   82.3704   10.3162 Cl      1  UNL1       -0.0824
     44 C          60.0253   79.1798   13.5365 C.3     1  UNL1        0.0299
     45 C          58.7556   78.4634   14.0239 C.3     1  UNL1        0.0026
     46 C          61.0732   78.1301   13.1362 C.3     1  UNL1        0.0026
     47 C          61.9320   81.4906   10.0697 C.3     1  UNL1        0.0609
     48 C          62.0972   82.9358    9.5415 C.3     1  UNL1        0.0052
     49 C          61.3531   83.1409    8.2274 C.3     1  UNL1        0.0002
     50 C          62.0467   84.3117    7.5481 C.3     1  UNL1        0.0000
     51 C          63.4634   84.3659    8.1153 C.3     1  UNL1        0.0000
     52 C          63.5425   83.3107    9.2140 C.3     1  UNL1        0.0002
@<TRIPOS>BOND
     1    27    28    1
     2    28    25    1
     3    25    26    1
     4    25    19    1
     5    19    20   ar
     6    20    21   ar
     7    21    22   ar
     8    22    13    1
     9    13    14   ar
    10    14    15   ar
    11    15    16   ar
    12    16     7    1
    13     7     8    1
    14     8     9    1
    15     9    10    1
    16    10     1    1
    17     1     2   ar
    18     2     3   ar
    19     3     4   ar
    20     4    29    1
    21    29    30    1
    22    30    31    1
    23    31    32    1
    24    32    33    1
    25    33    47    1
    26    47    48    1
    27    48    49    1
    28    49    50    1
    29    50    51    1
    30    51    52    1
    31    33    36    1
    32    36    37   ar
    33    37    38   ar
    34    38    39   ar
    35    39    40    1
    36    39    41   ar
    37    41    42   ar
    38    42    43    1
    39    33    34    1
    40    34    35    1
    41    35    44    1
    42    44    45    1
    43    44    46    1
    44     4     5   ar
    45     5     6   ar
    46    10    11    1
    47    11    12    1
    48    16    17   ar
    49    17    18   ar
    50    22    23   ar
    51    23    24    2
    52    23    19   ar
    53    18    13   ar
    54    12     7    1
    55     6     1   ar
    56    35    31    1
    57    52    48    1
    58    42    36   ar
@<TRIPOS>MOLECULE
*****
 52 58 0 0 0
SMALL
GASTEIGER

@<TRIPOS>ATOM
      1 C          60.8154   86.8715   10.8084 C.ar    1  UNL1        0.0481
      2 C          62.0592   86.7023   11.4429 C.ar    1  UNL1        0.0176
      3 C          62.1373   86.1099   12.7058 C.ar    1  UNL1        0.0382
      4 C          60.9819   85.6755   13.3627 C.ar    1  UNL1        0.1388
      5 C          59.7345   85.8366   12.7310 C.ar    1  UNL1        0.0382
      6 C          59.6547   86.4282   11.4671 C.ar    1  UNL1        0.0176
      7 N          60.4911   88.8559    7.0115 N.pl3   1  UNL1       -0.3041
      8 C          59.6880   87.6484    7.2530 C.3     1  UNL1        0.1122
      9 C          59.4649   87.4337    8.7533 C.3     1  UNL1        0.1122
     10 N          60.7311   87.4824    9.5011 N.pl3   1  UNL1       -0.3041
     11 C          61.9262   88.0741    8.8822 C.3     1  UNL1        0.1122
     12 C          61.5439   89.2400    7.9650 C.3     1  UNL1        0.1122
     13 C          59.9546   91.1125    3.4226 C.ar    1  UNL1        0.0699
     14 C          58.9117   90.9983    4.3560 C.ar    1  UNL1        0.0190
     15 C          59.0872   90.2631    5.5314 C.ar    1  UNL1        0.0160
     16 C          60.3092   89.6201    5.7982 C.ar    1  UNL1        0.0480
     17 C          61.3480   89.7257    4.8564 C.ar    1  UNL1        0.0160
     18 C          61.1725   90.4629    3.6822 C.ar    1  UNL1        0.0190
     19 N          59.4906   92.4595    0.0807 N.ar    1  UNL1       -0.2024
     20 N          59.5414   93.5778    0.7896 N.ar    1  UNL1       -0.1442
     21 C          59.7057   93.2127    2.0788 C.ar    1  UNL1        0.2073
     22 N          59.7659   91.8693    2.2110 N.ar    1  UNL1       -0.2398
     23 C          59.6400   91.4311    0.9426 C.ar    1  UNL1        0.3522
     24 O          59.7045   90.2191    0.6030 O.2     1  UNL1       -0.2444
     25 C          59.3806   92.4475   -1.3862 C.3     1  UNL1        0.1099
     26 C          59.5454   93.8456   -2.0019 C.3     1  UNL1        0.0265
     27 C          56.8070   92.5147   -1.6501 C.3     1  UNL1        0.0021
     28 C          58.1003   91.7239   -1.8569 C.3     1  UNL1        0.0245
     29 O          61.1227   85.0937   14.6334 O.3     1  UNL1       -0.4727
     30 C          62.0261   84.0399   14.9663 C.3     1  UNL1        0.2373
     31 C          61.3674   82.6490   14.8196 C.3     1  UNL1        0.1883
     32 O          60.3505   82.7558   13.8691 O.3     1  UNL1       -0.3270
     33 C          60.8492   82.1816   12.6739 C.3     1  UNL1        0.2079
     34 O          62.1609   81.6947   12.8967 O.3     1  UNL1       -0.3307
     35 C          62.2584   81.5468   14.2770 C.3     1  UNL1        0.1487
     36 C          59.9696   81.0143   12.1989 C.ar    1  UNL1        0.0390
     37 C          60.5533   79.7287   12.1616 C.ar    1  UNL1        0.0021
     38 C          59.8300   78.6171   11.7294 C.ar    1  UNL1        0.0113
     39 C          58.5094   78.7618   11.3117 C.ar    1  UNL1        0.0585
     40 CL         57.6025   77.3626   10.7665 Cl      1  UNL1       -0.0822
     41 C          57.9130   80.0224   11.3180 C.ar    1  UNL1        0.0226
     42 C          58.6241   81.1508   11.7479 C.ar    1  UNL1        0.0590
     43 CL         57.7614   82.6852   11.6624 Cl      1  UNL1       -0.0824
     44 C          63.7362   81.5220   14.7527 C.3     1  UNL1        0.0299
     45 C          63.9948   80.3104   15.6627 C.3     1  UNL1        0.0026
     46 C          64.6942   81.4639   13.5530 C.3     1  UNL1        0.0026
     47 C          60.9367   83.2670   11.5728 C.3     1  UNL1        0.0609
     48 C          61.7414   82.8566   10.3163 C.3     1  UNL1        0.0052
     49 C          63.2316   83.1218   10.4934 C.3     1  UNL1        0.0002
     50 C          63.7896   83.2529    9.0846 C.3     1  UNL1        0.0000
     51 C          62.6219   83.6667    8.1917 C.3     1  UNL1        0.0000
     52 C          61.3689   83.6457    9.0611 C.3     1  UNL1        0.0002
@<TRIPOS>BOND
     1    27    28    1
     2    28    25    1
     3    25    26    1
     4    25    19    1
     5    19    20   ar
     6    20    21   ar
     7    21    22   ar
     8    22    13    1
     9    13    14   ar
    10    14    15   ar
    11    15    16   ar
    12    16     7    1
    13     7     8    1
    14     8     9    1
    15     9    10    1
    16    10     1    1
    17     1     2   ar
    18     2     3   ar
    19     3     4   ar
    20     4    29    1
    21    29    30    1
    22    30    31    1
    23    31    32    1
    24    32    33    1
    25    33    47    1
    26    47    48    1
    27    48    49    1
    28    49    50    1
    29    50    51    1
    30    51    52    1
    31    33    36    1
    32    36    37   ar
    33    37    38   ar
    34    38    39   ar
    35    39    40    1
    36    39    41   ar
    37    41    42   ar
    38    42    43    1
    39    33    34    1
    40    34    35    1
    41    35    44    1
    42    44    45    1
    43    44    46    1
    44     4     5   ar
    45     5     6   ar
    46    10    11    1
    47    11    12    1
    48    16    17   ar
    49    17    18   ar
    50    22    23   ar
    51    23    24    2
    52    23    19   ar
    53    18    13   ar
    54    12     7    1
    55     6     1   ar
    56    35    31    1
    57    52    48    1
    58    42    36   ar
@<TRIPOS>MOLECULE
*****
 52 58 0 0 0
SMALL
GASTEIGER

@<TRIPOS>ATOM
      1 C          59.6057   86.1567   10.1836 C.ar    1  UNL1        0.0481
      2 C          58.4744   85.3359   10.3418 C.ar    1  UNL1        0.0176
      3 C          58.2959   84.5904   11.5099 C.ar    1  UNL1        0.0382
      4 C          59.2377   84.6450   12.5420 C.ar    1  UNL1        0.1388
      5 C          60.3692   85.4686   12.3925 C.ar    1  UNL1        0.0382
      6 C          60.5489   86.2158   11.2250 C.ar    1  UNL1        0.0176
      7 N          60.0082   88.5781    6.6574 N.pl3   1  UNL1       -0.3041
      8 C          59.6360   87.1636    6.5093 C.3     1  UNL1        0.1122
      9 C          58.9774   86.6369    7.7882 C.3     1  UNL1        0.1122
     10 N          59.7927   86.9307    8.9772 N.pl3   1  UNL1       -0.3041
     11 C          60.8510   87.9487    8.9076 C.3     1  UNL1        0.1122
     12 C          60.4499   89.0877    7.9651 C.3     1  UNL1        0.1122
     13 C          60.0575   91.1552    3.2491 C.ar    1  UNL1        0.0699
     14 C          58.8902   91.0088    4.0159 C.ar    1  UNL1        0.0190
     15 C          58.8740   90.1687    5.1324 C.ar    1  UNL1        0.0160
     16 C          60.0244   89.4507    5.5052 C.ar    1  UNL1        0.0480
     17 C          61.1885   89.5893    4.7288 C.ar    1  UNL1        0.0160
     18 C          61.2047   90.4314    3.6136 C.ar    1  UNL1        0.0190
     19 N          60.0320   92.8036    0.0117 N.ar    1  UNL1       -0.2024
     20 N          60.1916   93.8454    0.8148 N.ar    1  UNL1       -0.1442
     21 C          60.2091   93.3641    2.0759 C.ar    1  UNL1        0.2073
     22 N          60.0665   92.0205    2.0970 N.ar    1  UNL1       -0.2398
     23 C          59.9704   91.7025    0.7907 C.ar    1  UNL1        0.3522
     24 O          59.8848   90.5234    0.3539 O.2     1  UNL1       -0.2444
     25 C          60.0269   92.9184   -1.4548 C.3     1  UNL1        0.1099
     26 C          61.3002   93.5840   -1.9991 C.3     1  UNL1        0.0265
     27 C          57.4395   92.8987   -1.5054 C.3     1  UNL1        0.0021
     28 C          58.7292   93.5769   -1.9714 C.3     1  UNL1        0.0245
     29 O          59.0073   83.8679   13.6892 O.3     1  UNL1       -0.4727
     30 C          59.2495   82.4657   13.8020 C.3     1  UNL1        0.2373
     31 C          58.5441   81.6676   12.6814 C.3     1  UNL1        0.1883
     32 O          58.7797   82.3271   11.4738 O.3     1  UNL1       -0.3270
     33 C          59.7795   81.5877   10.7951 C.3     1  UNL1        0.2079
     34 O          60.1376   80.4575   11.5705 O.3     1  UNL1       -0.3307
     35 C          59.0663   80.2638   12.4373 C.3     1  UNL1        0.1487
     36 C          59.2878   81.1018    9.4224 C.ar    1  UNL1        0.0390
     37 C          58.0633   81.6197    8.9457 C.ar    1  UNL1        0.0021
     38 C          57.5376   81.2208    7.7168 C.ar    1  UNL1        0.0113
     39 C          58.2142   80.2856    6.9376 C.ar    1  UNL1        0.0585
     40 CL         57.5500   79.7839    5.3934 Cl      1  UNL1       -0.0822
     41 C          59.4151   79.7415    7.3920 C.ar    1  UNL1        0.0226
     42 C          59.9582   80.1294    8.6243 C.ar    1  UNL1        0.0590
     43 CL         61.4573   79.3299    9.0927 Cl      1  UNL1       -0.0824
     44 C          59.4721   79.4252   13.6794 C.3     1  UNL1        0.0299
     45 C          58.8545   78.0191   13.6122 C.3     1  UNL1        0.0026
     46 C          61.0002   79.2995   13.7768 C.3     1  UNL1        0.0026
     47 C          61.0486   82.4596   10.6298 C.3     1  UNL1        0.0609
     48 C          62.3124   81.9102   11.3339 C.3     1  UNL1        0.0052
     49 C          62.6694   82.7318   12.5668 C.3     1  UNL1        0.0002
     50 C          64.1551   82.4978   12.7929 C.3     1  UNL1        0.0000
     51 C          64.7415   82.0929   11.4423 C.3     1  UNL1        0.0000
     52 C          63.5726   81.9668   10.4705 C.3     1  UNL1        0.0002
@<TRIPOS>BOND
     1    27    28    1
     2    28    25    1
     3    25    26    1
     4    25    19    1
     5    19    20   ar
     6    20    21   ar
     7    21    22   ar
     8    22    13    1
     9    13    14   ar
    10    14    15   ar
    11    15    16   ar
    12    16     7    1
    13     7     8    1
    14     8     9    1
    15     9    10    1
    16    10     1    1
    17     1     2   ar
    18     2     3   ar
    19     3     4   ar
    20     4    29    1
    21    29    30    1
    22    30    31    1
    23    31    32    1
    24    32    33    1
    25    33    47    1
    26    47    48    1
    27    48    49    1
    28    49    50    1
    29    50    51    1
    30    51    52    1
    31    33    36    1
    32    36    37   ar
    33    37    38   ar
    34    38    39   ar
    35    39    40    1
    36    39    41   ar
    37    41    42   ar
    38    42    43    1
    39    33    34    1
    40    34    35    1
    41    35    44    1
    42    44    45    1
    43    44    46    1
    44     4     5   ar
    45     5     6   ar
    46    10    11    1
    47    11    12    1
    48    16    17   ar
    49    17    18   ar
    50    22    23   ar
    51    23    24    2
    52    23    19   ar
    53    18    13   ar
    54    12     7    1
    55     6     1   ar
    56    35    31    1
    57    52    48    1
    58    42    36   ar
@<TRIPOS>MOLECULE
*****
 52 58 0 0 0
SMALL
GASTEIGER

@<TRIPOS>ATOM
      1 C          60.4731   86.7552   10.9452 C.ar    1  UNL1        0.0481
      2 C          59.3949   86.2524   11.6957 C.ar    1  UNL1        0.0176
      3 C          59.6172   85.6155   12.9192 C.ar    1  UNL1        0.0382
      4 C          60.9141   85.4649   13.4198 C.ar    1  UNL1        0.1388
      5 C          61.9971   85.9706   12.6765 C.ar    1  UNL1        0.0382
      6 C          61.7764   86.6089   11.4528 C.ar    1  UNL1        0.0176
      7 N          60.0009   88.7110    7.1491 N.pl3   1  UNL1       -0.3041
      8 C          59.6355   89.4383    8.3734 C.3     1  UNL1        0.1122
      9 C          60.3871   88.8777    9.5847 C.3     1  UNL1        0.1122
     10 N          60.2466   87.4161    9.6799 N.pl3   1  UNL1       -0.3041
     11 C          59.7934   86.6454    8.5129 C.3     1  UNL1        0.1122
     12 C          60.3063   87.2731    7.2130 C.3     1  UNL1        0.1122
     13 C          59.9356   90.6945    3.3646 C.ar    1  UNL1        0.0699
     14 C          58.7674   90.5939    4.1375 C.ar    1  UNL1        0.0190
     15 C          58.7885   89.9481    5.3766 C.ar    1  UNL1        0.0160
     16 C          59.9782   89.3829    5.8695 C.ar    1  UNL1        0.0480
     17 C          61.1439   89.4741    5.0884 C.ar    1  UNL1        0.0160
     18 C          61.1226   90.1220    3.8503 C.ar    1  UNL1        0.0190
     19 N          60.4384   92.5716    0.2951 N.ar    1  UNL1       -0.2024
     20 N          59.2018   92.1322    0.1125 N.ar    1  UNL1       -0.1442
     21 C          58.8870   91.3965    1.1998 C.ar    1  UNL1        0.2073
     22 N          59.9062   91.3587    2.0863 N.ar    1  UNL1       -0.2398
     23 C          60.8542   92.1124    1.4948 C.ar    1  UNL1        0.3522
     24 O          61.9654   92.3920    2.0196 O.2     1  UNL1       -0.2444
     25 C          61.1163   93.4679   -0.6541 C.3     1  UNL1        0.1099
     26 C          60.3610   93.5975   -1.9858 C.3     1  UNL1        0.0265
     27 C          62.8539   91.9170   -1.7824 C.3     1  UNL1        0.0021
     28 C          62.6029   93.0905   -0.8335 C.3     1  UNL1        0.0245
     29 O          61.0755   84.8098   14.6518 O.3     1  UNL1       -0.4727
     30 C          62.0030   83.7572   14.9149 C.3     1  UNL1        0.2373
     31 C          61.3517   82.3637   14.7592 C.3     1  UNL1        0.1883
     32 O          60.3143   82.4779   13.8321 O.3     1  UNL1       -0.3270
     33 C          60.7920   81.9272   12.6175 C.3     1  UNL1        0.2079
     34 O          62.1117   81.4471   12.8046 O.3     1  UNL1       -0.3307
     35 C          62.2394   81.2776   14.1800 C.3     1  UNL1        0.1487
     36 C          59.9113   80.7609   12.1419 C.ar    1  UNL1        0.0390
     37 C          60.4169   79.4520   12.3025 C.ar    1  UNL1        0.0021
     38 C          59.6890   78.3380   11.8847 C.ar    1  UNL1        0.0113
     39 C          58.4431   78.5021   11.2845 C.ar    1  UNL1        0.0585
     40 CL         57.5304   77.0996   10.7578 Cl      1  UNL1       -0.0822
     41 C          57.9273   79.7837   11.0939 C.ar    1  UNL1        0.0226
     42 C          58.6446   80.9148   11.5063 C.ar    1  UNL1        0.0590
     43 CL         57.8932   82.4718   11.1643 Cl      1  UNL1       -0.0824
     44 C          63.7270   81.2567   14.6242 C.3     1  UNL1        0.0299
     45 C          64.0376   79.9828   15.4264 C.3     1  UNL1        0.0026
     46 C          64.6607   81.3243   13.4059 C.3     1  UNL1        0.0026
     47 C          60.8481   83.0311   11.5328 C.3     1  UNL1        0.0609
     48 C          61.6820   82.6712   10.2798 C.3     1  UNL1        0.0052
     49 C          63.0097   83.4191   10.2562 C.3     1  UNL1        0.0002
     50 C          63.4262   83.4581    8.7939 C.3     1  UNL1        0.0000
     51 C          62.1464   83.3128    7.9737 C.3     1  UNL1        0.0000
     52 C          61.0122   83.0589    8.9616 C.3     1  UNL1        0.0002
@<TRIPOS>BOND
     1    27    28    1
     2    28    25    1
     3    25    26    1
     4    25    19    1
     5    19    20   ar
     6    20    21   ar
     7    21    22   ar
     8    22    13    1
     9    13    14   ar
    10    14    15   ar
    11    15    16   ar
    12    16     7    1
    13     7     8    1
    14     8     9    1
    15     9    10    1
    16    10     1    1
    17     1     2   ar
    18     2     3   ar
    19     3     4   ar
    20     4    29    1
    21    29    30    1
    22    30    31    1
    23    31    32    1
    24    32    33    1
    25    33    47    1
    26    47    48    1
    27    48    49    1
    28    49    50    1
    29    50    51    1
    30    51    52    1
    31    33    36    1
    32    36    37   ar
    33    37    38   ar
    34    38    39   ar
    35    39    40    1
    36    39    41   ar
    37    41    42   ar
    38    42    43    1
    39    33    34    1
    40    34    35    1
    41    35    44    1
    42    44    45    1
    43    44    46    1
    44     4     5   ar
    45     5     6   ar
    46    10    11    1
    47    11    12    1
    48    16    17   ar
    49    17    18   ar
    50    22    23   ar
    51    23    24    2
    52    23    19   ar
    53    18    13   ar
    54    12     7    1
    55     6     1   ar
    56    35    31    1
    57    52    48    1
    58    42    36   ar
@<TRIPOS>MOLECULE
*****
 52 58 0 0 0
SMALL
GASTEIGER

@<TRIPOS>ATOM
      1 C          60.1504   86.0028   10.1570 C.ar    1  UNL1        0.0481
      2 C          61.3089   85.7428   10.9111 C.ar    1  UNL1        0.0176
      3 C          61.2391   84.9806   12.0799 C.ar    1  UNL1        0.0382
      4 C          60.0177   84.4634   12.5224 C.ar    1  UNL1        0.1388
      5 C          58.8554   84.7151   11.7696 C.ar    1  UNL1        0.0382
      6 C          58.9237   85.4766   10.5995 C.ar    1  UNL1        0.0176
      7 N          60.2158   88.4675    6.6385 N.pl3   1  UNL1       -0.3041
      8 C          59.7655   87.0730    6.5208 C.3     1  UNL1        0.1122
      9 C          59.2494   86.5520    7.8657 C.3     1  UNL1        0.1122
     10 N          60.2192   86.7896    8.9464 N.pl3   1  UNL1       -0.3041
     11 C          61.3047   87.7628    8.7568 C.3     1  UNL1        0.1122
     12 C          60.8398   88.9345    7.8864 C.3     1  UNL1        0.1122
     13 C          59.9530   91.1008    3.2832 C.ar    1  UNL1        0.0699
     14 C          58.8527   90.9213    4.1371 C.ar    1  UNL1        0.0190
     15 C          58.9386   90.0628    5.2363 C.ar    1  UNL1        0.0160
     16 C          60.1265   89.3591    5.5043 C.ar    1  UNL1        0.0480
     17 C          61.2230   89.5310    4.6410 C.ar    1  UNL1        0.0160
     18 C          61.1371   90.3915    3.5432 C.ar    1  UNL1        0.0190
     19 N          59.6406   92.8017    0.0883 N.ar    1  UNL1       -0.2024
     20 N          59.8542   93.8322    0.8934 N.ar    1  UNL1       -0.1442
     21 C          59.9816   93.3305    2.1402 C.ar    1  UNL1        0.2073
     22 N          59.8567   91.9850    2.1496 N.ar    1  UNL1       -0.2398
     23 C          59.6563   91.6873    0.8504 C.ar    1  UNL1        0.3522
     24 O          59.5483   90.5145    0.4017 O.2     1  UNL1       -0.2444
     25 C          59.5127   92.9405   -1.3705 C.3     1  UNL1        0.1099
     26 C          60.7093   93.6693   -2.0012 C.3     1  UNL1        0.0265
     27 C          56.9373   92.6894   -1.4163 C.3     1  UNL1        0.0021
     28 C          58.1514   93.5510   -1.7688 C.3     1  UNL1        0.0245
     29 O          60.0091   83.7105   13.7082 O.3     1  UNL1       -0.4727
     30 C          61.1485   83.4356   14.5229 C.3     1  UNL1        0.2373
     31 C          61.7556   82.0477   14.2142 C.3     1  UNL1        0.1883
     32 O          60.7639   81.2717   13.6117 O.3     1  UNL1       -0.3270
     33 C          61.0561   81.2428   12.2258 C.3     1  UNL1        0.2079
     34 O          62.2435   81.9752   11.9793 O.3     1  UNL1       -0.3307
     35 C          62.8925   82.0296   13.2091 C.3     1  UNL1        0.1487
     36 C          61.2561   79.8049   11.7212 C.ar    1  UNL1        0.0390
     37 C          62.1857   79.6016   10.6775 C.ar    1  UNL1        0.0021
     38 C          62.4170   78.3309   10.1509 C.ar    1  UNL1        0.0113
     39 C          61.7176   77.2321   10.6439 C.ar    1  UNL1        0.0585
     40 CL         62.0087   75.6353    9.9785 Cl      1  UNL1       -0.0822
     41 C          60.7784   77.4054   11.6601 C.ar    1  UNL1        0.0226
     42 C          60.5319   78.6746   12.2009 C.ar    1  UNL1        0.0590
     43 CL         59.2893   78.7537   13.4482 Cl      1  UNL1       -0.0824
     44 C          63.9197   83.1923   13.2696 C.3     1  UNL1        0.0299
     45 C          64.8512   83.0331   14.4820 C.3     1  UNL1        0.0026
     46 C          64.7656   83.2398   11.9879 C.3     1  UNL1        0.0026
     47 C          59.9133   81.9309   11.4391 C.3     1  UNL1        0.0609
     48 C          59.6019   81.3022   10.0597 C.3     1  UNL1        0.0052
     49 C          60.0284   82.2167    8.9176 C.3     1  UNL1        0.0002
     50 C          59.1745   81.8043    7.7284 C.3     1  UNL1        0.0000
     51 C          57.9197   81.1491    8.3012 C.3     1  UNL1        0.0000
     52 C          58.1120   81.0666    9.8121 C.3     1  UNL1        0.0002
@<TRIPOS>BOND
     1    27    28    1
     2    28    25    1
     3    25    26    1
     4    25    19    1
     5    19    20   ar
     6    20    21   ar
     7    21    22   ar
     8    22    13    1
     9    13    14   ar
    10    14    15   ar
    11    15    16   ar
    12    16     7    1
    13     7     8    1
    14     8     9    1
    15     9    10    1
    16    10     1    1
    17     1     2   ar
    18     2     3   ar
    19     3     4   ar
    20     4    29    1
    21    29    30    1
    22    30    31    1
    23    31    32    1
    24    32    33    1
    25    33    47    1
    26    47    48    1
    27    48    49    1
    28    49    50    1
    29    50    51    1
    30    51    52    1
    31    33    36    1
    32    36    37   ar
    33    37    38   ar
    34    38    39   ar
    35    39    40    1
    36    39    41   ar
    37    41    42   ar
    38    42    43    1
    39    33    34    1
    40    34    35    1
    41    35    44    1
    42    44    45    1
    43    44    46    1
    44     4     5   ar
    45     5     6   ar
    46    10    11    1
    47    11    12    1
    48    16    17   ar
    49    17    18   ar
    50    22    23   ar
    51    23    24    2
    52    23    19   ar
    53    18    13   ar
    54    12     7    1
    55     6     1   ar
    56    35    31    1
    57    52    48    1
    58    42    36   ar
@<TRIPOS>MOLECULE
*****
 52 58 0 0 0
SMALL
GASTEIGER

@<TRIPOS>ATOM
      1 C          60.6586   86.9553   10.6761 C.ar    1  UNL1        0.0481
      2 C          59.5732   86.4219   11.3943 C.ar    1  UNL1        0.0176
      3 C          59.7800   85.7675   12.6113 C.ar    1  UNL1        0.0382
      4 C          61.0683   85.6296   13.1372 C.ar    1  UNL1        0.1388
      5 C          62.1582   86.1659   12.4263 C.ar    1  UNL1        0.0382
      6 C          61.9530   86.8217   11.2092 C.ar    1  UNL1        0.0176
      7 N          60.2097   88.8958    6.8692 N.pl3   1  UNL1       -0.3041
      8 C          60.3320   89.7231    8.0784 C.3     1  UNL1        0.1122
      9 C          61.0525   88.9567    9.1920 C.3     1  UNL1        0.1122
     10 N          60.4481   87.6344    9.4176 N.pl3   1  UNL1       -0.3041
     11 C          59.5639   87.0488    8.3994 C.3     1  UNL1        0.1122
     12 C          60.0201   87.4418    6.9908 C.3     1  UNL1        0.1122
     13 C          60.1466   90.7287    3.0095 C.ar    1  UNL1        0.0699
     14 C          61.3204   90.1310    3.4963 C.ar    1  UNL1        0.0190
     15 C          61.3412   89.5287    4.7571 C.ar    1  UNL1        0.0160
     16 C          60.1889   89.5148    5.5632 C.ar    1  UNL1        0.0480
     17 C          59.0180   90.1246    5.0789 C.ar    1  UNL1        0.0160
     18 C          58.9974   90.7248    3.8170 C.ar    1  UNL1        0.0190
     19 N          59.4924   92.1833   -0.2546 N.ar    1  UNL1       -0.2024
     20 N          60.8091   92.3158   -0.1879 N.ar    1  UNL1       -0.1442
     21 C          61.1898   91.8120    1.0053 C.ar    1  UNL1        0.2073
     22 N          60.1329   91.3510    1.7100 N.ar    1  UNL1       -0.2398
     23 C          59.0908   91.5879    0.8888 C.ar    1  UNL1        0.3522
     24 O          57.9025   91.2501    1.1380 O.2     1  UNL1       -0.2444
     25 C          58.7100   92.5634   -1.4408 C.3     1  UNL1        0.1099
     26 C          57.8519   93.8160   -1.2055 C.3     1  UNL1        0.0265
     27 C          56.3864   91.5704   -1.9997 C.3     1  UNL1        0.0021
     28 C          57.9032   91.3708   -1.9988 C.3     1  UNL1        0.0245
     29 O          61.2143   84.9559   14.3611 O.3     1  UNL1       -0.4727
     30 C          62.1434   83.9041   14.6218 C.3     1  UNL1        0.2373
     31 C          61.4770   82.5120   14.5323 C.3     1  UNL1        0.1883
     32 O          60.5534   82.5467   13.4862 O.3     1  UNL1       -0.3270
     33 C          61.1494   81.8679   12.3949 C.3     1  UNL1        0.2079
     34 O          62.4266   81.3895   12.7784 O.3     1  UNL1       -0.3307
     35 C          62.3948   81.3592   14.1693 C.3     1  UNL1        0.1487
     36 C          60.2970   80.6725   11.9404 C.ar    1  UNL1        0.0390
     37 C          59.0287   80.5083   12.5400 C.ar    1  UNL1        0.0021
     38 C          58.1976   79.4423   12.1960 C.ar    1  UNL1        0.0113
     39 C          58.6156   78.5058   11.2538 C.ar    1  UNL1        0.0585
     40 CL         57.5693   77.1648   10.8244 Cl      1  UNL1       -0.0822
     41 C          59.8713   78.6307   10.6601 C.ar    1  UNL1        0.0226
     42 C          60.7205   79.6944   10.9938 C.ar    1  UNL1        0.0590
     43 CL         62.2936   79.7041   10.1995 Cl      1  UNL1       -0.0824
     44 C          63.8222   81.3613   14.7803 C.3     1  UNL1        0.0299
     45 C          64.0245   80.1426   15.6950 C.3     1  UNL1        0.0026
     46 C          64.8886   81.3430   13.6744 C.3     1  UNL1        0.0026
     47 C          61.3559   82.8544   11.2192 C.3     1  UNL1        0.0609
     48 C          60.5264   82.5393    9.9513 C.3     1  UNL1        0.0052
     49 C          61.2135   83.0502    8.6905 C.3     1  UNL1        0.0002
     50 C          60.1026   83.2236    7.6663 C.3     1  UNL1        0.0000
     51 C          58.8090   83.4111    8.4559 C.3     1  UNL1        0.0000
     52 C          59.1553   83.2146    9.9284 C.3     1  UNL1        0.0002
@<TRIPOS>BOND
     1    27    28    1
     2    28    25    1
     3    25    26    1
     4    25    19    1
     5    19    20   ar
     6    20    21   ar
     7    21    22   ar
     8    22    13    1
     9    13    14   ar
    10    14    15   ar
    11    15    16   ar
    12    16     7    1
    13     7     8    1
    14     8     9    1
    15     9    10    1
    16    10     1    1
    17     1     2   ar
    18     2     3   ar
    19     3     4   ar
    20     4    29    1
    21    29    30    1
    22    30    31    1
    23    31    32    1
    24    32    33    1
    25    33    47    1
    26    47    48    1
    27    48    49    1
    28    49    50    1
    29    50    51    1
    30    51    52    1
    31    33    36    1
    32    36    37   ar
    33    37    38   ar
    34    38    39   ar
    35    39    40    1
    36    39    41   ar
    37    41    42   ar
    38    42    43    1
    39    33    34    1
    40    34    35    1
    41    35    44    1
    42    44    45    1
    43    44    46    1
    44     4     5   ar
    45     5     6   ar
    46    10    11    1
    47    11    12    1
    48    16    17   ar
    49    17    18   ar
    50    22    23   ar
    51    23    24    2
    52    23    19   ar
    53    18    13   ar
    54    12     7    1
    55     6     1   ar
    56    35    31    1
    57    52    48    1
    58    42    36   ar
@<TRIPOS>MOLECULE
*****
 52 58 0 0 0
SMALL
GASTEIGER

@<TRIPOS>ATOM
      1 C          60.2727   84.9757    9.4389 C.ar    1  UNL1        0.0481
      2 C          59.1551   84.4892   10.1408 C.ar    1  UNL1        0.0176
      3 C          59.2878   83.4271   11.0387 C.ar    1  UNL1        0.0382
      4 C          60.5322   82.8275   11.2557 C.ar    1  UNL1        0.1388
      5 C          61.6558   83.3131   10.5607 C.ar    1  UNL1        0.0382
      6 C          61.5250   84.3762    9.6628 C.ar    1  UNL1        0.0176
      7 N          59.9044   88.1125    6.5261 N.pl3   1  UNL1       -0.3041
      8 C          61.0154   88.1626    7.4877 C.3     1  UNL1        0.1122
      9 C          61.3427   86.7622    8.0152 C.3     1  UNL1        0.1122
     10 N          60.1394   86.0755    8.5105 N.pl3   1  UNL1       -0.3041
     11 C          58.8065   86.5642    8.1284 C.3     1  UNL1        0.1122
     12 C          58.8219   87.1323    6.7059 C.3     1  UNL1        0.1122
     13 C          59.6758   90.9651    3.3527 C.ar    1  UNL1        0.0699
     14 C          58.5156   90.5584    4.0313 C.ar    1  UNL1        0.0190
     15 C          58.5897   89.6279    5.0712 C.ar    1  UNL1        0.0160
     16 C          59.8264   89.0781    5.4534 C.ar    1  UNL1        0.0480
     17 C          60.9853   89.4776    4.7645 C.ar    1  UNL1        0.0160
     18 C          60.9107   90.4099    3.7261 C.ar    1  UNL1        0.0190
     19 N          59.3666   92.8760    0.2784 N.ar    1  UNL1       -0.2024
     20 N          59.6385   93.8442    1.1412 N.ar    1  UNL1       -0.1442
     21 C          59.7712   93.2599    2.3509 C.ar    1  UNL1        0.2073
     22 N          59.5920   91.9224    2.2791 N.ar    1  UNL1       -0.2398
     23 C          59.3528   91.7157    0.9688 C.ar    1  UNL1        0.3522
     24 O          59.1880   90.5789    0.4503 O.2     1  UNL1       -0.2444
     25 C          59.2143   93.1118   -1.1656 C.3     1  UNL1        0.1099
     26 C          57.7521   93.0168   -1.6281 C.3     1  UNL1        0.0265
     27 C          61.6287   92.6920   -1.9974 C.3     1  UNL1        0.0021
     28 C          60.1714   92.2263   -1.9928 C.3     1  UNL1        0.0245
     29 O          60.6020   81.7592   12.1650 O.3     1  UNL1       -0.4727
     30 C          61.4460   81.7044   13.3149 C.3     1  UNL1        0.2373
     31 C          62.4890   82.8456   13.3186 C.3     1  UNL1        0.1883
     32 O          61.7999   84.0547   13.2096 O.3     1  UNL1       -0.3270
     33 C          61.7833   84.6313   14.5035 C.3     1  UNL1        0.2079
     34 O          62.4875   83.7924   15.4022 O.3     1  UNL1       -0.3307
     35 C          63.2976   83.0012   14.5934 C.3     1  UNL1        0.1487
     36 C          62.4443   86.0188   14.5115 C.ar    1  UNL1        0.0390
     37 C          62.7973   86.5820   13.2653 C.ar    1  UNL1        0.0021
     38 C          63.4143   87.8302   13.1834 C.ar    1  UNL1        0.0113
     39 C          63.7060   88.5432   14.3436 C.ar    1  UNL1        0.0585
     40 CL         64.4840   90.1119   14.2380 Cl      1  UNL1       -0.0822
     41 C          63.3878   88.0031   15.5893 C.ar    1  UNL1        0.0226
     42 C          62.7686   86.7500   15.6914 C.ar    1  UNL1        0.0590
     43 CL         62.4634   86.1714   17.3278 Cl      1  UNL1       -0.0824
     44 C          63.7472   81.7038   15.3184 C.3     1  UNL1        0.0299
     45 C          62.5292   80.8702   15.7478 C.3     1  UNL1        0.0026
     46 C          64.6435   80.8523   14.4062 C.3     1  UNL1        0.0026
     47 C          60.3229   84.7324   15.0089 C.3     1  UNL1        0.0609
     48 C          59.3238   85.3407   13.9956 C.3     1  UNL1        0.0052
     49 C          59.0051   86.7939   14.3259 C.3     1  UNL1        0.0002
     50 C          57.6523   87.0669   13.6865 C.3     1  UNL1        0.0000
     51 C          56.9561   85.7148   13.5489 C.3     1  UNL1        0.0000
     52 C          57.9590   84.6523   13.9871 C.3     1  UNL1        0.0002
@<TRIPOS>BOND
     1    27    28    1
     2    28    25    1
     3    25    26    1
     4    25    19    1
     5    19    20   ar
     6    20    21   ar
     7    21    22   ar
     8    22    13    1
     9    13    14   ar
    10    14    15   ar
    11    15    16   ar
    12    16     7    1
    13     7     8    1
    14     8     9    1
    15     9    10    1
    16    10     1    1
    17     1     2   ar
    18     2     3   ar
    19     3     4   ar
    20     4    29    1
    21    29    30    1
    22    30    31    1
    23    31    32    1
    24    32    33    1
    25    33    47    1
    26    47    48    1
    27    48    49    1
    28    49    50    1
    29    50    51    1
    30    51    52    1
    31    33    36    1
    32    36    37   ar
    33    37    38   ar
    34    38    39   ar
    35    39    40    1
    36    39    41   ar
    37    41    42   ar
    38    42    43    1
    39    33    34    1
    40    34    35    1
    41    35    44    1
    42    44    45    1
    43    44    46    1
    44     4     5   ar
    45     5     6   ar
    46    10    11    1
    47    11    12    1
    48    16    17   ar
    49    17    18   ar
    50    22    23   ar
    51    23    24    2
    52    23    19   ar
    53    18    13   ar
    54    12     7    1
    55     6     1   ar
    56    35    31    1
    57    52    48    1
    58    42    36   ar
