@<TRIPOS>MOLECULE
*****
 35 39 0 0 0
SMALL
GASTEIGER

@<TRIPOS>ATOM
      1 C          49.5304   10.7414  -19.2821 C.2     1  UNL1        0.2512
      2 O          50.5842   10.0790  -19.0773 O.2     1  UNL1       -0.2698
      3 N          48.7786   10.5093  -20.4911 N.am    1  UNL1       -0.2759
      4 C          47.3101   10.4915  -20.4854 C.3     1  UNL1        0.0954
      5 C          46.7437   11.3300  -21.6477 C.3     1  UNL1        0.0399
      6 C          47.6464   11.3529  -22.9245 C.3     1  UNL1        0.0645
      7 C          48.5747   10.1106  -22.9388 C.3     1  UNL1        0.0399
      8 C          49.4872   10.0644  -21.6993 C.3     1  UNL1        0.0954
      9 C          48.5276   12.6560  -22.9530 C.3     1  UNL1        0.0477
     10 C          47.7137   13.8492  -23.3491 C.ar    1  UNL1        0.0220
     11 C          47.9913   15.1929  -23.2503 C.ar    1  UNL1        0.0923
     12 N          47.0477   15.8679  -23.9571 N.ar    1  UNL1       -0.2534
     13 N          46.2257   14.9975  -24.5375 N.ar    1  UNL1       -0.1651
     14 C          46.6270   13.7711  -24.1623 C.ar    1  UNL1        0.1515
     15 C          46.1263   12.4850  -24.6229 C.2     1  UNL1        0.2650
     16 O          45.1865   12.4081  -25.4575 O.2     1  UNL1       -0.2684
     17 N          46.7651   11.3019  -24.1166 N.am    1  UNL1       -0.3023
     18 H          46.4530   10.3759  -24.4883 H       1  UNL1        0.1497
     19 C          48.7970   12.1491  -14.5870 C.ar    1  UNL1        0.2248
     20 N          48.4259   13.1105  -13.6950 N.ar    1  UNL1       -0.2101
     21 C          48.0100   14.3421  -14.0904 C.ar    1  UNL1        0.1021
     22 C          47.9592   14.6643  -15.4470 C.ar    1  UNL1        0.0210
     23 C          48.3340   13.7050  -16.3961 C.ar    1  UNL1        0.0083
     24 C          48.3065   14.0034  -17.7652 C.ar    1  UNL1        0.0300
     25 C          48.6976   13.0458  -18.7062 C.ar    1  UNL1        0.1445
     26 F          48.6871   13.3797  -20.0218 F       1  UNL1       -0.2040
     27 C          49.1175   11.7674  -18.2902 C.ar    1  UNL1        0.0811
     28 C          49.1138   11.4610  -16.9187 C.ar    1  UNL1        0.0114
     29 C          48.7484   12.4249  -15.9666 C.ar    1  UNL1        0.0535
     30 C          50.4396   10.7250  -13.3934 C.3     1  UNL1        0.2542
     31 O          49.2390   10.8992  -14.1351 O.3     1  UNL1       -0.4561
     32 C          46.9987   17.3190  -24.2310 C.3     1  UNL1        0.0867
     33 C          46.1127   17.6389  -25.4558 C.3     1  UNL1        0.0244
     34 C          46.4297   18.0384  -22.9964 C.3     1  UNL1        0.0244
     35 C          48.4246   17.8327  -24.5128 C.3     1  UNL1        0.0244
@<TRIPOS>BOND
     1    30    31    1
     2    31    19    1
     3    19    20   ar
     4    20    21   ar
     5    21    22   ar
     6    22    23   ar
     7    23    24   ar
     8    24    25   ar
     9    25    26    1
    10    25    27   ar
    11    27     1    1
    12     1     2    2
    13     1     3   am
    14     3     4    1
    15     4     5    1
    16     5     6    1
    17     6     7    1
    18     7     8    1
    19     6     9    1
    20     9    10    1
    21    10    11   ar
    22    11    12   ar
    23    12    32    1
    24    32    33    1
    25    32    34    1
    26    32    35    1
    27    12    13   ar
    28    13    14   ar
    29    14    15    1
    30    15    16    2
    31    15    17   am
    32    27    28   ar
    33    28    29   ar
    34    29    19   ar
    35    29    23   ar
    36     8     3    1
    37    14    10   ar
    38    17     6    1
    39    17    18    1
@<TRIPOS>MOLECULE
*****
 35 39 0 0 0
SMALL
GASTEIGER

@<TRIPOS>ATOM
      1 C          49.4931   12.3909  -23.7920 C.2     1  UNL1        0.2512
      2 O          49.3662   11.7675  -22.7027 O.2     1  UNL1       -0.2698
      3 N          48.5578   13.4409  -24.1135 N.am    1  UNL1       -0.2759
      4 C          48.9982   14.6841  -24.7595 C.3     1  UNL1        0.0954
      5 C          48.0690   15.0560  -25.9313 C.3     1  UNL1        0.0399
      6 C          46.5825   14.6090  -25.7410 C.3     1  UNL1        0.0645
      7 C          46.2747   14.4232  -24.2324 C.3     1  UNL1        0.0399
      8 C          47.1872   13.3628  -23.5889 C.3     1  UNL1        0.0954
      9 C          46.3141   13.2535  -26.4932 C.3     1  UNL1        0.0477
     10 C          46.1954   13.4704  -27.9703 C.ar    1  UNL1        0.0220
     11 C          46.2281   12.5714  -29.0110 C.ar    1  UNL1        0.0923
     12 N          45.8431   13.2232  -30.1390 N.ar    1  UNL1       -0.2534
     13 N          45.5192   14.4771  -29.8343 N.ar    1  UNL1       -0.1651
     14 C          45.7397   14.6286  -28.5174 C.ar    1  UNL1        0.1515
     15 C          45.4285   15.7798  -27.6838 C.2     1  UNL1        0.2650
     16 O          44.9088   16.8192  -28.1688 O.2     1  UNL1       -0.2684
     17 N          45.7045   15.6775  -26.2776 N.am    1  UNL1       -0.3023
     18 H          45.4279   16.4758  -25.6617 H       1  UNL1        0.1497
     19 C          51.0632    9.8634  -27.7554 C.ar    1  UNL1        0.2248
     20 N          52.0719    9.5272  -28.6083 N.ar    1  UNL1       -0.2101
     21 C          53.3359   10.0018  -28.4562 C.ar    1  UNL1        0.1021
     22 C          53.6386   10.8701  -27.4068 C.ar    1  UNL1        0.0210
     23 C          52.6300   11.2417  -26.5090 C.ar    1  UNL1        0.0083
     24 C          52.9002   12.1228  -25.4532 C.ar    1  UNL1        0.0300
     25 C          51.8842   12.5020  -24.5703 C.ar    1  UNL1        0.1445
     26 F          52.1752   13.3806  -23.5774 F       1  UNL1       -0.2040
     27 C          50.5784   11.9980  -24.7272 C.ar    1  UNL1        0.0811
     28 C          50.3182   11.0903  -25.7680 C.ar    1  UNL1        0.0114
     29 C          51.3256   10.7255  -26.6741 C.ar    1  UNL1        0.0535
     30 C          49.4854    8.2914  -28.8463 C.3     1  UNL1        0.2542
     31 O          49.7697    9.3673  -27.9612 O.3     1  UNL1       -0.4561
     32 C          45.6183   12.6424  -31.4789 C.3     1  UNL1        0.0867
     33 C          45.9929   13.6358  -32.6016 C.3     1  UNL1        0.0244
     34 C          46.4775   11.3747  -31.6210 C.3     1  UNL1        0.0244
     35 C          44.1293   12.2733  -31.6309 C.3     1  UNL1        0.0244
@<TRIPOS>BOND
     1    30    31    1
     2    31    19    1
     3    19    20   ar
     4    20    21   ar
     5    21    22   ar
     6    22    23   ar
     7    23    24   ar
     8    24    25   ar
     9    25    26    1
    10    25    27   ar
    11    27     1    1
    12     1     2    2
    13     1     3   am
    14     3     4    1
    15     4     5    1
    16     5     6    1
    17     6     7    1
    18     7     8    1
    19     6     9    1
    20     9    10    1
    21    10    11   ar
    22    11    12   ar
    23    12    32    1
    24    32    33    1
    25    32    34    1
    26    32    35    1
    27    12    13   ar
    28    13    14   ar
    29    14    15    1
    30    15    16    2
    31    15    17   am
    32    27    28   ar
    33    28    29   ar
    34    29    19   ar
    35    29    23   ar
    36     8     3    1
    37    14    10   ar
    38    17     6    1
    39    17    18    1
@<TRIPOS>MOLECULE
*****
 35 39 0 0 0
SMALL
GASTEIGER

@<TRIPOS>ATOM
      1 C          49.0863    8.2893  -27.8458 C.2     1  UNL1        0.2512
      2 O          48.7551    7.0791  -27.7154 O.2     1  UNL1       -0.2698
      3 N          50.1669    8.8119  -27.0459 N.am    1  UNL1       -0.2759
      4 C          51.1465    9.7516  -27.6066 C.3     1  UNL1        0.0954
      5 C          51.3804   10.9391  -26.6527 C.3     1  UNL1        0.0399
      6 C          51.2240   10.5878  -25.1369 C.3     1  UNL1        0.0645
      7 C          51.4372    9.0668  -24.9214 C.3     1  UNL1        0.0399
      8 C          50.4235    8.2283  -25.7217 C.3     1  UNL1        0.0954
      9 C          49.7909   10.9858  -24.6241 C.3     1  UNL1        0.0477
     10 C          49.6809   12.4661  -24.4252 C.ar    1  UNL1        0.0220
     11 C          48.5742   13.2646  -24.2519 C.ar    1  UNL1        0.0923
     12 N          49.0030   14.4983  -23.8781 N.ar    1  UNL1       -0.2534
     13 N          50.3280   14.4863  -23.7579 N.ar    1  UNL1       -0.1651
     14 C          50.7399   13.2529  -24.0969 C.ar    1  UNL1        0.1515
     15 C          52.0848   12.7038  -24.0151 C.2     1  UNL1        0.2650
     16 O          53.0536   13.3996  -23.6116 O.2     1  UNL1       -0.2684
     17 N          52.2645   11.3258  -24.3799 N.am    1  UNL1       -0.3023
     18 H          53.2152   10.9058  -24.2660 H       1  UNL1        0.1497
     19 C          46.4117   12.3565  -28.7772 C.ar    1  UNL1        0.2248
     20 N          45.7313   13.1351  -29.6653 N.ar    1  UNL1       -0.2101
     21 C          45.5978   12.7925  -30.9733 C.ar    1  UNL1        0.1021
     22 C          46.1726   11.6152  -31.4533 C.ar    1  UNL1        0.0210
     23 C          46.8817   10.7879  -30.5735 C.ar    1  UNL1        0.0083
     24 C          47.4817    9.6059  -31.0288 C.ar    1  UNL1        0.0300
     25 C          48.2018    8.7931  -30.1478 C.ar    1  UNL1        0.1445
     26 F          48.7950    7.6714  -30.6301 F       1  UNL1       -0.2040
     27 C          48.3274    9.1484  -28.7908 C.ar    1  UNL1        0.0811
     28 C          47.6981   10.3178  -28.3309 C.ar    1  UNL1        0.0114
     29 C          46.9963   11.1527  -29.2138 C.ar    1  UNL1        0.0535
     30 C          46.3138   14.0929  -27.0092 C.3     1  UNL1        0.2542
     31 O          46.5425   12.7578  -27.4417 O.3     1  UNL1       -0.4561
     32 C          48.1738   15.6521  -23.4727 C.3     1  UNL1        0.0867
     33 C          46.6652   15.3316  -23.5664 C.3     1  UNL1        0.0244
     34 C          48.5198   16.0267  -22.0216 C.3     1  UNL1        0.0244
     35 C          48.4770   16.8474  -24.3977 C.3     1  UNL1        0.0244
@<TRIPOS>BOND
     1    30    31    1
     2    31    19    1
     3    19    20   ar
     4    20    21   ar
     5    21    22   ar
     6    22    23   ar
     7    23    24   ar
     8    24    25   ar
     9    25    26    1
    10    25    27   ar
    11    27     1    1
    12     1     2    2
    13     1     3   am
    14     3     4    1
    15     4     5    1
    16     5     6    1
    17     6     7    1
    18     7     8    1
    19     6     9    1
    20     9    10    1
    21    10    11   ar
    22    11    12   ar
    23    12    32    1
    24    32    33    1
    25    32    34    1
    26    32    35    1
    27    12    13   ar
    28    13    14   ar
    29    14    15    1
    30    15    16    2
    31    15    17   am
    32    27    28   ar
    33    28    29   ar
    34    29    19   ar
    35    29    23   ar
    36     8     3    1
    37    14    10   ar
    38    17     6    1
    39    17    18    1
@<TRIPOS>MOLECULE
*****
 35 39 0 0 0
SMALL
GASTEIGER

@<TRIPOS>ATOM
      1 C          49.5364   13.3693  -24.2187 C.2     1  UNL1        0.2512
      2 O          49.9584   12.8210  -25.2735 O.2     1  UNL1       -0.2698
      3 N          49.7693   12.7237  -22.9499 N.am    1  UNL1       -0.2759
      4 C          50.1272   13.4975  -21.7541 C.3     1  UNL1        0.0954
      5 C          49.2923   13.0513  -20.5381 C.3     1  UNL1        0.0399
      6 C          48.8872   11.5409  -20.5545 C.3     1  UNL1        0.0645
      7 C          49.8670   10.7399  -21.4510 C.3     1  UNL1        0.0399
      8 C          49.8692   11.2583  -22.9010 C.3     1  UNL1        0.0954
      9 C          47.4242   11.3687  -21.1069 C.3     1  UNL1        0.0477
     10 C          46.4093   11.7631  -20.0786 C.ar    1  UNL1        0.0220
     11 C          45.0641   12.0224  -20.2042 C.ar    1  UNL1        0.0923
     12 N          44.5361   12.1066  -18.9553 N.ar    1  UNL1       -0.2534
     13 N          45.4857   11.8560  -18.0578 N.ar    1  UNL1       -0.1651
     14 C          46.6252   11.6538  -18.7407 C.ar    1  UNL1        0.1515
     15 C          47.9172   11.2311  -18.2221 C.2     1  UNL1        0.2650
     16 O          48.0952   11.0272  -16.9923 O.2     1  UNL1       -0.2684
     17 N          48.9779   11.0211  -19.1681 N.am    1  UNL1       -0.3023
     18 H          49.8916   10.6587  -18.8117 H       1  UNL1        0.1497
     19 C          49.2877   18.1453  -25.5190 C.ar    1  UNL1        0.2248
     20 N          48.5688   19.2994  -25.6133 N.ar    1  UNL1       -0.2101
     21 C          47.2833   19.3880  -25.1823 C.ar    1  UNL1        0.1021
     22 C          46.6499   18.2749  -24.6286 C.ar    1  UNL1        0.0210
     23 C          47.3532   17.0691  -24.5153 C.ar    1  UNL1        0.0083
     24 C          46.7396   15.9303  -23.9760 C.ar    1  UNL1        0.0300
     25 C          47.4431   14.7255  -23.8809 C.ar    1  UNL1        0.1445
     26 F          46.8075   13.6351  -23.3812 F       1  UNL1       -0.2040
     27 C          48.7789   14.6432  -24.3197 C.ar    1  UNL1        0.0811
     28 C          49.4010   15.7950  -24.8308 C.ar    1  UNL1        0.0114
     29 C          48.6939   17.0007  -24.9543 C.ar    1  UNL1        0.0535
     30 C          51.7354   18.3384  -25.1693 C.3     1  UNL1        0.2542
     31 O          50.6040   18.0923  -25.9947 O.3     1  UNL1       -0.4561
     32 C          43.1123   12.2601  -18.5913 C.3     1  UNL1        0.0867
     33 C          42.6120   11.0766  -17.7331 C.3     1  UNL1        0.0244
     34 C          42.9410   13.5659  -17.7969 C.3     1  UNL1        0.0244
     35 C          42.2623   12.3252  -19.8757 C.3     1  UNL1        0.0244
@<TRIPOS>BOND
     1    30    31    1
     2    31    19    1
     3    19    20   ar
     4    20    21   ar
     5    21    22   ar
     6    22    23   ar
     7    23    24   ar
     8    24    25   ar
     9    25    26    1
    10    25    27   ar
    11    27     1    1
    12     1     2    2
    13     1     3   am
    14     3     4    1
    15     4     5    1
    16     5     6    1
    17     6     7    1
    18     7     8    1
    19     6     9    1
    20     9    10    1
    21    10    11   ar
    22    11    12   ar
    23    12    32    1
    24    32    33    1
    25    32    34    1
    26    32    35    1
    27    12    13   ar
    28    13    14   ar
    29    14    15    1
    30    15    16    2
    31    15    17   am
    32    27    28   ar
    33    28    29   ar
    34    29    19   ar
    35    29    23   ar
    36     8     3    1
    37    14    10   ar
    38    17     6    1
    39    17    18    1
@<TRIPOS>MOLECULE
*****
 35 39 0 0 0
SMALL
GASTEIGER

@<TRIPOS>ATOM
      1 C          50.1608   16.0183  -24.3878 C.2     1  UNL1        0.2512
      2 O          50.9769   16.9662  -24.2244 O.2     1  UNL1       -0.2698
      3 N          50.3494   14.7938  -23.6490 N.am    1  UNL1       -0.2759
      4 C          49.2095   14.0591  -23.0854 C.3     1  UNL1        0.0954
      5 C          49.3169   12.5531  -23.3939 C.3     1  UNL1        0.0399
      6 C          50.7835   12.0186  -23.4902 C.3     1  UNL1        0.0645
      7 C          51.7409   12.9569  -22.7103 C.3     1  UNL1        0.0399
      8 C          51.7099   14.3936  -23.2636 C.3     1  UNL1        0.0954
      9 C          51.2449   11.9433  -24.9924 C.3     1  UNL1        0.0477
     10 C          50.6329   10.7657  -25.6864 C.ar    1  UNL1        0.0220
     11 C          50.5416   10.4661  -27.0259 C.ar    1  UNL1        0.0923
     12 N          50.1115    9.1824  -27.1391 N.ar    1  UNL1       -0.2534
     13 N          49.9837    8.6522  -25.9255 N.ar    1  UNL1       -0.1651
     14 C          50.2943    9.6168  -25.0430 C.ar    1  UNL1        0.1515
     15 C          50.4200    9.5020  -23.5980 C.2     1  UNL1        0.2650
     16 O          50.2084    8.4109  -23.0061 O.2     1  UNL1       -0.2684
     17 N          50.8280   10.6717  -22.8703 N.am    1  UNL1       -0.3023
     18 H          50.9802   10.5828  -21.8397 H       1  UNL1        0.1497
     19 C          46.8556   14.0572  -27.5172 C.ar    1  UNL1        0.2248
     20 N          45.8321   14.2279  -28.4008 N.ar    1  UNL1       -0.2101
     21 C          45.3520   15.4576  -28.7227 C.ar    1  UNL1        0.1021
     22 C          45.8996   16.6003  -28.1386 C.ar    1  UNL1        0.0210
     23 C          46.9519   16.4681  -27.2240 C.ar    1  UNL1        0.0083
     24 C          47.5134   17.5963  -26.6107 C.ar    1  UNL1        0.0300
     25 C          48.5531   17.4553  -25.6862 C.ar    1  UNL1        0.1445
     26 F          49.0523   18.5675  -25.0892 F       1  UNL1       -0.2040
     27 C          49.0534   16.1785  -25.3650 C.ar    1  UNL1        0.0811
     28 C          48.5094   15.0520  -26.0052 C.ar    1  UNL1        0.0114
     29 C          47.4481   15.1826  -26.9139 C.ar    1  UNL1        0.0535
     30 C          46.4892   11.6123  -27.3195 C.3     1  UNL1        0.2542
     31 O          47.3060   12.7698  -27.1984 O.3     1  UNL1       -0.4561
     32 C          49.9719    8.3884  -28.3772 C.3     1  UNL1        0.0867
     33 C          51.2439    8.4656  -29.2511 C.3     1  UNL1        0.0244
     34 C          49.7093    6.9209  -27.9990 C.3     1  UNL1        0.0244
     35 C          48.7832    8.9280  -29.1972 C.3     1  UNL1        0.0244
@<TRIPOS>BOND
     1    30    31    1
     2    31    19    1
     3    19    20   ar
     4    20    21   ar
     5    21    22   ar
     6    22    23   ar
     7    23    24   ar
     8    24    25   ar
     9    25    26    1
    10    25    27   ar
    11    27     1    1
    12     1     2    2
    13     1     3   am
    14     3     4    1
    15     4     5    1
    16     5     6    1
    17     6     7    1
    18     7     8    1
    19     6     9    1
    20     9    10    1
    21    10    11   ar
    22    11    12   ar
    23    12    32    1
    24    32    33    1
    25    32    34    1
    26    32    35    1
    27    12    13   ar
    28    13    14   ar
    29    14    15    1
    30    15    16    2
    31    15    17   am
    32    27    28   ar
    33    28    29   ar
    34    29    19   ar
    35    29    23   ar
    36     8     3    1
    37    14    10   ar
    38    17     6    1
    39    17    18    1
@<TRIPOS>MOLECULE
*****
 35 39 0 0 0
SMALL
GASTEIGER

@<TRIPOS>ATOM
      1 C          47.6457   14.7726  -25.7338 C.2     1  UNL1        0.2512
      2 O          47.7005   15.9769  -25.3626 O.2     1  UNL1       -0.2698
      3 N          48.2573   13.7561  -24.9131 N.am    1  UNL1       -0.2759
      4 C          47.6176   12.4494  -24.7132 C.3     1  UNL1        0.0954
      5 C          48.6332   11.3045  -24.8940 C.3     1  UNL1        0.0399
      6 C          50.0967   11.6713  -24.4825 C.3     1  UNL1        0.0645
      7 C          50.0840   12.8568  -23.4827 C.3     1  UNL1        0.0399
      8 C          49.4212   14.1081  -24.0878 C.3     1  UNL1        0.0954
      9 C          50.9407   12.0726  -25.7482 C.3     1  UNL1        0.0477
     10 C          51.3293   10.8641  -26.5429 C.ar    1  UNL1        0.0220
     11 C          51.8221   10.7569  -27.8228 C.ar    1  UNL1        0.0923
     12 N          52.2392    9.4768  -28.0044 N.ar    1  UNL1       -0.2534
     13 N          52.0773    8.7961  -26.8727 N.ar    1  UNL1       -0.1651
     14 C          51.5183    9.6379  -25.9869 C.ar    1  UNL1        0.1515
     15 C          51.2525    9.4058  -24.5754 C.2     1  UNL1        0.2650
     16 O          51.5228    8.3035  -24.0299 O.2     1  UNL1       -0.2684
     17 N          50.7001   10.4922  -23.8147 N.am    1  UNL1       -0.3023
     18 H          50.5630   10.3548  -22.7873 H       1  UNL1        0.1497
     19 C          46.6576   11.5549  -29.3716 C.ar    1  UNL1        0.2248
     20 N          46.0334   11.2718  -30.5497 N.ar    1  UNL1       -0.2101
     21 C          45.2826   12.1920  -31.2098 C.ar    1  UNL1        0.1021
     22 C          45.1206   13.4742  -30.6839 C.ar    1  UNL1        0.0210
     23 C          45.7441   13.8050  -29.4743 C.ar    1  UNL1        0.0083
     24 C          45.5889   15.0804  -28.9141 C.ar    1  UNL1        0.0300
     25 C          46.2013   15.3983  -27.6979 C.ar    1  UNL1        0.1445
     26 F          46.0045   16.6334  -27.1701 F       1  UNL1       -0.2040
     27 C          46.9871   14.4433  -27.0240 C.ar    1  UNL1        0.0811
     28 C          47.1663   13.1758  -27.6040 C.ar    1  UNL1        0.0114
     29 C          46.5336   12.8400  -28.8106 C.ar    1  UNL1        0.0535
     30 C          47.8728    9.3931  -29.3607 C.3     1  UNL1        0.2542
     31 O          47.4053   10.5700  -28.7140 O.3     1  UNL1       -0.4561
     32 C          52.9407    8.9195  -29.1793 C.3     1  UNL1        0.0867
     33 C          54.1427    8.0423  -28.7631 C.3     1  UNL1        0.0244
     34 C          51.9509    8.0655  -29.9895 C.3     1  UNL1        0.0244
     35 C          53.4607   10.0748  -30.0575 C.3     1  UNL1        0.0244
@<TRIPOS>BOND
     1    30    31    1
     2    31    19    1
     3    19    20   ar
     4    20    21   ar
     5    21    22   ar
     6    22    23   ar
     7    23    24   ar
     8    24    25   ar
     9    25    26    1
    10    25    27   ar
    11    27     1    1
    12     1     2    2
    13     1     3   am
    14     3     4    1
    15     4     5    1
    16     5     6    1
    17     6     7    1
    18     7     8    1
    19     6     9    1
    20     9    10    1
    21    10    11   ar
    22    11    12   ar
    23    12    32    1
    24    32    33    1
    25    32    34    1
    26    32    35    1
    27    12    13   ar
    28    13    14   ar
    29    14    15    1
    30    15    16    2
    31    15    17   am
    32    27    28   ar
    33    28    29   ar
    34    29    19   ar
    35    29    23   ar
    36     8     3    1
    37    14    10   ar
    38    17     6    1
    39    17    18    1
@<TRIPOS>MOLECULE
*****
 35 39 0 0 0
SMALL
GASTEIGER

@<TRIPOS>ATOM
      1 C          48.3008   10.7622  -23.5509 C.2     1  UNL1        0.2512
      2 O          48.9100    9.6706  -23.7198 O.2     1  UNL1       -0.2698
      3 N          47.4572   11.2664  -24.6067 N.am    1  UNL1       -0.2759
      4 C          46.1690   11.9080  -24.3139 C.3     1  UNL1        0.0954
      5 C          46.0104   13.2167  -25.1120 C.3     1  UNL1        0.0399
      6 C          46.7285   13.2144  -26.5013 C.3     1  UNL1        0.0645
      7 C          46.9326   11.7565  -26.9892 C.3     1  UNL1        0.0399
      8 C          47.7829   10.9367  -26.0013 C.3     1  UNL1        0.0954
      9 C          48.1284   13.9252  -26.3991 C.3     1  UNL1        0.0477
     10 C          47.9745   15.4136  -26.3360 C.ar    1  UNL1        0.0220
     11 C          48.8760   16.3910  -25.9834 C.ar    1  UNL1        0.0923
     12 N          48.3376   17.5944  -26.3113 N.ar    1  UNL1       -0.2534
     13 N          47.1616   17.4041  -26.9037 N.ar    1  UNL1       -0.1651
     14 C          46.9385   16.0790  -26.9126 C.ar    1  UNL1        0.1515
     15 C          45.8479   15.3587  -27.5519 C.2     1  UNL1        0.2650
     16 O          44.9393   15.9655  -28.1778 O.2     1  UNL1       -0.2684
     17 N          45.8611   13.9242  -27.4730 N.am    1  UNL1       -0.3023
     18 H          45.1155   13.3958  -27.9810 H       1  UNL1        0.1497
     19 C          46.6895   12.2045  -19.0915 C.ar    1  UNL1        0.2248
     20 N          46.9016   12.8908  -17.9331 N.ar    1  UNL1       -0.2101
     21 C          48.0407   13.5967  -17.7090 C.ar    1  UNL1        0.1021
     22 C          49.0471   13.6313  -18.6748 C.ar    1  UNL1        0.0210
     23 C          48.8691   12.9379  -19.8785 C.ar    1  UNL1        0.0083
     24 C          49.8676   12.9427  -20.8620 C.ar    1  UNL1        0.0300
     25 C          49.6895   12.2347  -22.0546 C.ar    1  UNL1        0.1445
     26 F          50.6901   12.2370  -22.9719 F       1  UNL1       -0.2040
     27 C          48.5018   11.5136  -22.2852 C.ar    1  UNL1        0.0811
     28 C          47.4898   11.5367  -21.3105 C.ar    1  UNL1        0.0114
     29 C          47.6715   12.2226  -20.0999 C.ar    1  UNL1        0.0535
     30 C          44.2158   12.0284  -19.0716 C.3     1  UNL1        0.2542
     31 O          45.5091   11.4728  -19.2727 O.3     1  UNL1       -0.4561
     32 C          48.9834   18.9205  -26.2235 C.3     1  UNL1        0.0867
     33 C          49.1653   19.5600  -27.6182 C.3     1  UNL1        0.0244
     34 C          48.1086   19.8424  -25.3572 C.3     1  UNL1        0.0244
     35 C          50.3720   18.7687  -25.5714 C.3     1  UNL1        0.0244
@<TRIPOS>BOND
     1    30    31    1
     2    31    19    1
     3    19    20   ar
     4    20    21   ar
     5    21    22   ar
     6    22    23   ar
     7    23    24   ar
     8    24    25   ar
     9    25    26    1
    10    25    27   ar
    11    27     1    1
    12     1     2    2
    13     1     3   am
    14     3     4    1
    15     4     5    1
    16     5     6    1
    17     6     7    1
    18     7     8    1
    19     6     9    1
    20     9    10    1
    21    10    11   ar
    22    11    12   ar
    23    12    32    1
    24    32    33    1
    25    32    34    1
    26    32    35    1
    27    12    13   ar
    28    13    14   ar
    29    14    15    1
    30    15    16    2
    31    15    17   am
    32    27    28   ar
    33    28    29   ar
    34    29    19   ar
    35    29    23   ar
    36     8     3    1
    37    14    10   ar
    38    17     6    1
    39    17    18    1
@<TRIPOS>MOLECULE
*****
 35 39 0 0 0
SMALL
GASTEIGER

@<TRIPOS>ATOM
      1 C          48.9539   11.6608  -24.7666 C.2     1  UNL1        0.2512
      2 O          49.4147   10.7745  -25.5369 O.2     1  UNL1       -0.2698
      3 N          49.3310   11.6464  -23.3744 N.am    1  UNL1       -0.2759
      4 C          49.6111   12.8909  -22.6465 C.3     1  UNL1        0.0954
      5 C          48.9012   12.9017  -21.2787 C.3     1  UNL1        0.0399
      6 C          48.7324   11.4888  -20.6299 C.3     1  UNL1        0.0645
      7 C          49.7887   10.5113  -21.2078 C.3     1  UNL1        0.0399
      8 C          49.6563   10.3638  -22.7349 C.3     1  UNL1        0.0954
      9 C          47.2932   10.9203  -20.9143 C.3     1  UNL1        0.0477
     10 C          46.2696   11.5842  -20.0456 C.ar    1  UNL1        0.0220
     11 C          44.8968   11.5981  -20.1333 C.ar    1  UNL1        0.0923
     12 N          44.4098   12.1367  -18.9851 N.ar    1  UNL1       -0.2534
     13 N          45.4200   12.4083  -18.1630 N.ar    1  UNL1       -0.1651
     14 C          46.5503   12.0784  -18.8106 C.ar    1  UNL1        0.1515
     15 C          47.9106   12.0775  -18.2943 C.2     1  UNL1        0.2650
     16 O          48.1643   12.4364  -17.1143 O.2     1  UNL1       -0.2684
     17 N          48.9543   11.6196  -19.1691 N.am    1  UNL1       -0.3023
     18 H          49.9256   11.5575  -18.7871 H       1  UNL1        0.1497
     19 C          48.0865   15.8976  -27.1872 C.ar    1  UNL1        0.2248
     20 N          47.1980   16.8020  -27.6875 N.ar    1  UNL1       -0.2101
     21 C          45.8553   16.6535  -27.5416 C.ar    1  UNL1        0.1021
     22 C          45.3402   15.5444  -26.8698 C.ar    1  UNL1        0.0210
     23 C          46.2195   14.5907  -26.3420 C.ar    1  UNL1        0.0083
     24 C          45.7319   13.4592  -25.6740 C.ar    1  UNL1        0.0300
     25 C          46.6155   12.5030  -25.1638 C.ar    1  UNL1        0.1445
     26 F          46.1067   11.4048  -24.5492 F       1  UNL1       -0.2040
     27 C          48.0066   12.6684  -25.3091 C.ar    1  UNL1        0.0811
     28 C          48.4932   13.8195  -25.9517 C.ar    1  UNL1        0.0114
     29 C          47.6127   14.7703  -26.4899 C.ar    1  UNL1        0.0535
     30 C          50.2232   17.0398  -26.6575 C.3     1  UNL1        0.2542
     31 O          49.4621   16.0791  -27.3783 O.3     1  UNL1       -0.4561
     32 C          42.9942   12.2530  -18.5781 C.3     1  UNL1        0.0867
     33 C          42.7437   13.5282  -17.7423 C.3     1  UNL1        0.0244
     34 C          42.1167   12.2979  -19.8404 C.3     1  UNL1        0.0244
     35 C          42.6066   11.0277  -17.7266 C.3     1  UNL1        0.0244
@<TRIPOS>BOND
     1    30    31    1
     2    31    19    1
     3    19    20   ar
     4    20    21   ar
     5    21    22   ar
     6    22    23   ar
     7    23    24   ar
     8    24    25   ar
     9    25    26    1
    10    25    27   ar
    11    27     1    1
    12     1     2    2
    13     1     3   am
    14     3     4    1
    15     4     5    1
    16     5     6    1
    17     6     7    1
    18     7     8    1
    19     6     9    1
    20     9    10    1
    21    10    11   ar
    22    11    12   ar
    23    12    32    1
    24    32    33    1
    25    32    34    1
    26    32    35    1
    27    12    13   ar
    28    13    14   ar
    29    14    15    1
    30    15    16    2
    31    15    17   am
    32    27    28   ar
    33    28    29   ar
    34    29    19   ar
    35    29    23   ar
    36     8     3    1
    37    14    10   ar
    38    17     6    1
    39    17    18    1
@<TRIPOS>MOLECULE
*****
 35 39 0 0 0
SMALL
GASTEIGER

@<TRIPOS>ATOM
      1 C          46.3323   14.8116  -25.8709 C.2     1  UNL1        0.2512
      2 O          45.1551   15.2246  -26.0575 O.2     1  UNL1       -0.2698
      3 N          46.5387   13.4540  -25.4294 N.am    1  UNL1       -0.2759
      4 C          47.6400   12.6386  -25.9578 C.3     1  UNL1        0.0954
      5 C          48.3875   11.9170  -24.8196 C.3     1  UNL1        0.0399
      6 C          47.4900   11.5458  -23.5939 C.3     1  UNL1        0.0645
      7 C          46.0040   11.4667  -24.0307 C.3     1  UNL1        0.0399
      8 C          45.5064   12.8037  -24.6102 C.3     1  UNL1        0.0954
      9 C          47.6370   12.6233  -22.4569 C.3     1  UNL1        0.0477
     10 C          48.9320   12.4596  -21.7226 C.ar    1  UNL1        0.0220
     11 C          49.5843   13.3105  -20.8607 C.ar    1  UNL1        0.0923
     12 N          50.5961   12.6181  -20.2755 N.ar    1  UNL1       -0.2534
     13 N          50.5671   11.3562  -20.6959 N.ar    1  UNL1       -0.1651
     14 C          49.5598   11.2620  -21.5803 C.ar    1  UNL1        0.1515
     15 C          49.0478   10.0654  -22.2306 C.2     1  UNL1        0.2650
     16 O          49.5611    8.9348  -22.0212 O.2     1  UNL1       -0.2684
     17 N          47.9114   10.2131  -23.0971 N.am    1  UNL1       -0.3023
     18 H          47.4989    9.3506  -23.5203 H       1  UNL1        0.1497
     19 C          50.6843   16.6892  -24.4226 C.ar    1  UNL1        0.2248
     20 N          51.7210   17.5477  -24.6368 N.ar    1  UNL1       -0.2101
     21 C          51.7543   18.3897  -25.7027 C.ar    1  UNL1        0.1021
     22 C          50.7112   18.3915  -26.6293 C.ar    1  UNL1        0.0210
     23 C          49.6278   17.5230  -26.4466 C.ar    1  UNL1        0.0083
     24 C          48.5717   17.4922  -27.3675 C.ar    1  UNL1        0.0300
     25 C          47.5010   16.6109  -27.1870 C.ar    1  UNL1        0.1445
     26 F          46.5106   16.5869  -28.1150 F       1  UNL1       -0.2040
     27 C          47.4674   15.7482  -26.0743 C.ar    1  UNL1        0.0811
     28 C          48.5123   15.8039  -25.1362 C.ar    1  UNL1        0.0114
     29 C          49.6032   16.6663  -25.3239 C.ar    1  UNL1        0.0535
     30 C          51.4952   14.6456  -23.2751 C.3     1  UNL1        0.2542
     31 O          50.7002   15.8236  -23.3217 O.3     1  UNL1       -0.4561
     32 C          51.4962   13.0820  -19.1995 C.3     1  UNL1        0.0867
     33 C          52.7124   12.1443  -19.0291 C.3     1  UNL1        0.0244
     34 C          51.9948   14.4956  -19.5441 C.3     1  UNL1        0.0244
     35 C          50.7204   13.1215  -17.8679 C.3     1  UNL1        0.0244
@<TRIPOS>BOND
     1    30    31    1
     2    31    19    1
     3    19    20   ar
     4    20    21   ar
     5    21    22   ar
     6    22    23   ar
     7    23    24   ar
     8    24    25   ar
     9    25    26    1
    10    25    27   ar
    11    27     1    1
    12     1     2    2
    13     1     3   am
    14     3     4    1
    15     4     5    1
    16     5     6    1
    17     6     7    1
    18     7     8    1
    19     6     9    1
    20     9    10    1
    21    10    11   ar
    22    11    12   ar
    23    12    32    1
    24    32    33    1
    25    32    34    1
    26    32    35    1
    27    12    13   ar
    28    13    14   ar
    29    14    15    1
    30    15    16    2
    31    15    17   am
    32    27    28   ar
    33    28    29   ar
    34    29    19   ar
    35    29    23   ar
    36     8     3    1
    37    14    10   ar
    38    17     6    1
    39    17    18    1
