@<TRIPOS>MOLECULE
*****
 46 51 0 0 0
SMALL
GASTEIGER

@<TRIPOS>ATOM
      1 C          61.8368   89.4196   11.5713 C.ar    1  UNL1        0.1713
      2 C          61.9614   89.9381   10.2701 C.ar    1  UNL1        0.0560
      3 C          60.8793   89.8991    9.3835 C.ar    1  UNL1        0.0732
      4 C          59.6855   89.2973    9.8060 C.ar    1  UNL1        0.1151
      5 N          59.5852   88.7876   11.0606 N.ar    1  UNL1       -0.2248
      6 C          60.6188   88.8238   11.9451 C.ar    1  UNL1        0.1660
      7 N          60.4385   88.2770   13.2611 N.pl3   1  UNL1       -0.2908
      8 C          60.8794   89.0585   14.4242 C.3     1  UNL1        0.0924
      9 C          60.8226   88.2269   15.7146 C.3     1  UNL1        0.0252
     10 C          61.3044   86.7894   15.4383 C.3     1  UNL1        0.0472
     11 C          60.3942   86.0779   14.4026 C.3     1  UNL1        0.0252
     12 C          59.6580   87.0499   13.4631 C.3     1  UNL1        0.0924
     13 C          61.3924   85.9708   16.7408 C.3     1  UNL1        0.2054
     14 O          62.2448   84.8352   16.5817 O.3     1  UNL1       -0.4755
     15 C          63.3118   84.7348   15.6736 C.ar    1  UNL1        0.1388
     16 C          64.4377   85.5786   15.7247 C.ar    1  UNL1        0.0369
     17 C          65.4690   85.4303   14.7954 C.ar    1  UNL1        0.0033
     18 C          65.3905   84.4474   13.8067 C.ar    1  UNL1        0.0066
     19 C          64.2728   83.5994   13.7357 C.ar    1  UNL1        0.0785
     20 C          63.2373   83.7548   14.6758 C.ar    1  UNL1        0.0433
     21 C          64.1904   82.5595   12.6864 C.2     1  UNL1        0.3381
     22 O          63.0990   81.9728   12.4526 O.2     1  UNL1       -0.2451
     23 O          65.3194   82.2183   11.9461 O.3     1  UNL1       -0.4771
     24 H          65.2740   81.5077   11.2255 H       1  UNL1        0.2954
     25 N          61.0355   90.4194    8.0530 N.am    1  UNL1       -0.2766
     26 C          60.1123   90.1731    6.9777 C.2     1  UNL1        0.2839
     27 O          59.1387   89.3898    7.1382 O.2     1  UNL1       -0.2665
     28 H          61.8404   91.0618    7.8866 H       1  UNL1        0.1553
     29 C          60.2907   90.8067    5.6598 C.ar    1  UNL1        0.1946
     30 O          61.4687   90.8808    5.0655 O.2     1  UNL1       -0.4492
     31 C          61.3043   91.4991    3.9216 C.ar    1  UNL1        0.1452
     32 C          62.2776   91.7993    2.9748 C.ar    1  UNL1        0.0375
     33 C          61.8769   92.4714    1.8068 C.ar    1  UNL1        0.0031
     34 C          60.5169   92.8310    1.6030 C.ar    1  UNL1        0.0002
     35 C          59.5579   92.5056    2.5921 C.ar    1  UNL1        0.0028
     36 C          59.9921   91.8404    3.7388 C.ar    1  UNL1        0.0337
     37 C          59.3074   91.3851    4.8474 C.ar    1  UNL1        0.0202
     38 C          57.8297   91.4695    5.0832 C.3     1  UNL1        0.0345
     39 C          60.1050   93.5408    0.3654 C.ar    1  UNL1        0.0000
     40 C          61.0457   93.8271   -0.6423 C.ar    1  UNL1        0.0000
     41 C          60.6552   94.4957   -1.8066 C.ar    1  UNL1        0.0000
     42 C          59.3255   94.8863   -1.9782 C.ar    1  UNL1        0.0000
     43 C          58.3829   94.6089   -0.9857 C.ar    1  UNL1        0.0000
     44 C          58.7676   93.9398    0.1802 C.ar    1  UNL1        0.0000
     45 C          63.7423   90.6192   12.6647 C.3     1  UNL1        0.2526
     46 O          62.8779   89.4990   12.5100 O.3     1  UNL1       -0.4686
@<TRIPOS>BOND
     1    45    46    1
     2    46     1    1
     3     1     2   ar
     4     2     3   ar
     5     3    25    1
     6    25    26   am
     7    26    27    2
     8    26    29    1
     9    29    30   ar
    10    30    31   ar
    11    31    32   ar
    12    32    33   ar
    13    33    34   ar
    14    34    39    1
    15    39    40   ar
    16    40    41   ar
    17    41    42   ar
    18    42    43   ar
    19    43    44   ar
    20    34    35   ar
    21    35    36   ar
    22    36    37   ar
    23    37    38    1
    24     3     4   ar
    25     4     5   ar
    26     5     6   ar
    27     6     7    1
    28     7     8    1
    29     8     9    1
    30     9    10    1
    31    10    13    1
    32    13    14    1
    33    14    15    1
    34    15    16   ar
    35    16    17   ar
    36    17    18   ar
    37    18    19   ar
    38    19    21    1
    39    21    22    2
    40    21    23    1
    41    19    20   ar
    42    10    11    1
    43    11    12    1
    44     6     1   ar
    45    12     7    1
    46    37    29   ar
    47    20    15   ar
    48    36    31   ar
    49    44    39   ar
    50    25    28    1
    51    23    24    1
@<TRIPOS>MOLECULE
*****
 46 51 0 0 0
SMALL
GASTEIGER

@<TRIPOS>ATOM
      1 C          59.2481   86.2127    9.6708 C.ar    1  UNL1        0.1713
      2 C          59.2532   86.9300    8.4613 C.ar    1  UNL1        0.0560
      3 C          60.2092   87.9255    8.2299 C.ar    1  UNL1        0.0732
      4 C          61.1329   88.2188    9.2431 C.ar    1  UNL1        0.1151
      5 N          61.1061   87.5277   10.4117 N.ar    1  UNL1       -0.2248
      6 C          60.1943   86.5475   10.6562 C.ar    1  UNL1        0.1660
      7 N          60.2321   85.8479   11.9102 N.pl3   1  UNL1       -0.2908
      8 C          59.7304   86.5196   13.1164 C.3     1  UNL1        0.0924
      9 C          60.0626   85.7194   14.3849 C.3     1  UNL1        0.0252
     10 C          61.4833   85.1314   14.2817 C.3     1  UNL1        0.0472
     11 C          61.6032   84.1508   13.0853 C.3     1  UNL1        0.0252
     12 C          60.5842   84.4236   11.9643 C.3     1  UNL1        0.0924
     13 C          61.8985   84.4421   15.5959 C.3     1  UNL1        0.2054
     14 O          62.9382   85.1676   16.2547 O.3     1  UNL1       -0.4755
     15 C          63.0908   86.5639   16.2491 C.ar    1  UNL1        0.1388
     16 C          62.8842   87.3576   17.3936 C.ar    1  UNL1        0.0369
     17 C          63.0527   88.7420   17.3278 C.ar    1  UNL1        0.0033
     18 C          63.4236   89.3503   16.1268 C.ar    1  UNL1        0.0066
     19 C          63.6289   88.5762   14.9727 C.ar    1  UNL1        0.0785
     20 C          63.4573   87.1815   15.0466 C.ar    1  UNL1        0.0433
     21 C          64.0203   89.2226   13.7004 C.2     1  UNL1        0.3381
     22 O          64.8143   90.2021   13.6993 O.2     1  UNL1       -0.2451
     23 O          63.5142   88.7544   12.4905 O.3     1  UNL1       -0.4771
     24 H          63.7756   89.1896   11.6139 H       1  UNL1        0.2954
     25 N          60.1838   88.6572    6.9933 N.am    1  UNL1       -0.2766
     26 C          59.9515   90.0737    6.8994 C.2     1  UNL1        0.2839
     27 O          59.6619   90.7431    7.9267 O.2     1  UNL1       -0.2665
     28 H          60.4080   88.1264    6.1237 H       1  UNL1        0.1553
     29 C          60.0218   90.7735    5.6051 C.ar    1  UNL1        0.1946
     30 O          61.1711   91.0669    5.0225 O.2     1  UNL1       -0.4492
     31 C          60.9061   91.6875    3.8989 C.ar    1  UNL1        0.1452
     32 C          61.8158   92.1810    2.9701 C.ar    1  UNL1        0.0375
     33 C          61.3087   92.8154    1.8225 C.ar    1  UNL1        0.0031
     34 C          59.9077   92.9460    1.6209 C.ar    1  UNL1        0.0002
     35 C          59.0162   92.4287    2.5912 C.ar    1  UNL1        0.0028
     36 C          59.5552   91.8074    3.7180 C.ar    1  UNL1        0.0337
     37 C          58.9560   91.2046    4.8054 C.ar    1  UNL1        0.0202
     38 C          57.4850   91.0289    5.0329 C.3     1  UNL1        0.0345
     39 C          59.3833   93.6180    0.4049 C.ar    1  UNL1        0.0000
     40 C          60.2628   94.2130   -0.5197 C.ar    1  UNL1        0.0000
     41 C          59.7663   94.8452   -1.6638 C.ar    1  UNL1        0.0000
     42 C          58.3903   94.8921   -1.8975 C.ar    1  UNL1        0.0000
     43 C          57.5074   94.3064   -0.9876 C.ar    1  UNL1        0.0000
     44 C          57.9983   93.6720    0.1577 C.ar    1  UNL1        0.0000
     45 C          57.6847   84.4168    8.8989 C.3     1  UNL1        0.2526
     46 O          58.3471   85.1636    9.9135 O.3     1  UNL1       -0.4686
@<TRIPOS>BOND
     1    45    46    1
     2    46     1    1
     3     1     2   ar
     4     2     3   ar
     5     3    25    1
     6    25    26   am
     7    26    27    2
     8    26    29    1
     9    29    30   ar
    10    30    31   ar
    11    31    32   ar
    12    32    33   ar
    13    33    34   ar
    14    34    39    1
    15    39    40   ar
    16    40    41   ar
    17    41    42   ar
    18    42    43   ar
    19    43    44   ar
    20    34    35   ar
    21    35    36   ar
    22    36    37   ar
    23    37    38    1
    24     3     4   ar
    25     4     5   ar
    26     5     6   ar
    27     6     7    1
    28     7     8    1
    29     8     9    1
    30     9    10    1
    31    10    13    1
    32    13    14    1
    33    14    15    1
    34    15    16   ar
    35    16    17   ar
    36    17    18   ar
    37    18    19   ar
    38    19    21    1
    39    21    22    2
    40    21    23    1
    41    19    20   ar
    42    10    11    1
    43    11    12    1
    44     6     1   ar
    45    12     7    1
    46    37    29   ar
    47    20    15   ar
    48    36    31   ar
    49    44    39   ar
    50    25    28    1
    51    23    24    1
@<TRIPOS>MOLECULE
*****
 46 51 0 0 0
SMALL
GASTEIGER

@<TRIPOS>ATOM
      1 C          60.5629   88.5284   10.9641 C.ar    1  UNL1        0.1713
      2 C          60.5108   89.1273    9.6928 C.ar    1  UNL1        0.0560
      3 C          60.7459   88.3688    8.5404 C.ar    1  UNL1        0.0732
      4 C          61.0732   87.0130    8.6832 C.ar    1  UNL1        0.1151
      5 N          61.1342   86.4523    9.9183 N.ar    1  UNL1       -0.2248
      6 C          60.8984   87.1654   11.0533 C.ar    1  UNL1        0.1660
      7 N          60.9675   86.5047   12.3268 N.pl3   1  UNL1       -0.2908
      8 C          61.9950   86.9204   13.2907 C.3     1  UNL1        0.0924
      9 C          62.0670   85.9582   14.4860 C.3     1  UNL1        0.0252
     10 C          61.9093   84.5033   14.0032 C.3     1  UNL1        0.0472
     11 C          60.5316   84.2791   13.3257 C.3     1  UNL1        0.0252
     12 C          59.9187   85.5649   12.7422 C.3     1  UNL1        0.0924
     13 C          62.1175   83.5063   15.1596 C.3     1  UNL1        0.2054
     14 O          62.6799   82.2796   14.6903 O.3     1  UNL1       -0.4755
     15 C          62.1931   81.5148   13.6173 C.ar    1  UNL1        0.1388
     16 C          62.8933   81.3716   12.4042 C.ar    1  UNL1        0.0369
     17 C          62.3598   80.5964   11.3728 C.ar    1  UNL1        0.0033
     18 C          61.1272   79.9606   11.5347 C.ar    1  UNL1        0.0066
     19 C          60.4107   80.0958   12.7354 C.ar    1  UNL1        0.0785
     20 C          60.9548   80.8786   13.7705 C.ar    1  UNL1        0.0433
     21 C          59.1039   79.4227   12.9046 C.2     1  UNL1        0.3381
     22 O          58.3652   79.2018   11.9070 O.2     1  UNL1       -0.2451
     23 O          58.6771   79.0264   14.1695 O.3     1  UNL1       -0.4771
     24 H          57.7842   78.5649   14.2965 H       1  UNL1        0.2954
     25 N          60.7044   89.0064    7.2531 N.am    1  UNL1       -0.2766
     26 C          59.9206   90.1758    6.9577 C.2     1  UNL1        0.2839
     27 O          59.1399   90.6568    7.8218 O.2     1  UNL1       -0.2665
     28 H          61.3316   88.6222    6.5133 H       1  UNL1        0.1553
     29 C          59.9898   90.8265    5.6379 C.ar    1  UNL1        0.1946
     30 O          61.1371   91.0595    5.0248 O.2     1  UNL1       -0.4492
     31 C          60.8717   91.6485    3.8844 C.ar    1  UNL1        0.1452
     32 C          61.7797   92.0773    2.9224 C.ar    1  UNL1        0.0375
     33 C          61.2725   92.6875    1.7618 C.ar    1  UNL1        0.0031
     34 C          59.8731   92.8588    1.5805 C.ar    1  UNL1        0.0002
     35 C          58.9834   92.4070    2.5845 C.ar    1  UNL1        0.0028
     36 C          59.5225   91.8081    3.7232 C.ar    1  UNL1        0.0337
     37 C          58.9241   91.2651    4.8422 C.ar    1  UNL1        0.0202
     38 C          57.4526   91.1481    5.1019 C.3     1  UNL1        0.0345
     39 C          59.3486   93.5047    0.3505 C.ar    1  UNL1        0.0000
     40 C          60.1917   94.2853   -0.4633 C.ar    1  UNL1        0.0000
     41 C          59.6952   94.8925   -1.6208 C.ar    1  UNL1        0.0000
     42 C          58.3551   94.7294   -1.9783 C.ar    1  UNL1        0.0000
     43 C          57.5084   93.9582   -1.1791 C.ar    1  UNL1        0.0000
     44 C          57.9997   93.3479   -0.0210 C.ar    1  UNL1        0.0000
     45 C          58.9739   89.3408   12.7193 C.3     1  UNL1        0.2526
     46 O          60.2693   89.2406   12.1380 O.3     1  UNL1       -0.4686
@<TRIPOS>BOND
     1    45    46    1
     2    46     1    1
     3     1     2   ar
     4     2     3   ar
     5     3    25    1
     6    25    26   am
     7    26    27    2
     8    26    29    1
     9    29    30   ar
    10    30    31   ar
    11    31    32   ar
    12    32    33   ar
    13    33    34   ar
    14    34    39    1
    15    39    40   ar
    16    40    41   ar
    17    41    42   ar
    18    42    43   ar
    19    43    44   ar
    20    34    35   ar
    21    35    36   ar
    22    36    37   ar
    23    37    38    1
    24     3     4   ar
    25     4     5   ar
    26     5     6   ar
    27     6     7    1
    28     7     8    1
    29     8     9    1
    30     9    10    1
    31    10    13    1
    32    13    14    1
    33    14    15    1
    34    15    16   ar
    35    16    17   ar
    36    17    18   ar
    37    18    19   ar
    38    19    21    1
    39    21    22    2
    40    21    23    1
    41    19    20   ar
    42    10    11    1
    43    11    12    1
    44     6     1   ar
    45    12     7    1
    46    37    29   ar
    47    20    15   ar
    48    36    31   ar
    49    44    39   ar
    50    25    28    1
    51    23    24    1
