@<TRIPOS>MOLECULE
*****
 48 53 0 0 0
SMALL
GASTEIGER

@<TRIPOS>ATOM
      1 O         -65.4772  -40.7293  -27.5624 O.2     1  UNL1       -0.2701
      2 C         -64.5330  -41.2430  -26.9027 C.2     1  UNL1        0.2484
      3 N         -63.5632  -42.0803  -27.5533 N.am    1  UNL1       -0.2945
      4 H         -62.8788  -42.5725  -26.9392 H       1  UNL1        0.1501
      5 C         -64.4801  -41.0627  -25.4385 C.ar    1  UNL1        0.0813
      6 C         -65.5465  -40.4385  -24.7740 C.ar    1  UNL1        0.0147
      7 C         -65.6245  -40.4607  -23.3767 C.ar    1  UNL1        0.0481
      8 BR        -67.1231  -39.6109  -22.5366 Br      1  UNL1       -0.0477
      9 C         -64.6197  -41.1029  -22.6250 C.ar    1  UNL1        0.0565
     10 C         -63.4945  -41.6149  -23.2929 C.ar    1  UNL1        0.0448
     11 C         -63.4270  -41.6054  -24.6852 C.ar    1  UNL1        0.1457
     12 F         -62.3413  -42.1478  -25.2936 F       1  UNL1       -0.2040
     13 N         -64.7897  -41.3424  -21.2121 N.pl3   1  UNL1       -0.3036
     14 C         -63.9290  -40.6686  -20.2308 C.3     1  UNL1        0.1122
     15 C         -62.8001  -41.6170  -19.7732 C.3     1  UNL1        0.1123
     16 N         -63.1033  -43.0064  -20.1535 N.pl3   1  UNL1       -0.3034
     17 C         -64.4841  -43.4674  -19.9659 C.3     1  UNL1        0.1123
     18 C         -65.4549  -42.5809  -20.7711 C.3     1  UNL1        0.1122
     19 C         -62.2000  -43.7297  -21.0143 C.ar    1  UNL1        0.0587
     20 C         -62.6467  -44.8733  -21.7007 C.ar    1  UNL1        0.0162
     21 C         -61.8103  -45.5329  -22.6031 C.ar    1  UNL1        0.0127
     22 C         -60.5077  -45.0764  -22.8115 C.ar    1  UNL1        0.0586
     23 CL        -59.4610  -45.9084  -23.9471 Cl      1  UNL1       -0.0822
     24 C         -60.0406  -43.9578  -22.1143 C.ar    1  UNL1        0.0240
     25 C         -60.8790  -43.2809  -21.2191 C.ar    1  UNL1        0.0718
     26 CL        -60.2341  -41.9024  -20.3375 Cl      1  UNL1       -0.0809
     27 C         -63.7213  -42.5535  -28.9327 C.3     1  UNL1        0.1535
     28 C         -62.4299  -43.1417  -29.4593 C.2     1  UNL1        0.2443
     29 O         -61.4123  -43.1288  -28.7143 O.2     1  UNL1       -0.2730
     30 N         -62.3471  -43.7205  -30.7749 N.am    1  UNL1       -0.2825
     31 H         -63.2245  -44.0142  -31.2566 H       1  UNL1        0.1549
     32 C         -61.1116  -43.9721  -31.4648 C.ar    1  UNL1        0.0535
     33 C         -60.0961  -44.6895  -30.8177 C.ar    1  UNL1        0.0353
     34 C         -58.9062  -44.9668  -31.4944 C.ar    1  UNL1        0.1002
     35 N         -58.7418  -44.5575  -32.7800 N.ar    1  UNL1       -0.2422
     36 C         -59.7161  -43.8780  -33.4409 C.ar    1  UNL1        0.1002
     37 C         -60.9213  -43.5792  -32.8004 C.ar    1  UNL1        0.0353
     38 C         -64.9030  -43.5407  -29.0551 C.3     1  UNL1        0.0569
     39 C         -64.4937  -44.9896  -29.0168 C.ar    1  UNL1       -0.0017
     40 C         -64.6962  -45.9368  -30.0173 C.ar    1  UNL1        0.0681
     41 N         -64.1474  -47.1219  -29.6657 N.ar    1  UNL1       -0.3523
     42 C         -63.6074  -46.9354  -28.4490 C.ar    1  UNL1        0.0563
     43 C         -62.9254  -47.8735  -27.6743 C.ar    1  UNL1        0.0170
     44 C         -62.4374  -47.4617  -26.4206 C.ar    1  UNL1        0.0015
     45 C         -62.6483  -46.1400  -25.9702 C.ar    1  UNL1        0.0001
     46 C         -63.3464  -45.2183  -26.7703 C.ar    1  UNL1        0.0012
     47 C         -63.8025  -45.6487  -28.0165 C.ar    1  UNL1        0.0131
     48 H         -64.1426  -48.0002  -30.2303 H       1  UNL1        0.1660
@<TRIPOS>BOND
     1     1     2    2
     2     2     3   am
     3     3    27    1
     4    27    38    1
     5    38    39    1
     6    39    40   ar
     7    40    41   ar
     8    41    42   ar
     9    42    43   ar
    10    43    44   ar
    11    44    45   ar
    12    45    46   ar
    13    46    47   ar
    14    27    28    1
    15    28    29    2
    16    28    30   am
    17    30    32    1
    18    32    33   ar
    19    33    34   ar
    20    34    35   ar
    21    35    36   ar
    22    36    37   ar
    23     2     5    1
    24     5     6   ar
    25     6     7   ar
    26     7     8    1
    27     7     9   ar
    28     9    13    1
    29    13    14    1
    30    14    15    1
    31    15    16    1
    32    16    19    1
    33    19    20   ar
    34    20    21   ar
    35    21    22   ar
    36    22    23    1
    37    22    24   ar
    38    24    25   ar
    39    25    26    1
    40    16    17    1
    41    17    18    1
    42     9    10   ar
    43    10    11   ar
    44    11    12    1
    45    47    39   ar
    46    37    32   ar
    47    11     5   ar
    48    47    42   ar
    49    18    13    1
    50    25    19   ar
    51     3     4    1
    52    41    48    1
    53    30    31    1
@<TRIPOS>MOLECULE
*****
 48 53 0 0 0
SMALL
GASTEIGER

@<TRIPOS>ATOM
      1 O         -65.3958  -40.8466  -27.3965 O.2     1  UNL1       -0.2701
      2 C         -64.2018  -41.2296  -27.2626 C.2     1  UNL1        0.2484
      3 N         -63.4308  -41.6208  -28.4104 N.am    1  UNL1       -0.2945
      4 H         -62.4941  -42.0412  -28.2273 H       1  UNL1        0.1501
      5 C         -63.6252  -41.3699  -25.9108 C.ar    1  UNL1        0.0813
      6 C         -64.3270  -40.8797  -24.7993 C.ar    1  UNL1        0.0147
      7 C         -63.9156  -41.2003  -23.5005 C.ar    1  UNL1        0.0481
      8 BR        -64.9371  -40.5180  -22.0292 Br      1  UNL1       -0.0477
      9 C         -62.7801  -42.0114  -23.3010 C.ar    1  UNL1        0.0565
     10 C         -62.0135  -42.3926  -24.4153 C.ar    1  UNL1        0.0448
     11 C         -62.4342  -42.0852  -25.7082 C.ar    1  UNL1        0.1457
     12 F         -61.6870  -42.5081  -26.7598 F       1  UNL1       -0.2040
     13 N         -62.4702  -42.5455  -21.9967 N.pl3   1  UNL1       -0.3036
     14 C         -61.0868  -42.5574  -21.5031 C.3     1  UNL1        0.1122
     15 C         -60.4632  -43.9556  -21.7010 C.3     1  UNL1        0.1123
     16 N         -61.5074  -44.9551  -21.9795 N.pl3   1  UNL1       -0.3034
     17 C         -62.7402  -44.8764  -21.1867 C.3     1  UNL1        0.1123
     18 C         -63.4053  -43.4980  -21.3729 C.3     1  UNL1        0.1122
     19 C         -61.4753  -45.7045  -23.2114 C.ar    1  UNL1        0.0587
     20 C         -62.6226  -45.7752  -24.0219 C.ar    1  UNL1        0.0162
     21 C         -62.5814  -46.4238  -25.2575 C.ar    1  UNL1        0.0127
     22 C         -61.4023  -47.0346  -25.6878 C.ar    1  UNL1        0.0586
     23 CL        -61.3557  -47.8477  -27.2415 Cl      1  UNL1       -0.0822
     24 C         -60.2620  -46.9972  -24.8793 C.ar    1  UNL1        0.0240
     25 C         -60.2907  -46.3345  -23.6453 C.ar    1  UNL1        0.0718
     26 CL        -58.8427  -46.3473  -22.6471 Cl      1  UNL1       -0.0809
     27 C         -64.0232  -41.8020  -29.7400 C.3     1  UNL1        0.1535
     28 C         -62.9893  -42.2771  -30.7381 C.2     1  UNL1        0.2443
     29 O         -63.2890  -42.2800  -31.9632 O.2     1  UNL1       -0.2730
     30 N         -61.6809  -42.7083  -30.3198 N.am    1  UNL1       -0.2825
     31 H         -61.3265  -42.4188  -29.3823 H       1  UNL1        0.1549
     32 C         -60.7913  -43.4841  -31.1396 C.ar    1  UNL1        0.0535
     33 C         -60.7988  -43.2991  -32.5290 C.ar    1  UNL1        0.0353
     34 C         -59.9131  -44.0253  -33.3283 C.ar    1  UNL1        0.1002
     35 N         -59.0367  -44.8942  -32.7589 N.ar    1  UNL1       -0.2422
     36 C         -58.9914  -45.0801  -31.4131 C.ar    1  UNL1        0.1002
     37 C         -59.8606  -44.3743  -30.5774 C.ar    1  UNL1        0.0353
     38 C         -65.2513  -42.7374  -29.6842 C.3     1  UNL1        0.0569
     39 C         -64.9014  -44.1952  -29.5405 C.ar    1  UNL1       -0.0017
     40 C         -64.3577  -44.8121  -28.4167 C.ar    1  UNL1        0.0681
     41 N         -64.2282  -46.1426  -28.6228 N.ar    1  UNL1       -0.3523
     42 C         -64.6769  -46.3714  -29.8690 C.ar    1  UNL1        0.0563
     43 C         -64.7442  -47.5970  -30.5312 C.ar    1  UNL1        0.0170
     44 C         -65.2534  -47.6092  -31.8428 C.ar    1  UNL1        0.0015
     45 C         -65.6695  -46.4089  -32.4595 C.ar    1  UNL1        0.0001
     46 C         -65.5825  -45.1869  -31.7694 C.ar    1  UNL1        0.0012
     47 C         -65.0913  -45.2072  -30.4637 C.ar    1  UNL1        0.0131
     48 H         -63.8583  -46.8465  -27.9462 H       1  UNL1        0.1660
@<TRIPOS>BOND
     1     1     2    2
     2     2     3   am
     3     3    27    1
     4    27    38    1
     5    38    39    1
     6    39    40   ar
     7    40    41   ar
     8    41    42   ar
     9    42    43   ar
    10    43    44   ar
    11    44    45   ar
    12    45    46   ar
    13    46    47   ar
    14    27    28    1
    15    28    29    2
    16    28    30   am
    17    30    32    1
    18    32    33   ar
    19    33    34   ar
    20    34    35   ar
    21    35    36   ar
    22    36    37   ar
    23     2     5    1
    24     5     6   ar
    25     6     7   ar
    26     7     8    1
    27     7     9   ar
    28     9    13    1
    29    13    14    1
    30    14    15    1
    31    15    16    1
    32    16    19    1
    33    19    20   ar
    34    20    21   ar
    35    21    22   ar
    36    22    23    1
    37    22    24   ar
    38    24    25   ar
    39    25    26    1
    40    16    17    1
    41    17    18    1
    42     9    10   ar
    43    10    11   ar
    44    11    12    1
    45    47    39   ar
    46    37    32   ar
    47    11     5   ar
    48    47    42   ar
    49    18    13    1
    50    25    19   ar
    51     3     4    1
    52    41    48    1
    53    30    31    1
@<TRIPOS>MOLECULE
*****
 48 53 0 0 0
SMALL
GASTEIGER

@<TRIPOS>ATOM
      1 O         -59.5436  -45.5998  -24.0027 O.2     1  UNL1       -0.2701
      2 C         -60.7018  -45.1008  -24.0048 C.2     1  UNL1        0.2484
      3 N         -61.4332  -44.9667  -25.2344 N.am    1  UNL1       -0.2945
      4 H         -62.3320  -44.4393  -25.1923 H       1  UNL1        0.1501
      5 C         -61.2693  -44.5625  -22.7528 C.ar    1  UNL1        0.0813
      6 C         -60.6127  -43.5200  -22.0815 C.ar    1  UNL1        0.0147
      7 C         -61.2416  -42.8443  -21.0293 C.ar    1  UNL1        0.0481
      8 BR        -60.2961  -41.4126  -20.1749 Br      1  UNL1       -0.0477
      9 C         -62.5402  -43.2181  -20.6281 C.ar    1  UNL1        0.0565
     10 C         -63.1375  -44.3424  -21.2227 C.ar    1  UNL1        0.0448
     11 C         -62.5157  -45.0036  -22.2807 C.ar    1  UNL1        0.1457
     12 F         -63.1453  -46.0600  -22.8557 F       1  UNL1       -0.2040
     13 N         -63.2980  -42.3991  -19.7129 N.pl3   1  UNL1       -0.3036
     14 C         -64.6541  -42.7907  -19.3066 C.3     1  UNL1        0.1122
     15 C         -65.7021  -42.0099  -20.1282 C.3     1  UNL1        0.1123
     16 N         -65.0793  -40.8619  -20.8071 N.pl3   1  UNL1       -0.3034
     17 C         -64.1068  -40.0750  -20.0393 C.3     1  UNL1        0.1123
     18 C         -62.9473  -40.9754  -19.5683 C.3     1  UNL1        0.1122
     19 C         -65.1297  -40.7627  -22.2451 C.ar    1  UNL1        0.0587
     20 C         -64.0293  -41.1755  -23.0177 C.ar    1  UNL1        0.0162
     21 C         -64.0960  -41.1664  -24.4121 C.ar    1  UNL1        0.0127
     22 C         -65.2520  -40.7188  -25.0541 C.ar    1  UNL1        0.0586
     23 CL        -65.3310  -40.7099  -26.8065 Cl      1  UNL1       -0.0822
     24 C         -66.3432  -40.2782  -24.2988 C.ar    1  UNL1        0.0240
     25 C         -66.2899  -40.2993  -22.8990 C.ar    1  UNL1        0.0718
     26 CL        -67.6730  -39.6996  -21.9930 Cl      1  UNL1       -0.0809
     27 C         -60.8230  -45.1914  -26.5492 C.3     1  UNL1        0.1535
     28 C         -61.4904  -46.3422  -27.2711 C.2     1  UNL1        0.2443
     29 O         -60.7755  -47.3025  -27.6677 O.2     1  UNL1       -0.2730
     30 N         -62.9118  -46.3658  -27.4988 N.am    1  UNL1       -0.2825
     31 H         -63.5293  -45.7581  -26.9178 H       1  UNL1        0.1549
     32 C         -63.5572  -47.2215  -28.4563 C.ar    1  UNL1        0.0535
     33 C         -63.7116  -48.5842  -28.1671 C.ar    1  UNL1        0.0353
     34 C         -64.3680  -49.4147  -29.0782 C.ar    1  UNL1        0.1002
     35 N         -64.8694  -48.8993  -30.2316 N.ar    1  UNL1       -0.2422
     36 C         -64.7535  -47.5784  -30.5306 C.ar    1  UNL1        0.1002
     37 C         -64.1034  -46.7132  -29.6471 C.ar    1  UNL1        0.0353
     38 C         -60.8188  -43.8983  -27.3941 C.3     1  UNL1        0.0569
     39 C         -60.3360  -44.0947  -28.8071 C.ar    1  UNL1       -0.0017
     40 C         -59.1626  -44.7316  -29.2031 C.ar    1  UNL1        0.0681
     41 N         -59.0795  -44.7754  -30.5523 N.ar    1  UNL1       -0.3523
     42 C         -60.1848  -44.1647  -31.0131 C.ar    1  UNL1        0.0563
     43 C         -60.5472  -43.9657  -32.3451 C.ar    1  UNL1        0.0170
     44 C         -61.7583  -43.2981  -32.6048 C.ar    1  UNL1        0.0015
     45 C         -62.5653  -42.8409  -31.5401 C.ar    1  UNL1        0.0001
     46 C         -62.1699  -43.0494  -30.2069 C.ar    1  UNL1        0.0012
     47 C         -60.9739  -43.7306  -29.9789 C.ar    1  UNL1        0.0131
     48 H         -58.3123  -45.2022  -31.1176 H       1  UNL1        0.1660
@<TRIPOS>BOND
     1     1     2    2
     2     2     3   am
     3     3    27    1
     4    27    38    1
     5    38    39    1
     6    39    40   ar
     7    40    41   ar
     8    41    42   ar
     9    42    43   ar
    10    43    44   ar
    11    44    45   ar
    12    45    46   ar
    13    46    47   ar
    14    27    28    1
    15    28    29    2
    16    28    30   am
    17    30    32    1
    18    32    33   ar
    19    33    34   ar
    20    34    35   ar
    21    35    36   ar
    22    36    37   ar
    23     2     5    1
    24     5     6   ar
    25     6     7   ar
    26     7     8    1
    27     7     9   ar
    28     9    13    1
    29    13    14    1
    30    14    15    1
    31    15    16    1
    32    16    19    1
    33    19    20   ar
    34    20    21   ar
    35    21    22   ar
    36    22    23    1
    37    22    24   ar
    38    24    25   ar
    39    25    26    1
    40    16    17    1
    41    17    18    1
    42     9    10   ar
    43    10    11   ar
    44    11    12    1
    45    47    39   ar
    46    37    32   ar
    47    11     5   ar
    48    47    42   ar
    49    18    13    1
    50    25    19   ar
    51     3     4    1
    52    41    48    1
    53    30    31    1
@<TRIPOS>MOLECULE
*****
 48 53 0 0 0
SMALL
GASTEIGER

@<TRIPOS>ATOM
      1 O         -63.6401  -42.3188  -28.7577 O.2     1  UNL1       -0.2701
      2 C         -63.4554  -43.0189  -27.7252 C.2     1  UNL1        0.2484
      3 N         -63.4770  -44.4534  -27.8062 N.am    1  UNL1       -0.2945
      4 H         -63.4390  -44.9764  -26.9046 H       1  UNL1        0.1501
      5 C         -63.3137  -42.3618  -26.4109 C.ar    1  UNL1        0.0813
      6 C         -64.2998  -41.4670  -25.9689 C.ar    1  UNL1        0.0147
      7 C         -64.3056  -41.0118  -24.6454 C.ar    1  UNL1        0.0481
      8 BR        -65.6981  -39.8116  -24.1032 Br      1  UNL1       -0.0477
      9 C         -63.3075  -41.4424  -23.7478 C.ar    1  UNL1        0.0565
     10 C         -62.2554  -42.2377  -24.2327 C.ar    1  UNL1        0.0448
     11 C         -62.2607  -42.7023  -25.5469 C.ar    1  UNL1        0.1457
     12 F         -61.2470  -43.5030  -25.9644 F       1  UNL1       -0.2040
     13 N         -63.4184  -41.1785  -22.3334 N.pl3   1  UNL1       -0.3036
     14 C         -62.5496  -40.1856  -21.6878 C.3     1  UNL1        0.1122
     15 C         -61.3706  -40.8890  -20.9820 C.3     1  UNL1        0.1123
     16 N         -61.6346  -42.3304  -20.8420 N.pl3   1  UNL1       -0.3034
     17 C         -62.9896  -42.7288  -20.4426 C.3     1  UNL1        0.1123
     18 C         -64.0208  -42.2007  -21.4598 C.3     1  UNL1        0.1122
     19 C         -60.7358  -43.2875  -21.4389 C.ar    1  UNL1        0.0587
     20 C         -59.4764  -42.8724  -21.9080 C.ar    1  UNL1        0.0162
     21 C         -58.5626  -43.8014  -22.4088 C.ar    1  UNL1        0.0127
     22 C         -58.9041  -45.1533  -22.4739 C.ar    1  UNL1        0.0586
     23 CL        -57.7519  -46.3167  -23.1033 Cl      1  UNL1       -0.0822
     24 C         -60.1637  -45.5764  -22.0379 C.ar    1  UNL1        0.0240
     25 C         -61.0802  -44.6525  -21.5193 C.ar    1  UNL1        0.0718
     26 CL        -62.6656  -45.2270  -21.0191 Cl      1  UNL1       -0.0809
     27 C         -63.9140  -45.1739  -29.0068 C.3     1  UNL1        0.1535
     28 C         -63.1850  -44.6774  -30.2368 C.2     1  UNL1        0.2443
     29 O         -63.8087  -44.6337  -31.3322 O.2     1  UNL1       -0.2730
     30 N         -61.8125  -44.2469  -30.1766 N.am    1  UNL1       -0.2825
     31 H         -61.4021  -43.9862  -29.2536 H       1  UNL1        0.1549
     32 C         -60.9657  -44.1012  -31.3286 C.ar    1  UNL1        0.0535
     33 C         -59.6683  -44.6309  -31.3003 C.ar    1  UNL1        0.0353
     34 C         -58.8521  -44.5225  -32.4285 C.ar    1  UNL1        0.1002
     35 N         -59.3209  -43.9214  -33.5538 N.ar    1  UNL1       -0.2422
     36 C         -60.5813  -43.4164  -33.6187 C.ar    1  UNL1        0.1002
     37 C         -61.4300  -43.5030  -32.5123 C.ar    1  UNL1        0.0353
     38 C         -63.7761  -46.7017  -28.8256 C.3     1  UNL1        0.0569
     39 C         -62.7251  -47.1047  -27.8250 C.ar    1  UNL1       -0.0017
     40 C         -61.3840  -46.7297  -27.8323 C.ar    1  UNL1        0.0681
     41 N         -60.7464  -47.2298  -26.7494 N.ar    1  UNL1       -0.3523
     42 C         -61.6695  -47.9243  -26.0620 C.ar    1  UNL1        0.0563
     43 C         -61.4866  -48.6205  -24.8674 C.ar    1  UNL1        0.0170
     44 C         -62.5984  -49.2826  -24.3150 C.ar    1  UNL1        0.0015
     45 C         -63.8506  -49.2430  -24.9664 C.ar    1  UNL1        0.0001
     46 C         -64.0027  -48.5390  -26.1741 C.ar    1  UNL1        0.0012
     47 C         -62.8882  -47.8764  -26.6890 C.ar    1  UNL1        0.0131
     48 H         -59.7414  -47.0969  -26.4994 H       1  UNL1        0.1660
@<TRIPOS>BOND
     1     1     2    2
     2     2     3   am
     3     3    27    1
     4    27    38    1
     5    38    39    1
     6    39    40   ar
     7    40    41   ar
     8    41    42   ar
     9    42    43   ar
    10    43    44   ar
    11    44    45   ar
    12    45    46   ar
    13    46    47   ar
    14    27    28    1
    15    28    29    2
    16    28    30   am
    17    30    32    1
    18    32    33   ar
    19    33    34   ar
    20    34    35   ar
    21    35    36   ar
    22    36    37   ar
    23     2     5    1
    24     5     6   ar
    25     6     7   ar
    26     7     8    1
    27     7     9   ar
    28     9    13    1
    29    13    14    1
    30    14    15    1
    31    15    16    1
    32    16    19    1
    33    19    20   ar
    34    20    21   ar
    35    21    22   ar
    36    22    23    1
    37    22    24   ar
    38    24    25   ar
    39    25    26    1
    40    16    17    1
    41    17    18    1
    42     9    10   ar
    43    10    11   ar
    44    11    12    1
    45    47    39   ar
    46    37    32   ar
    47    11     5   ar
    48    47    42   ar
    49    18    13    1
    50    25    19   ar
    51     3     4    1
    52    41    48    1
    53    30    31    1
@<TRIPOS>MOLECULE
*****
 48 53 0 0 0
SMALL
GASTEIGER

@<TRIPOS>ATOM
      1 O         -59.9148  -46.2549  -25.4539 O.2     1  UNL1       -0.2701
      2 C         -61.0219  -45.6907  -25.2384 C.2     1  UNL1        0.2484
      3 N         -61.9183  -45.4098  -26.3259 N.am    1  UNL1       -0.2945
      4 H         -62.7610  -44.8363  -26.1051 H       1  UNL1        0.1501
      5 C         -61.3554  -45.2287  -23.8766 C.ar    1  UNL1        0.0813
      6 C         -60.5655  -44.2462  -23.2608 C.ar    1  UNL1        0.0147
      7 C         -60.9890  -43.6324  -22.0763 C.ar    1  UNL1        0.0481
      8 BR        -59.8724  -42.2793  -21.3045 Br      1  UNL1       -0.0477
      9 C         -62.2121  -44.0094  -21.4857 C.ar    1  UNL1        0.0565
     10 C         -62.9332  -45.0798  -22.0414 C.ar    1  UNL1        0.0448
     11 C         -62.5172  -45.6785  -23.2295 C.ar    1  UNL1        0.1457
     12 F         -63.2649  -46.6820  -23.7559 F       1  UNL1       -0.2040
     13 N         -62.7815  -43.2411  -20.4049 N.pl3   1  UNL1       -0.3036
     14 C         -64.1151  -43.5634  -19.8803 C.3     1  UNL1        0.1122
     15 C         -65.1687  -42.6094  -20.4827 C.3     1  UNL1        0.1123
     16 N         -64.5185  -41.4464  -21.1084 N.pl3   1  UNL1       -0.3034
     17 C         -63.3958  -40.8361  -20.3863 C.3     1  UNL1        0.1123
     18 C         -62.2825  -41.8774  -20.1560 C.3     1  UNL1        0.1122
     19 C         -64.7191  -41.1789  -22.5114 C.ar    1  UNL1        0.0587
     20 C         -63.7176  -41.5114  -23.4412 C.ar    1  UNL1        0.0162
     21 C         -63.9320  -41.3382  -24.8098 C.ar    1  UNL1        0.0127
     22 C         -65.1383  -40.8046  -25.2667 C.ar    1  UNL1        0.0586
     23 CL        -65.4030  -40.5896  -26.9875 Cl      1  UNL1       -0.0822
     24 C         -66.1319  -40.4425  -24.3518 C.ar    1  UNL1        0.0240
     25 C         -65.9306  -40.6281  -22.9779 C.ar    1  UNL1        0.0718
     26 CL        -67.1943  -40.1221  -21.8642 Cl      1  UNL1       -0.0809
     27 C         -61.5300  -45.5570  -27.7327 C.3     1  UNL1        0.1535
     28 C         -62.7467  -45.6671  -28.6261 C.2     1  UNL1        0.2443
     29 O         -62.9613  -46.7573  -29.2228 O.2     1  UNL1       -0.2730
     30 N         -63.6597  -44.5667  -28.7945 N.am    1  UNL1       -0.2825
     31 H         -63.6685  -43.8012  -28.0859 H       1  UNL1        0.1549
     32 C         -64.6132  -44.4716  -29.8657 C.ar    1  UNL1        0.0535
     33 C         -65.6012  -43.4784  -29.8211 C.ar    1  UNL1        0.0353
     34 C         -66.5099  -43.3589  -30.8750 C.ar    1  UNL1        0.1002
     35 N         -66.4246  -44.1911  -31.9463 N.ar    1  UNL1       -0.2422
     36 C         -65.4650  -45.1503  -32.0278 C.ar    1  UNL1        0.1002
     37 C         -64.5370  -45.3044  -30.9949 C.ar    1  UNL1        0.0353
     38 C         -60.5838  -44.4192  -28.1755 C.3     1  UNL1        0.0569
     39 C         -59.9796  -44.6246  -29.5397 C.ar    1  UNL1       -0.0017
     40 C         -58.8843  -45.4263  -29.8509 C.ar    1  UNL1        0.0681
     41 N         -58.6553  -45.4186  -31.1839 N.ar    1  UNL1       -0.3523
     42 C         -59.5900  -44.6132  -31.7173 C.ar    1  UNL1        0.0563
     43 C         -59.7615  -44.2939  -33.0641 C.ar    1  UNL1        0.0170
     44 C         -60.8138  -43.4246  -33.4053 C.ar    1  UNL1        0.0015
     45 C         -61.6548  -42.8921  -32.4037 C.ar    1  UNL1        0.0001
     46 C         -61.4526  -43.2263  -31.0530 C.ar    1  UNL1        0.0012
     47 C         -60.4135  -44.1051  -30.7456 C.ar    1  UNL1        0.0131
     48 H         -57.9057  -45.9384  -31.6921 H       1  UNL1        0.1660
@<TRIPOS>BOND
     1     1     2    2
     2     2     3   am
     3     3    27    1
     4    27    38    1
     5    38    39    1
     6    39    40   ar
     7    40    41   ar
     8    41    42   ar
     9    42    43   ar
    10    43    44   ar
    11    44    45   ar
    12    45    46   ar
    13    46    47   ar
    14    27    28    1
    15    28    29    2
    16    28    30   am
    17    30    32    1
    18    32    33   ar
    19    33    34   ar
    20    34    35   ar
    21    35    36   ar
    22    36    37   ar
    23     2     5    1
    24     5     6   ar
    25     6     7   ar
    26     7     8    1
    27     7     9   ar
    28     9    13    1
    29    13    14    1
    30    14    15    1
    31    15    16    1
    32    16    19    1
    33    19    20   ar
    34    20    21   ar
    35    21    22   ar
    36    22    23    1
    37    22    24   ar
    38    24    25   ar
    39    25    26    1
    40    16    17    1
    41    17    18    1
    42     9    10   ar
    43    10    11   ar
    44    11    12    1
    45    47    39   ar
    46    37    32   ar
    47    11     5   ar
    48    47    42   ar
    49    18    13    1
    50    25    19   ar
    51     3     4    1
    52    41    48    1
    53    30    31    1
@<TRIPOS>MOLECULE
*****
 48 53 0 0 0
SMALL
GASTEIGER

@<TRIPOS>ATOM
      1 O         -59.0618  -44.1622  -22.6826 O.2     1  UNL1       -0.2701
      2 C         -60.2996  -44.1618  -22.9236 C.2     1  UNL1        0.2484
      3 N         -60.9377  -45.3363  -23.4513 N.am    1  UNL1       -0.2945
      4 H         -61.9343  -45.2397  -23.7430 H       1  UNL1        0.1501
      5 C         -61.0780  -42.9188  -22.7550 C.ar    1  UNL1        0.0813
      6 C         -62.0280  -42.5548  -23.7212 C.ar    1  UNL1        0.0147
      7 C         -62.9307  -41.5141  -23.4742 C.ar    1  UNL1        0.0481
      8 BR        -64.2190  -41.0882  -24.8280 Br      1  UNL1       -0.0477
      9 C         -62.8816  -40.8140  -22.2517 C.ar    1  UNL1        0.0565
     10 C         -61.8482  -41.1030  -21.3445 C.ar    1  UNL1        0.0448
     11 C         -60.9604  -42.1502  -21.5861 C.ar    1  UNL1        0.1457
     12 F         -60.0018  -42.4240  -20.6647 F       1  UNL1       -0.2040
     13 N         -63.9356  -39.9024  -21.8765 N.pl3   1  UNL1       -0.3036
     14 C         -63.8275  -39.0979  -20.6522 C.3     1  UNL1        0.1122
     15 C         -64.6354  -39.7534  -19.5118 C.3     1  UNL1        0.1123
     16 N         -65.5582  -40.7682  -20.0460 N.pl3   1  UNL1       -0.3034
     17 C         -66.2851  -40.4330  -21.2763 C.3     1  UNL1        0.1123
     18 C         -65.2914  -40.1167  -22.4118 C.3     1  UNL1        0.1122
     19 C         -65.4521  -42.1384  -19.6082 C.ar    1  UNL1        0.0587
     20 C         -65.0806  -43.1418  -20.5210 C.ar    1  UNL1        0.0162
     21 C         -64.8900  -44.4570  -20.0933 C.ar    1  UNL1        0.0127
     22 C         -65.0948  -44.7936  -18.7541 C.ar    1  UNL1        0.0586
     23 CL        -64.8533  -46.4475  -18.2217 Cl      1  UNL1       -0.0822
     24 C         -65.4925  -43.8119  -17.8411 C.ar    1  UNL1        0.0240
     25 C         -65.6703  -42.4868  -18.2593 C.ar    1  UNL1        0.0718
     26 CL        -66.2080  -41.2957  -17.0822 Cl      1  UNL1       -0.0809
     27 C         -60.1852  -46.5002  -23.9316 C.3     1  UNL1        0.1535
     28 C         -60.6563  -47.7708  -23.2575 C.2     1  UNL1        0.2443
     29 O         -60.7055  -47.8038  -21.9977 O.2     1  UNL1       -0.2730
     30 N         -61.0569  -48.9243  -24.0203 N.am    1  UNL1       -0.2825
     31 H         -61.3155  -48.8047  -25.0238 H       1  UNL1        0.1549
     32 C         -61.1754  -50.2475  -23.4720 C.ar    1  UNL1        0.0535
     33 C         -62.4477  -50.8103  -23.3014 C.ar    1  UNL1        0.0353
     34 C         -62.5683  -52.1086  -22.8009 C.ar    1  UNL1        0.1002
     35 N         -61.4560  -52.8283  -22.4974 N.ar    1  UNL1       -0.2422
     36 C         -60.2083  -52.3175  -22.6713 C.ar    1  UNL1        0.1002
     37 C         -60.0431  -51.0224  -23.1686 C.ar    1  UNL1        0.0353
     38 C         -60.2368  -46.6049  -25.4719 C.3     1  UNL1        0.0569
     39 C         -61.4118  -45.8959  -26.0923 C.ar    1  UNL1       -0.0017
     40 C         -62.7073  -46.3901  -26.2202 C.ar    1  UNL1        0.0681
     41 N         -63.5170  -45.4590  -26.7740 N.ar    1  UNL1       -0.3523
     42 C         -62.7440  -44.3840  -27.0051 C.ar    1  UNL1        0.0563
     43 C         -63.1337  -43.1678  -27.5659 C.ar    1  UNL1        0.0170
     44 C         -62.1542  -42.1691  -27.7171 C.ar    1  UNL1        0.0015
     45 C         -60.8209  -42.4091  -27.3187 C.ar    1  UNL1        0.0001
     46 C         -60.4561  -43.6483  -26.7633 C.ar    1  UNL1        0.0012
     47 C         -61.4517  -44.6132  -26.6079 C.ar    1  UNL1        0.0131
     48 H         -64.5368  -45.5580  -26.9752 H       1  UNL1        0.1660
@<TRIPOS>BOND
     1     1     2    2
     2     2     3   am
     3     3    27    1
     4    27    38    1
     5    38    39    1
     6    39    40   ar
     7    40    41   ar
     8    41    42   ar
     9    42    43   ar
    10    43    44   ar
    11    44    45   ar
    12    45    46   ar
    13    46    47   ar
    14    27    28    1
    15    28    29    2
    16    28    30   am
    17    30    32    1
    18    32    33   ar
    19    33    34   ar
    20    34    35   ar
    21    35    36   ar
    22    36    37   ar
    23     2     5    1
    24     5     6   ar
    25     6     7   ar
    26     7     8    1
    27     7     9   ar
    28     9    13    1
    29    13    14    1
    30    14    15    1
    31    15    16    1
    32    16    19    1
    33    19    20   ar
    34    20    21   ar
    35    21    22   ar
    36    22    23    1
    37    22    24   ar
    38    24    25   ar
    39    25    26    1
    40    16    17    1
    41    17    18    1
    42     9    10   ar
    43    10    11   ar
    44    11    12    1
    45    47    39   ar
    46    37    32   ar
    47    11     5   ar
    48    47    42   ar
    49    18    13    1
    50    25    19   ar
    51     3     4    1
    52    41    48    1
    53    30    31    1
@<TRIPOS>MOLECULE
*****
 48 53 0 0 0
SMALL
GASTEIGER

@<TRIPOS>ATOM
      1 O         -62.7672  -40.8329  -27.8182 O.2     1  UNL1       -0.2701
      2 C         -62.9981  -42.0449  -27.5574 C.2     1  UNL1        0.2484
      3 N         -63.4940  -42.9263  -28.5782 N.am    1  UNL1       -0.2945
      4 H         -63.7798  -43.8828  -28.2761 H       1  UNL1        0.1501
      5 C         -62.8513  -42.5367  -26.1733 C.ar    1  UNL1        0.0813
      6 C         -62.1315  -43.7152  -25.9249 C.ar    1  UNL1        0.0147
      7 C         -61.7862  -44.0754  -24.6173 C.ar    1  UNL1        0.0481
      8 BR        -60.7791  -45.6848  -24.3539 Br      1  UNL1       -0.0477
      9 C         -62.1729  -43.2581  -23.5358 C.ar    1  UNL1        0.0565
     10 C         -62.9989  -42.1489  -23.7842 C.ar    1  UNL1        0.0448
     11 C         -63.3282  -41.7837  -25.0886 C.ar    1  UNL1        0.1457
     12 F         -64.0941  -40.6807  -25.2882 F       1  UNL1       -0.2040
     13 N         -61.6387  -43.4767  -22.2131 N.pl3   1  UNL1       -0.3036
     14 C         -62.1075  -44.6025  -21.3943 C.3     1  UNL1        0.1122
     15 C         -63.1590  -44.1167  -20.3738 C.3     1  UNL1        0.1123
     16 N         -63.1310  -42.6494  -20.2582 N.pl3   1  UNL1       -0.3034
     17 C         -61.8133  -42.0040  -20.2225 C.3     1  UNL1        0.1123
     18 C         -61.0173  -42.3491  -21.4969 C.3     1  UNL1        0.1122
     19 C         -64.3147  -41.8818  -20.5579 C.ar    1  UNL1        0.0587
     20 C         -64.2362  -40.7777  -21.4258 C.ar    1  UNL1        0.0162
     21 C         -65.3874  -40.0785  -21.7928 C.ar    1  UNL1        0.0127
     22 C         -66.6286  -40.4546  -21.2766 C.ar    1  UNL1        0.0586
     23 CL        -68.0722  -39.5730  -21.7415 Cl      1  UNL1       -0.0822
     24 C         -66.7178  -41.5323  -20.3900 C.ar    1  UNL1        0.0240
     25 C         -65.5694  -42.2490  -20.0293 C.ar    1  UNL1        0.0718
     26 CL        -65.7268  -43.5725  -18.8817 Cl      1  UNL1       -0.0809
     27 C         -63.9542  -42.4468  -29.8858 C.3     1  UNL1        0.1535
     28 C         -62.8961  -42.6571  -30.9475 C.2     1  UNL1        0.2443
     29 O         -63.1793  -42.3823  -32.1454 O.2     1  UNL1       -0.2730
     30 N         -61.5835  -43.1472  -30.6162 N.am    1  UNL1       -0.2825
     31 H         -61.2485  -43.0756  -29.6309 H       1  UNL1        0.1549
     32 C         -60.6649  -43.6942  -31.5767 C.ar    1  UNL1        0.0535
     33 C         -60.8383  -43.4044  -32.9371 C.ar    1  UNL1        0.0353
     34 C         -59.9296  -43.9049  -33.8722 C.ar    1  UNL1        0.1002
     35 N         -58.8729  -44.6549  -33.4620 N.ar    1  UNL1       -0.2422
     36 C         -58.6666  -44.9357  -32.1482 C.ar    1  UNL1        0.1002
     37 C         -59.5522  -44.4553  -31.1803 C.ar    1  UNL1        0.0353
     38 C         -65.3047  -43.0877  -30.2750 C.3     1  UNL1        0.0569
     39 C         -65.2090  -44.5512  -30.6173 C.ar    1  UNL1       -0.0017
     40 C         -65.5515  -45.1450  -31.8295 C.ar    1  UNL1        0.0681
     41 N         -65.2811  -46.4699  -31.8011 N.ar    1  UNL1       -0.3523
     42 C         -64.7788  -46.7209  -30.5798 C.ar    1  UNL1        0.0563
     43 C         -64.3492  -47.9497  -30.0790 C.ar    1  UNL1        0.0170
     44 C         -63.8528  -47.9866  -28.7630 C.ar    1  UNL1        0.0015
     45 C         -63.8070  -46.8105  -27.9828 C.ar    1  UNL1        0.0001
     46 C         -64.2545  -45.5873  -28.5123 C.ar    1  UNL1        0.0012
     47 C         -64.7240  -45.5766  -29.8261 C.ar    1  UNL1        0.0131
     48 H         -65.4298  -47.1546  -32.5752 H       1  UNL1        0.1660
@<TRIPOS>BOND
     1     1     2    2
     2     2     3   am
     3     3    27    1
     4    27    38    1
     5    38    39    1
     6    39    40   ar
     7    40    41   ar
     8    41    42   ar
     9    42    43   ar
    10    43    44   ar
    11    44    45   ar
    12    45    46   ar
    13    46    47   ar
    14    27    28    1
    15    28    29    2
    16    28    30   am
    17    30    32    1
    18    32    33   ar
    19    33    34   ar
    20    34    35   ar
    21    35    36   ar
    22    36    37   ar
    23     2     5    1
    24     5     6   ar
    25     6     7   ar
    26     7     8    1
    27     7     9   ar
    28     9    13    1
    29    13    14    1
    30    14    15    1
    31    15    16    1
    32    16    19    1
    33    19    20   ar
    34    20    21   ar
    35    21    22   ar
    36    22    23    1
    37    22    24   ar
    38    24    25   ar
    39    25    26    1
    40    16    17    1
    41    17    18    1
    42     9    10   ar
    43    10    11   ar
    44    11    12    1
    45    47    39   ar
    46    37    32   ar
    47    11     5   ar
    48    47    42   ar
    49    18    13    1
    50    25    19   ar
    51     3     4    1
    52    41    48    1
    53    30    31    1
@<TRIPOS>MOLECULE
*****
 48 53 0 0 0
SMALL
GASTEIGER

@<TRIPOS>ATOM
      1 O         -60.2134  -45.2821  -23.9168 O.2     1  UNL1       -0.2701
      2 C         -61.4070  -44.9999  -24.2101 C.2     1  UNL1        0.2484
      3 N         -62.1905  -45.8989  -25.0120 N.am    1  UNL1       -0.2945
      4 H         -63.1264  -45.5589  -25.3222 H       1  UNL1        0.1501
      5 C         -61.9703  -43.6953  -23.8101 C.ar    1  UNL1        0.0813
      6 C         -62.6240  -42.8972  -24.7610 C.ar    1  UNL1        0.0147
      7 C         -63.3590  -41.7746  -24.3628 C.ar    1  UNL1        0.0481
      8 BR        -64.2486  -40.7452  -25.7129 Br      1  UNL1       -0.0477
      9 C         -63.4362  -41.4307  -22.9980 C.ar    1  UNL1        0.0565
     10 C         -62.6768  -42.1623  -22.0693 C.ar    1  UNL1        0.0448
     11 C         -61.9585  -43.2890  -22.4663 C.ar    1  UNL1        0.1457
     12 F         -61.2714  -43.9930  -21.5307 F       1  UNL1       -0.2040
     13 N         -64.3656  -40.4273  -22.5376 N.pl3   1  UNL1       -0.3036
     14 C         -64.0019  -39.5172  -21.4435 C.3     1  UNL1        0.1122
     15 C         -64.6116  -40.0122  -20.1146 C.3     1  UNL1        0.1123
     16 N         -65.6569  -41.0178  -20.3657 N.pl3   1  UNL1       -0.3034
     17 C         -66.5838  -40.7598  -21.4741 C.3     1  UNL1        0.1123
     18 C         -65.8043  -40.6122  -22.7960 C.3     1  UNL1        0.1122
     19 C         -65.5269  -42.3436  -19.8129 C.ar    1  UNL1        0.0587
     20 C         -65.3826  -43.4511  -20.6678 C.ar    1  UNL1        0.0162
     21 C         -65.1695  -44.7286  -20.1467 C.ar    1  UNL1        0.0127
     22 C         -65.1254  -44.9220  -18.7649 C.ar    1  UNL1        0.0586
     23 CL        -64.8566  -46.5291  -18.1152 Cl      1  UNL1       -0.0822
     24 C         -65.2963  -43.8344  -17.9026 C.ar    1  UNL1        0.0240
     25 C         -65.4946  -42.5469  -18.4179 C.ar    1  UNL1        0.0718
     26 CL        -65.7425  -41.2173  -17.2936 Cl      1  UNL1       -0.0809
     27 C         -61.6119  -47.0581  -25.6997 C.3     1  UNL1        0.1535
     28 C         -61.9691  -48.3471  -24.9914 C.2     1  UNL1        0.2443
     29 O         -63.1257  -48.4677  -24.5033 O.2     1  UNL1       -0.2730
     30 N         -61.0274  -49.4302  -24.8780 N.am    1  UNL1       -0.2825
     31 H         -60.2130  -49.4654  -25.5289 H       1  UNL1        0.1549
     32 C         -61.1602  -50.5148  -23.9442 C.ar    1  UNL1        0.0535
     33 C         -62.4390  -50.9748  -23.6013 C.ar    1  UNL1        0.0353
     34 C         -62.5740  -52.0504  -22.7207 C.ar    1  UNL1        0.1002
     35 N         -61.4696  -52.6585  -22.2129 N.ar    1  UNL1       -0.2422
     36 C         -60.2163  -52.2485  -22.5426 C.ar    1  UNL1        0.1002
     37 C         -60.0366  -51.1756  -23.4193 C.ar    1  UNL1        0.0353
     38 C         -62.0128  -47.0832  -27.1913 C.3     1  UNL1        0.0569
     39 C         -61.0502  -46.3569  -28.0937 C.ar    1  UNL1       -0.0017
     40 C         -59.6602  -46.4336  -28.0592 C.ar    1  UNL1        0.0681
     41 N         -59.1202  -45.6929  -29.0537 N.ar    1  UNL1       -0.3523
     42 C         -60.1550  -45.1420  -29.7112 C.ar    1  UNL1        0.0563
     43 C         -60.0985  -44.2963  -30.8189 C.ar    1  UNL1        0.0170
     44 C         -61.3138  -43.8321  -31.3549 C.ar    1  UNL1        0.0015
     45 C         -62.5432  -44.2107  -30.7724 C.ar    1  UNL1        0.0001
     46 C         -62.5682  -45.0586  -29.6511 C.ar    1  UNL1        0.0012
     47 C         -61.3492  -45.5187  -29.1523 C.ar    1  UNL1        0.0131
     48 H         -58.1044  -45.5787  -29.2667 H       1  UNL1        0.1660
@<TRIPOS>BOND
     1     1     2    2
     2     2     3   am
     3     3    27    1
     4    27    38    1
     5    38    39    1
     6    39    40   ar
     7    40    41   ar
     8    41    42   ar
     9    42    43   ar
    10    43    44   ar
    11    44    45   ar
    12    45    46   ar
    13    46    47   ar
    14    27    28    1
    15    28    29    2
    16    28    30   am
    17    30    32    1
    18    32    33   ar
    19    33    34   ar
    20    34    35   ar
    21    35    36   ar
    22    36    37   ar
    23     2     5    1
    24     5     6   ar
    25     6     7   ar
    26     7     8    1
    27     7     9   ar
    28     9    13    1
    29    13    14    1
    30    14    15    1
    31    15    16    1
    32    16    19    1
    33    19    20   ar
    34    20    21   ar
    35    21    22   ar
    36    22    23    1
    37    22    24   ar
    38    24    25   ar
    39    25    26    1
    40    16    17    1
    41    17    18    1
    42     9    10   ar
    43    10    11   ar
    44    11    12    1
    45    47    39   ar
    46    37    32   ar
    47    11     5   ar
    48    47    42   ar
    49    18    13    1
    50    25    19   ar
    51     3     4    1
    52    41    48    1
    53    30    31    1
@<TRIPOS>MOLECULE
*****
 48 53 0 0 0
SMALL
GASTEIGER

@<TRIPOS>ATOM
      1 O         -62.2848  -42.8374  -28.0225 O.2     1  UNL1       -0.2701
      2 C         -63.2156  -42.1203  -27.5647 C.2     1  UNL1        0.2484
      3 N         -64.2279  -41.5972  -28.4403 N.am    1  UNL1       -0.2945
      4 H         -64.9005  -40.9151  -28.0277 H       1  UNL1        0.1501
      5 C         -63.2105  -41.7361  -26.1393 C.ar    1  UNL1        0.0813
      6 C         -64.2985  -41.0305  -25.6036 C.ar    1  UNL1        0.0147
      7 C         -64.4218  -40.8568  -24.2203 C.ar    1  UNL1        0.0481
      8 BR        -65.9476  -39.9055  -23.5564 Br      1  UNL1       -0.0477
      9 C         -63.4414  -41.3817  -23.3540 C.ar    1  UNL1        0.0565
     10 C         -62.2946  -41.9762  -23.9070 C.ar    1  UNL1        0.0448
     11 C         -62.1819  -42.1619  -25.2839 C.ar    1  UNL1        0.1457
     12 F         -61.0767  -42.7785  -25.7750 F       1  UNL1       -0.2040
     13 N         -63.6570  -41.4214  -21.9276 N.pl3   1  UNL1       -0.3036
     14 C         -62.9467  -40.4932  -21.0381 C.3     1  UNL1        0.1122
     15 C         -61.7316  -41.1963  -20.3960 C.3     1  UNL1        0.1123
     16 N         -61.8306  -42.6559  -20.5589 N.pl3   1  UNL1       -0.3034
     17 C         -63.1483  -43.2669  -20.3474 C.3     1  UNL1        0.1123
     18 C         -64.1797  -42.6562  -21.3170 C.3     1  UNL1        0.1122
     19 C         -60.7949  -43.3731  -21.2613 C.ar    1  UNL1        0.0587
     20 C         -59.6082  -42.7138  -21.6290 C.ar    1  UNL1        0.0162
     21 C         -58.5625  -43.4154  -22.2318 C.ar    1  UNL1        0.0127
     22 C         -58.6983  -44.7784  -22.5009 C.ar    1  UNL1        0.0586
     23 CL        -57.3811  -45.6555  -23.2578 Cl      1  UNL1       -0.0822
     24 C         -59.8839  -45.4406  -22.1670 C.ar    1  UNL1        0.0240
     25 C         -60.9316  -44.7471  -21.5474 C.ar    1  UNL1        0.0718
     26 CL        -62.4172  -45.6145  -21.1814 Cl      1  UNL1       -0.0809
     27 C         -64.1316  -41.6772  -29.9017 C.3     1  UNL1        0.1535
     28 C         -62.7399  -42.0844  -30.3355 C.2     1  UNL1        0.2443
     29 O         -61.8470  -41.1969  -30.4117 O.2     1  UNL1       -0.2730
     30 N         -62.4180  -43.4528  -30.6463 N.am    1  UNL1       -0.2825
     31 H         -63.0379  -44.2134  -30.2921 H       1  UNL1        0.1549
     32 C         -61.2518  -43.8555  -31.3836 C.ar    1  UNL1        0.0535
     33 C         -61.1378  -43.5049  -32.7359 C.ar    1  UNL1        0.0353
     34 C         -59.9918  -43.8637  -33.4492 C.ar    1  UNL1        0.1002
     35 N         -58.9853  -44.5345  -32.8294 N.ar    1  UNL1       -0.2422
     36 C         -59.0577  -44.8704  -31.5143 C.ar    1  UNL1        0.1002
     37 C         -60.1867  -44.5314  -30.7644 C.ar    1  UNL1        0.0353
     38 C         -65.2186  -42.6066  -30.4855 C.3     1  UNL1        0.0569
     39 C         -65.0491  -44.0549  -30.1087 C.ar    1  UNL1       -0.0017
     40 C         -64.7546  -44.5550  -28.8429 C.ar    1  UNL1        0.0681
     41 N         -64.7338  -45.9072  -28.8608 N.ar    1  UNL1       -0.3523
     42 C         -65.0040  -46.2666  -30.1276 C.ar    1  UNL1        0.0563
     43 C         -65.0944  -47.5616  -30.6375 C.ar    1  UNL1        0.0170
     44 C         -65.3913  -47.7111  -32.0047 C.ar    1  UNL1        0.0015
     45 C         -65.5788  -46.5764  -32.8240 C.ar    1  UNL1        0.0001
     46 C         -65.4737  -45.2828  -32.2830 C.ar    1  UNL1        0.0012
     47 C         -65.1970  -45.1647  -30.9207 C.ar    1  UNL1        0.0131
     48 H         -64.5493  -46.5400  -28.0511 H       1  UNL1        0.1660
@<TRIPOS>BOND
     1     1     2    2
     2     2     3   am
     3     3    27    1
     4    27    38    1
     5    38    39    1
     6    39    40   ar
     7    40    41   ar
     8    41    42   ar
     9    42    43   ar
    10    43    44   ar
    11    44    45   ar
    12    45    46   ar
    13    46    47   ar
    14    27    28    1
    15    28    29    2
    16    28    30   am
    17    30    32    1
    18    32    33   ar
    19    33    34   ar
    20    34    35   ar
    21    35    36   ar
    22    36    37   ar
    23     2     5    1
    24     5     6   ar
    25     6     7   ar
    26     7     8    1
    27     7     9   ar
    28     9    13    1
    29    13    14    1
    30    14    15    1
    31    15    16    1
    32    16    19    1
    33    19    20   ar
    34    20    21   ar
    35    21    22   ar
    36    22    23    1
    37    22    24   ar
    38    24    25   ar
    39    25    26    1
    40    16    17    1
    41    17    18    1
    42     9    10   ar
    43    10    11   ar
    44    11    12    1
    45    47    39   ar
    46    37    32   ar
    47    11     5   ar
    48    47    42   ar
    49    18    13    1
    50    25    19   ar
    51     3     4    1
    52    41    48    1
    53    30    31    1
