@<TRIPOS>MOLECULE
*****
 36 41 0 0 0
SMALL
GASTEIGER

@<TRIPOS>ATOM
      1 C         -24.8105   -7.0533  -14.4579 C.ar    1  UNL1        0.1095
      2 N         -25.3670   -6.0023  -15.1115 N.ar    1  UNL1       -0.1677
      3 N         -26.5946   -5.8260  -14.6357 N.ar    1  UNL1       -0.2319
      4 C         -27.4823   -4.7423  -15.0352 C.3     1  UNL1        0.1554
      5 C         -26.8130   -6.7365  -13.6739 C.ar    1  UNL1        0.1654
      6 N         -27.9166   -6.8603  -12.8976 N.ar    1  UNL1       -0.2050
      7 C         -27.9372   -7.8566  -11.9627 C.ar    1  UNL1        0.2014
      8 N         -26.8789   -8.7195  -11.8417 N.ar    1  UNL1       -0.2089
      9 C         -25.7656   -8.6011  -12.6251 C.ar    1  UNL1        0.1379
     10 C         -25.7308   -7.5488  -13.5427 C.ar    1  UNL1        0.0865
     11 C         -22.7501   -7.7410  -15.8188 C.ar    1  UNL1        0.0809
     12 C         -23.4095   -7.4597  -14.6359 C.ar    1  UNL1        0.0577
     13 C         -22.4545   -7.6010  -13.6477 C.ar    1  UNL1        0.1231
     14 N         -21.2861   -7.9702  -14.2077 N.ar    1  UNL1       -0.1676
     15 N         -21.4721   -8.0635  -15.5159 N.ar    1  UNL1       -0.2488
     16 C         -20.4231   -8.4823  -16.4395 C.3     1  UNL1        0.1537
     17 C         -25.1518   -7.9600  -21.0853 C.3     1  UNL1        0.0310
     18 C         -24.4999   -7.8951  -19.7361 C.ar    1  UNL1       -0.0218
     19 C         -23.9733   -9.0551  -19.1493 C.ar    1  UNL1       -0.0042
     20 C         -23.3994   -9.0025  -17.8760 C.ar    1  UNL1        0.0012
     21 C         -23.3535   -7.7910  -17.1679 C.ar    1  UNL1        0.0174
     22 C         -23.9011   -6.6362  -17.7466 C.ar    1  UNL1        0.0012
     23 C         -24.4751   -6.6889  -19.0201 C.ar    1  UNL1       -0.0042
     24 N         -24.7364   -9.5923  -12.5621 N.pl3   1  UNL1       -0.2917
     25 C         -23.6595   -9.5544  -11.5984 C.3     1  UNL1        0.0937
     26 C         -22.7551  -10.7119  -11.9869 C.3     1  UNL1        0.0391
     27 C         -23.6470  -11.7127  -12.7495 C.3     1  UNL1        0.0790
     28 C         -24.8057  -10.8510  -13.2827 C.3     1  UNL1        0.1081
     29 N         -22.9167  -12.4110  -13.8435 N.3     1  UNL1       -0.2723
     30 C         -23.7396  -13.4837  -14.4486 C.3     1  UNL1        0.0730
     31 C         -22.8819  -14.3669  -15.3753 C.3     1  UNL1        0.0279
     32 C         -21.6662  -13.6104  -15.9399 C.3     1  UNL1        0.0466
     33 S         -21.0755  -14.3966  -17.4755 S.3     1  UNL1       -0.1688
     34 C         -22.0259  -12.1466  -16.2000 C.3     1  UNL1        0.0279
     35 C         -22.4982  -11.4508  -14.9031 C.3     1  UNL1        0.0730
     36 H         -20.7068  -15.5844  -16.8149 H       1  UNL1        0.1023
@<TRIPOS>BOND
     1    17    18    1
     2    18    19   ar
     3    19    20   ar
     4    20    21   ar
     5    21    11    1
     6    11    12   ar
     7    12     1    1
     8     1     2   ar
     9     2     3   ar
    10     3     4    1
    11     3     5   ar
    12     5     6   ar
    13     6     7   ar
    14     7     8   ar
    15     8     9   ar
    16     9    24    1
    17    24    25    1
    18    25    26    1
    19    26    27    1
    20    27    29    1
    21    29    30    1
    22    30    31    1
    23    31    32    1
    24    32    33    1
    25    32    34    1
    26    34    35    1
    27    27    28    1
    28     9    10   ar
    29    12    13   ar
    30    13    14   ar
    31    14    15   ar
    32    15    16    1
    33    21    22   ar
    34    22    23   ar
    35    23    18   ar
    36    15    11   ar
    37    10     1   ar
    38    10     5   ar
    39    28    24    1
    40    35    29    1
    41    33    36    1
@<TRIPOS>MOLECULE
*****
 36 41 0 0 0
SMALL
GASTEIGER

@<TRIPOS>ATOM
      1 C         -23.9449   -7.2578  -14.6680 C.ar    1  UNL1        0.1095
      2 N         -24.6012   -7.0342  -15.8345 N.ar    1  UNL1       -0.1677
      3 N         -23.7458   -7.2314  -16.8315 N.ar    1  UNL1       -0.2319
      4 C         -24.0997   -7.1626  -18.2429 C.3     1  UNL1        0.1554
      5 C         -22.5641   -7.5993  -16.3118 C.ar    1  UNL1        0.1654
      6 N         -21.4443   -7.9502  -16.9890 N.ar    1  UNL1       -0.2050
      7 C         -20.3396   -8.3034  -16.2667 C.ar    1  UNL1        0.2014
      8 N         -20.3647   -8.2720  -14.8964 N.ar    1  UNL1       -0.2089
      9 C         -21.4903   -7.9149  -14.2091 C.ar    1  UNL1        0.1379
     10 C         -22.6305   -7.6050  -14.9539 C.ar    1  UNL1        0.0865
     11 C         -25.0380   -8.3440  -12.6197 C.ar    1  UNL1        0.0809
     12 C         -24.6109   -7.2551  -13.3580 C.ar    1  UNL1        0.0577
     13 C         -24.9058   -6.1528  -12.5793 C.ar    1  UNL1        0.1231
     14 N         -25.5004   -6.5588  -11.4405 N.ar    1  UNL1       -0.1676
     15 N         -25.5873   -7.8802  -11.4743 N.ar    1  UNL1       -0.2488
     16 C         -26.2167   -8.6621  -10.4154 C.3     1  UNL1        0.1537
     17 C         -24.9412  -13.8993  -14.2575 C.3     1  UNL1        0.0310
     18 C         -24.9378  -12.4553  -13.8519 C.ar    1  UNL1       -0.0218
     19 C         -24.3183  -12.0583  -12.6578 C.ar    1  UNL1       -0.0042
     20 C         -24.3473  -10.7187  -12.2604 C.ar    1  UNL1        0.0012
     21 C         -25.0052   -9.7594  -13.0467 C.ar    1  UNL1        0.0174
     22 C         -25.6442  -10.1618  -14.2292 C.ar    1  UNL1        0.0012
     23 C         -25.6151  -11.5018  -14.6265 C.ar    1  UNL1       -0.0042
     24 N         -21.4456   -7.7689  -12.7870 N.pl3   1  UNL1       -0.2917
     25 C         -21.6708   -6.5097  -12.1135 C.3     1  UNL1        0.0937
     26 C         -21.3990   -6.8036  -10.6478 C.3     1  UNL1        0.0391
     27 C         -21.6283   -8.3180  -10.4669 C.3     1  UNL1        0.0790
     28 C         -21.4187   -8.8997  -11.8765 C.3     1  UNL1        0.1081
     29 N         -20.7036   -8.9208   -9.4672 N.3     1  UNL1       -0.2723
     30 C         -19.3966   -9.2648  -10.0734 C.3     1  UNL1        0.0730
     31 C         -18.5629  -10.1301   -9.1086 C.3     1  UNL1        0.0279
     32 C         -18.9419   -9.8910   -7.6361 C.3     1  UNL1        0.0466
     33 S         -17.5732  -10.3744   -6.5327 S.3     1  UNL1       -0.1688
     34 C         -19.3068   -8.4223   -7.4137 C.3     1  UNL1        0.0279
     35 C         -20.4882   -7.9995   -8.3163 C.3     1  UNL1        0.0730
     36 H         -17.6613  -11.7326   -6.8940 H       1  UNL1        0.1023
@<TRIPOS>BOND
     1    17    18    1
     2    18    19   ar
     3    19    20   ar
     4    20    21   ar
     5    21    11    1
     6    11    12   ar
     7    12     1    1
     8     1     2   ar
     9     2     3   ar
    10     3     4    1
    11     3     5   ar
    12     5     6   ar
    13     6     7   ar
    14     7     8   ar
    15     8     9   ar
    16     9    24    1
    17    24    25    1
    18    25    26    1
    19    26    27    1
    20    27    29    1
    21    29    30    1
    22    30    31    1
    23    31    32    1
    24    32    33    1
    25    32    34    1
    26    34    35    1
    27    27    28    1
    28     9    10   ar
    29    12    13   ar
    30    13    14   ar
    31    14    15   ar
    32    15    16    1
    33    21    22   ar
    34    22    23   ar
    35    23    18   ar
    36    15    11   ar
    37    10     1   ar
    38    10     5   ar
    39    28    24    1
    40    35    29    1
    41    33    36    1
@<TRIPOS>MOLECULE
*****
 36 41 0 0 0
SMALL
GASTEIGER

@<TRIPOS>ATOM
      1 C         -21.8508   -9.6804  -12.7356 C.ar    1  UNL1        0.1095
      2 N         -20.9092  -10.6480  -12.5987 N.ar    1  UNL1       -0.1677
      3 N         -21.0214  -11.1607  -11.3784 N.ar    1  UNL1       -0.2319
      4 C         -20.2324  -12.2802  -10.8824 C.3     1  UNL1        0.1554
      5 C         -22.0363  -10.5464  -10.7505 C.ar    1  UNL1        0.1654
      6 N         -22.5171  -10.8149   -9.5125 N.ar    1  UNL1       -0.2050
      7 C         -23.5710  -10.0742   -9.0568 C.ar    1  UNL1        0.2014
      8 N         -24.1007   -9.0707   -9.8261 N.ar    1  UNL1       -0.2089
      9 C         -23.6166   -8.7936  -11.0734 C.ar    1  UNL1        0.1379
     10 C         -22.5732   -9.5889  -11.5525 C.ar    1  UNL1        0.0865
     11 C         -22.8084   -9.4399  -15.1011 C.ar    1  UNL1        0.0809
     12 C         -22.1052   -8.9801  -14.0023 C.ar    1  UNL1        0.0577
     13 C         -21.7230   -7.6938  -14.3306 C.ar    1  UNL1        0.1231
     14 N         -22.1562   -7.4044  -15.5731 N.ar    1  UNL1       -0.1676
     15 N         -22.8010   -8.4643  -16.0375 N.ar    1  UNL1       -0.2488
     16 C         -23.3741   -8.5209  -17.3781 C.3     1  UNL1        0.1537
     17 C         -25.0029  -14.7620  -15.7428 C.3     1  UNL1        0.0310
     18 C         -24.4466  -13.3757  -15.6078 C.ar    1  UNL1       -0.0218
     19 C         -23.1203  -13.1075  -15.9768 C.ar    1  UNL1       -0.0042
     20 C         -22.5898  -11.8246  -15.8160 C.ar    1  UNL1        0.0012
     21 C         -23.3754  -10.7946  -15.2744 C.ar    1  UNL1        0.0174
     22 C         -24.6947  -11.0698  -14.8844 C.ar    1  UNL1        0.0012
     23 C         -25.2252  -12.3532  -15.0453 C.ar    1  UNL1       -0.0042
     24 N         -24.1053   -7.6602  -11.7962 N.pl3   1  UNL1       -0.2917
     25 C         -23.5220   -6.3418  -11.6889 C.3     1  UNL1        0.0937
     26 C         -24.4321   -5.4503  -12.5169 C.3     1  UNL1        0.0391
     27 C         -25.1218   -6.3767  -13.5389 C.3     1  UNL1        0.0790
     28 C         -25.0614   -7.7682  -12.8837 C.3     1  UNL1        0.1081
     29 N         -26.5189   -5.9572  -13.8389 N.3     1  UNL1       -0.2723
     30 C         -26.6247   -5.3379  -15.1803 C.3     1  UNL1        0.0730
     31 C         -28.0000   -4.6665  -15.3600 C.3     1  UNL1        0.0279
     32 C         -29.0828   -5.3109  -14.4761 C.3     1  UNL1        0.0466
     33 S         -30.7441   -4.9871  -15.1546 S.3     1  UNL1       -0.1688
     34 C         -28.8444   -6.8171  -14.3577 C.3     1  UNL1        0.0279
     35 C         -27.4534   -7.1146  -13.7530 C.3     1  UNL1        0.0730
     36 H         -30.6408   -3.5982  -14.9471 H       1  UNL1        0.1023
@<TRIPOS>BOND
     1    17    18    1
     2    18    19   ar
     3    19    20   ar
     4    20    21   ar
     5    21    11    1
     6    11    12   ar
     7    12     1    1
     8     1     2   ar
     9     2     3   ar
    10     3     4    1
    11     3     5   ar
    12     5     6   ar
    13     6     7   ar
    14     7     8   ar
    15     8     9   ar
    16     9    24    1
    17    24    25    1
    18    25    26    1
    19    26    27    1
    20    27    29    1
    21    29    30    1
    22    30    31    1
    23    31    32    1
    24    32    33    1
    25    32    34    1
    26    34    35    1
    27    27    28    1
    28     9    10   ar
    29    12    13   ar
    30    13    14   ar
    31    14    15   ar
    32    15    16    1
    33    21    22   ar
    34    22    23   ar
    35    23    18   ar
    36    15    11   ar
    37    10     1   ar
    38    10     5   ar
    39    28    24    1
    40    35    29    1
    41    33    36    1
@<TRIPOS>MOLECULE
*****
 36 41 0 0 0
SMALL
GASTEIGER

@<TRIPOS>ATOM
      1 C         -20.0768   -7.5105   -8.4808 C.ar    1  UNL1        0.1095
      2 N         -19.7752   -7.3051   -7.1737 N.ar    1  UNL1       -0.1677
      3 N         -19.0250   -8.3206   -6.7607 N.ar    1  UNL1       -0.2319
      4 C         -18.4367   -8.4197   -5.4318 C.3     1  UNL1        0.1554
      5 C         -18.8289   -9.1531   -7.7953 C.ar    1  UNL1        0.1654
      6 N         -18.0719  -10.2767   -7.8113 N.ar    1  UNL1       -0.2050
      7 C         -17.9956  -10.9846   -8.9775 C.ar    1  UNL1        0.2014
      8 N         -18.6925  -10.5776  -10.0856 N.ar    1  UNL1       -0.2089
      9 C         -19.4603   -9.4474  -10.0731 C.ar    1  UNL1        0.1379
     10 C         -19.4920   -8.7014   -8.8928 C.ar    1  UNL1        0.0865
     11 C         -22.1121   -6.5540   -9.7108 C.ar    1  UNL1        0.0809
     12 C         -20.7900   -6.5251   -9.3053 C.ar    1  UNL1        0.0577
     13 C         -20.2841   -5.3417   -9.8074 C.ar    1  UNL1        0.1231
     14 N         -21.2486   -4.7033  -10.4984 N.ar    1  UNL1       -0.1676
     15 N         -22.3460   -5.4434  -10.4460 N.ar    1  UNL1       -0.2488
     16 C         -23.5851   -5.0757  -11.1230 C.3     1  UNL1        0.1537
     17 C         -25.8971  -10.8359   -8.7662 C.3     1  UNL1        0.0310
     18 C         -24.9032   -9.7456   -9.0362 C.ar    1  UNL1       -0.0218
     19 C         -23.6956   -9.6982   -8.3244 C.ar    1  UNL1       -0.0042
     20 C         -22.7856   -8.6614   -8.5486 C.ar    1  UNL1        0.0012
     21 C         -23.0754   -7.6521   -9.4805 C.ar    1  UNL1        0.0174
     22 C         -24.2938   -7.6882  -10.1753 C.ar    1  UNL1        0.0012
     23 C         -25.2040   -8.7253   -9.9509 C.ar    1  UNL1       -0.0042
     24 N         -20.2740   -9.1213  -11.2034 N.pl3   1  UNL1       -0.2917
     25 C         -19.8146   -8.2944  -12.2966 C.3     1  UNL1        0.0937
     26 C         -21.0354   -8.1168  -13.1836 C.3     1  UNL1        0.0391
     27 C         -21.9509   -9.3242  -12.8959 C.3     1  UNL1        0.0790
     28 C         -21.5362   -9.7812  -11.4857 C.3     1  UNL1        0.1081
     29 N         -23.3968   -8.9761  -12.9711 N.3     1  UNL1       -0.2723
     30 C         -23.6440   -7.8861  -13.9431 C.3     1  UNL1        0.0730
     31 C         -25.0840   -7.3548  -13.8066 C.3     1  UNL1        0.0279
     32 C         -26.0446   -8.4146  -13.2382 C.3     1  UNL1        0.0466
     33 S         -27.7683   -8.0306  -13.6926 S.3     1  UNL1       -0.1688
     34 C         -25.6613   -9.8055  -13.7463 C.3     1  UNL1        0.0279
     35 C         -24.2132  -10.1657  -13.3431 C.3     1  UNL1        0.0730
     36 H         -27.7806   -6.8396  -12.9414 H       1  UNL1        0.1023
@<TRIPOS>BOND
     1    17    18    1
     2    18    19   ar
     3    19    20   ar
     4    20    21   ar
     5    21    11    1
     6    11    12   ar
     7    12     1    1
     8     1     2   ar
     9     2     3   ar
    10     3     4    1
    11     3     5   ar
    12     5     6   ar
    13     6     7   ar
    14     7     8   ar
    15     8     9   ar
    16     9    24    1
    17    24    25    1
    18    25    26    1
    19    26    27    1
    20    27    29    1
    21    29    30    1
    22    30    31    1
    23    31    32    1
    24    32    33    1
    25    32    34    1
    26    34    35    1
    27    27    28    1
    28     9    10   ar
    29    12    13   ar
    30    13    14   ar
    31    14    15   ar
    32    15    16    1
    33    21    22   ar
    34    22    23   ar
    35    23    18   ar
    36    15    11   ar
    37    10     1   ar
    38    10     5   ar
    39    28    24    1
    40    35    29    1
    41    33    36    1
@<TRIPOS>MOLECULE
*****
 36 41 0 0 0
SMALL
GASTEIGER

@<TRIPOS>ATOM
      1 C         -23.8944   -8.8625  -11.2828 C.ar    1  UNL1        0.1095
      2 N         -23.2941   -9.7359  -10.4354 N.ar    1  UNL1       -0.1677
      3 N         -24.1498  -10.0143   -9.4582 N.ar    1  UNL1       -0.2319
      4 C         -23.8968  -10.9771   -8.3947 C.3     1  UNL1        0.1554
      5 C         -25.2912   -9.3469   -9.6892 C.ar    1  UNL1        0.1654
      6 N         -26.4343   -9.4019   -8.9638 N.ar    1  UNL1       -0.2050
      7 C         -27.4948   -8.6451   -9.3754 C.ar    1  UNL1        0.2014
      8 N         -27.3858   -7.8341  -10.4753 N.ar    1  UNL1       -0.2089
      9 C         -26.2339   -7.7722  -11.2077 C.ar    1  UNL1        0.1379
     10 C         -25.1717   -8.5876  -10.8105 C.ar    1  UNL1        0.0865
     11 C         -23.3127   -9.0804  -13.7696 C.ar    1  UNL1        0.0809
     12 C         -23.2902   -8.4282  -12.5500 C.ar    1  UNL1        0.0577
     13 C         -22.6097   -7.2489  -12.7837 C.ar    1  UNL1        0.1231
     14 N         -22.2238   -7.2060  -14.0738 N.ar    1  UNL1       -0.1676
     15 N         -22.6410   -8.3175  -14.6616 N.ar    1  UNL1       -0.2488
     16 C         -22.3638   -8.6288  -16.0598 C.3     1  UNL1        0.1537
     17 C         -25.5039  -14.3498  -14.7619 C.3     1  UNL1        0.0310
     18 C         -24.9288  -12.9827  -14.5384 C.ar    1  UNL1       -0.0218
     19 C         -23.5887  -12.8344  -14.1518 C.ar    1  UNL1       -0.0042
     20 C         -23.0625  -11.5631  -13.9067 C.ar    1  UNL1        0.0012
     21 C         -23.8721  -10.4233  -14.0350 C.ar    1  UNL1        0.0174
     22 C         -25.2185  -10.5747  -14.3995 C.ar    1  UNL1        0.0012
     23 C         -25.7447  -11.8464  -14.6445 C.ar    1  UNL1       -0.0042
     24 N         -26.1105   -6.8229  -12.2704 N.pl3   1  UNL1       -0.2917
     25 C         -25.2188   -5.6863  -12.2164 C.3     1  UNL1        0.0937
     26 C         -25.5165   -4.9037  -13.4843 C.3     1  UNL1        0.0391
     27 C         -26.1049   -5.9196  -14.4844 C.3     1  UNL1        0.0790
     28 C         -26.6720   -7.0383  -13.5921 C.3     1  UNL1        0.1081
     29 N         -27.1468   -5.3192  -15.3628 N.3     1  UNL1       -0.2723
     30 C         -28.3579   -4.9483  -14.5949 C.3     1  UNL1        0.0730
     31 C         -29.5154   -4.5919  -15.5477 C.3     1  UNL1        0.0279
     32 C         -29.0126   -4.0883  -16.9125 C.3     1  UNL1        0.0466
     33 S         -30.2905   -3.0832  -17.7381 S.3     1  UNL1       -0.1688
     34 C         -27.7301   -3.2732  -16.7378 C.3     1  UNL1        0.0279
     35 C         -26.6211   -4.1172  -16.0690 C.3     1  UNL1        0.0730
     36 H         -31.1743   -4.1724  -17.8624 H       1  UNL1        0.1023
@<TRIPOS>BOND
     1    17    18    1
     2    18    19   ar
     3    19    20   ar
     4    20    21   ar
     5    21    11    1
     6    11    12   ar
     7    12     1    1
     8     1     2   ar
     9     2     3   ar
    10     3     4    1
    11     3     5   ar
    12     5     6   ar
    13     6     7   ar
    14     7     8   ar
    15     8     9   ar
    16     9    24    1
    17    24    25    1
    18    25    26    1
    19    26    27    1
    20    27    29    1
    21    29    30    1
    22    30    31    1
    23    31    32    1
    24    32    33    1
    25    32    34    1
    26    34    35    1
    27    27    28    1
    28     9    10   ar
    29    12    13   ar
    30    13    14   ar
    31    14    15   ar
    32    15    16    1
    33    21    22   ar
    34    22    23   ar
    35    23    18   ar
    36    15    11   ar
    37    10     1   ar
    38    10     5   ar
    39    28    24    1
    40    35    29    1
    41    33    36    1
@<TRIPOS>MOLECULE
*****
 36 41 0 0 0
SMALL
GASTEIGER

@<TRIPOS>ATOM
      1 C         -23.1806   -9.0155  -14.5636 C.ar    1  UNL1        0.1095
      2 N         -22.8173   -8.9387  -15.8688 N.ar    1  UNL1       -0.1677
      3 N         -23.3754   -9.9586  -16.5114 N.ar    1  UNL1       -0.2319
      4 C         -23.2813  -10.1739  -17.9490 C.3     1  UNL1        0.1554
      5 C         -24.1057  -10.6656  -15.6346 C.ar    1  UNL1        0.1654
      6 N         -24.8798  -11.7464  -15.8958 N.ar    1  UNL1       -0.2050
      7 C         -25.5549  -12.3208  -14.8560 C.ar    1  UNL1        0.2014
      8 N         -25.4229  -11.8282  -13.5835 N.ar    1  UNL1       -0.2089
      9 C         -24.6402  -10.7409  -13.3146 C.ar    1  UNL1        0.1379
     10 C         -23.9943  -10.1283  -14.3908 C.ar    1  UNL1        0.0865
     11 C         -23.6826   -7.0058  -13.0539 C.ar    1  UNL1        0.0809
     12 C         -22.8500   -7.9797  -13.5751 C.ar    1  UNL1        0.0577
     13 C         -21.6395   -7.8007  -12.9340 C.ar    1  UNL1        0.1231
     14 N         -21.7347   -6.7574  -12.0868 N.ar    1  UNL1       -0.1676
     15 N         -22.9655   -6.2749  -12.1705 N.ar    1  UNL1       -0.2488
     16 C         -23.4148   -5.1095  -11.4164 C.3     1  UNL1        0.1537
     17 C         -29.1379   -5.9667  -14.7008 C.3     1  UNL1        0.0310
     18 C         -27.7280   -6.2105  -14.2512 C.ar    1  UNL1       -0.0218
     19 C         -26.6586   -5.5834  -14.9073 C.ar    1  UNL1       -0.0042
     20 C         -25.3424   -5.8394  -14.5133 C.ar    1  UNL1        0.0012
     21 C         -25.0771   -6.7339  -13.4642 C.ar    1  UNL1        0.0174
     22 C         -26.1464   -7.3779  -12.8238 C.ar    1  UNL1        0.0012
     23 C         -27.4629   -7.1219  -13.2181 C.ar    1  UNL1       -0.0042
     24 N         -24.4230  -10.3315  -11.9615 N.pl3   1  UNL1       -0.2917
     25 C         -25.4504   -9.7280  -11.1428 C.3     1  UNL1        0.0937
     26 C         -24.7412   -9.3479   -9.8540 C.3     1  UNL1        0.0391
     27 C         -23.5187  -10.2822   -9.7484 C.3     1  UNL1        0.0790
     28 C         -23.2417  -10.7027  -11.2030 C.3     1  UNL1        0.1081
     29 N         -22.3428   -9.6165   -9.1225 N.3     1  UNL1       -0.2723
     30 C         -21.1191   -9.7947   -9.9378 C.3     1  UNL1        0.0730
     31 C         -19.8730   -9.3462   -9.1499 C.3     1  UNL1        0.0279
     32 C         -20.2084   -8.2911   -8.0807 C.3     1  UNL1        0.0466
     33 S         -18.7262   -7.3221   -7.6457 S.3     1  UNL1       -0.1688
     34 C         -21.3184   -7.3643   -8.5793 C.3     1  UNL1        0.0279
     35 C         -22.5970   -8.1620   -8.9228 C.3     1  UNL1        0.0730
     36 H         -18.0618   -8.4396   -7.1047 H       1  UNL1        0.1023
@<TRIPOS>BOND
     1    17    18    1
     2    18    19   ar
     3    19    20   ar
     4    20    21   ar
     5    21    11    1
     6    11    12   ar
     7    12     1    1
     8     1     2   ar
     9     2     3   ar
    10     3     4    1
    11     3     5   ar
    12     5     6   ar
    13     6     7   ar
    14     7     8   ar
    15     8     9   ar
    16     9    24    1
    17    24    25    1
    18    25    26    1
    19    26    27    1
    20    27    29    1
    21    29    30    1
    22    30    31    1
    23    31    32    1
    24    32    33    1
    25    32    34    1
    26    34    35    1
    27    27    28    1
    28     9    10   ar
    29    12    13   ar
    30    13    14   ar
    31    14    15   ar
    32    15    16    1
    33    21    22   ar
    34    22    23   ar
    35    23    18   ar
    36    15    11   ar
    37    10     1   ar
    38    10     5   ar
    39    28    24    1
    40    35    29    1
    41    33    36    1
@<TRIPOS>MOLECULE
*****
 36 41 0 0 0
SMALL
GASTEIGER

@<TRIPOS>ATOM
      1 C         -23.6137   -9.8502  -14.1530 C.ar    1  UNL1        0.1095
      2 N         -24.1897  -10.5223  -15.1815 N.ar    1  UNL1       -0.1677
      3 N         -23.4458  -10.3311  -16.2653 N.ar    1  UNL1       -0.2319
      4 C         -23.6983  -10.9578  -17.5558 C.3     1  UNL1        0.1554
      5 C         -22.3946   -9.5665  -15.9303 C.ar    1  UNL1        0.1654
      6 N         -21.3675   -9.1893  -16.7294 N.ar    1  UNL1       -0.2050
      7 C         -20.3838   -8.4104  -16.1884 C.ar    1  UNL1        0.2014
      8 N         -20.4583   -8.0031  -14.8816 N.ar    1  UNL1       -0.2089
      9 C         -21.4941   -8.3775  -14.0730 C.ar    1  UNL1        0.1379
     10 C         -22.4688   -9.2159  -14.6189 C.ar    1  UNL1        0.0865
     11 C         -25.1166   -9.2168  -12.1756 C.ar    1  UNL1        0.0809
     12 C         -24.0942   -9.9368  -12.7670 C.ar    1  UNL1        0.0577
     13 C         -23.6412  -10.7949  -11.7837 C.ar    1  UNL1        0.1231
     14 N         -24.3418  -10.5846  -10.6523 N.ar    1  UNL1       -0.1676
     15 N         -25.2232   -9.6248  -10.8907 N.ar    1  UNL1       -0.2488
     16 C         -26.1301   -9.1081   -9.8712 C.3     1  UNL1        0.1537
     17 C         -28.1078   -4.9154  -14.6460 C.3     1  UNL1        0.0310
     18 C         -27.3465   -6.0203  -13.9759 C.ar    1  UNL1       -0.0218
     19 C         -26.0306   -5.8080  -13.5393 C.ar    1  UNL1       -0.0042
     20 C         -25.3075   -6.8480  -12.9489 C.ar    1  UNL1        0.0012
     21 C         -25.8871   -8.1177  -12.7961 C.ar    1  UNL1        0.0174
     22 C         -27.1954   -8.3350  -13.2540 C.ar    1  UNL1        0.0012
     23 C         -27.9185   -7.2945  -13.8446 C.ar    1  UNL1       -0.0042
     24 N         -21.6082   -7.8324  -12.7556 N.pl3   1  UNL1       -0.2917
     25 C         -22.0416   -6.4781  -12.4947 C.3     1  UNL1        0.0937
     26 C         -21.8853   -6.3071  -10.9930 C.3     1  UNL1        0.0391
     27 C         -21.9572   -7.7258  -10.3925 C.3     1  UNL1        0.0790
     28 C         -21.5433   -8.6461  -11.5548 C.3     1  UNL1        0.1081
     29 N         -21.0739   -7.8892   -9.2047 N.3     1  UNL1       -0.2723
     30 C         -21.7555   -8.6294   -8.1177 C.3     1  UNL1        0.0730
     31 C         -20.9402   -8.5478   -6.8127 C.3     1  UNL1        0.0279
     32 C         -19.4394   -8.3302   -7.0759 C.3     1  UNL1        0.0466
     33 S         -18.4487   -8.8857   -5.6495 S.3     1  UNL1       -0.1688
     34 C         -19.0089   -9.0750   -8.3407 C.3     1  UNL1        0.0279
     35 C         -19.8139   -8.5955   -9.5701 C.3     1  UNL1        0.0730
     36 H         -18.9897   -7.9052   -4.7957 H       1  UNL1        0.1023
@<TRIPOS>BOND
     1    17    18    1
     2    18    19   ar
     3    19    20   ar
     4    20    21   ar
     5    21    11    1
     6    11    12   ar
     7    12     1    1
     8     1     2   ar
     9     2     3   ar
    10     3     4    1
    11     3     5   ar
    12     5     6   ar
    13     6     7   ar
    14     7     8   ar
    15     8     9   ar
    16     9    24    1
    17    24    25    1
    18    25    26    1
    19    26    27    1
    20    27    29    1
    21    29    30    1
    22    30    31    1
    23    31    32    1
    24    32    33    1
    25    32    34    1
    26    34    35    1
    27    27    28    1
    28     9    10   ar
    29    12    13   ar
    30    13    14   ar
    31    14    15   ar
    32    15    16    1
    33    21    22   ar
    34    22    23   ar
    35    23    18   ar
    36    15    11   ar
    37    10     1   ar
    38    10     5   ar
    39    28    24    1
    40    35    29    1
    41    33    36    1
@<TRIPOS>MOLECULE
*****
 36 41 0 0 0
SMALL
GASTEIGER

@<TRIPOS>ATOM
      1 C         -23.2195  -12.2460  -15.4803 C.ar    1  UNL1        0.1095
      2 N         -22.6100  -13.3213  -16.0404 N.ar    1  UNL1       -0.1677
      3 N         -23.1463  -14.4173  -15.5153 N.ar    1  UNL1       -0.2319
      4 C         -22.8069  -15.7740  -15.9230 C.3     1  UNL1        0.1554
      5 C         -24.1027  -14.0496  -14.6482 C.ar    1  UNL1        0.1654
      6 N         -24.9286  -14.8619  -13.9455 N.ar    1  UNL1       -0.2050
      7 C         -25.8473  -14.2836  -13.1159 C.ar    1  UNL1        0.2014
      8 N         -25.9041  -12.9204  -12.9829 N.ar    1  UNL1       -0.2089
      9 C         -25.0707  -12.0972  -13.6863 C.ar    1  UNL1        0.1379
     10 C         -24.1694  -12.6939  -14.5708 C.ar    1  UNL1        0.0865
     11 C         -22.2459   -9.8856  -15.2551 C.ar    1  UNL1        0.0809
     12 C         -22.9687  -10.8643  -15.9132 C.ar    1  UNL1        0.0577
     13 C         -23.3753  -10.2786  -17.0964 C.ar    1  UNL1        0.1231
     14 N         -22.9372   -9.0052  -17.1361 N.ar    1  UNL1       -0.1676
     15 N         -22.2656   -8.7698  -16.0188 N.ar    1  UNL1       -0.2488
     16 C         -21.6793   -7.4715  -15.7030 C.3     1  UNL1        0.1537
     17 C         -19.8661  -10.3335   -9.9931 C.3     1  UNL1        0.0310
     18 C         -20.5128  -10.2121  -11.3409 C.ar    1  UNL1       -0.0218
     19 C         -20.9676  -11.3567  -12.0121 C.ar    1  UNL1       -0.0042
     20 C         -21.5362  -11.2484  -13.2842 C.ar    1  UNL1        0.0012
     21 C         -21.6485   -9.9950  -13.9068 C.ar    1  UNL1        0.0174
     22 C         -21.1724   -8.8538  -13.2439 C.ar    1  UNL1        0.0012
     23 C         -20.6036   -8.9623  -11.9715 C.ar    1  UNL1       -0.0042
     24 N         -25.0688  -10.6902  -13.4296 N.pl3   1  UNL1       -0.2917
     25 C         -25.7234   -9.7285  -14.2879 C.3     1  UNL1        0.0937
     26 C         -25.3518   -8.3761  -13.7035 C.3     1  UNL1        0.0391
     27 C         -25.0232   -8.6291  -12.2180 C.3     1  UNL1        0.0790
     28 C         -24.6317  -10.1170  -12.1691 C.3     1  UNL1        0.1081
     29 N         -23.9356   -7.7453  -11.7145 N.3     1  UNL1       -0.2723
     30 C         -24.3082   -6.3150  -11.8117 C.3     1  UNL1        0.0730
     31 C         -23.0831   -5.4171  -11.5517 C.3     1  UNL1        0.0279
     32 C         -22.0292   -6.1106  -10.6700 C.3     1  UNL1        0.0466
     33 S         -20.9645   -4.8781   -9.8500 S.3     1  UNL1       -0.1688
     34 C         -22.7105   -6.9981   -9.6270 C.3     1  UNL1        0.0279
     35 C         -23.5932   -8.0727  -10.3019 C.3     1  UNL1        0.0730
     36 H         -20.4260   -4.4214  -11.0683 H       1  UNL1        0.1023
@<TRIPOS>BOND
     1    17    18    1
     2    18    19   ar
     3    19    20   ar
     4    20    21   ar
     5    21    11    1
     6    11    12   ar
     7    12     1    1
     8     1     2   ar
     9     2     3   ar
    10     3     4    1
    11     3     5   ar
    12     5     6   ar
    13     6     7   ar
    14     7     8   ar
    15     8     9   ar
    16     9    24    1
    17    24    25    1
    18    25    26    1
    19    26    27    1
    20    27    29    1
    21    29    30    1
    22    30    31    1
    23    31    32    1
    24    32    33    1
    25    32    34    1
    26    34    35    1
    27    27    28    1
    28     9    10   ar
    29    12    13   ar
    30    13    14   ar
    31    14    15   ar
    32    15    16    1
    33    21    22   ar
    34    22    23   ar
    35    23    18   ar
    36    15    11   ar
    37    10     1   ar
    38    10     5   ar
    39    28    24    1
    40    35    29    1
    41    33    36    1
@<TRIPOS>MOLECULE
*****
 36 41 0 0 0
SMALL
GASTEIGER

@<TRIPOS>ATOM
      1 C         -26.2630   -6.0954  -14.2714 C.ar    1  UNL1        0.1095
      2 N         -26.9507   -4.9505  -14.5115 N.ar    1  UNL1       -0.1677
      3 N         -26.5174   -4.4443  -15.6607 N.ar    1  UNL1       -0.2319
      4 C         -27.0712   -3.2557  -16.2952 C.3     1  UNL1        0.1554
      5 C         -25.5818   -5.2661  -16.1617 C.ar    1  UNL1        0.1654
      6 N         -24.9324   -5.1447  -17.3447 N.ar    1  UNL1       -0.2050
      7 C         -24.0145   -6.1009  -17.6760 C.ar    1  UNL1        0.2014
      8 N         -23.7440   -7.1337  -16.8161 N.ar    1  UNL1       -0.2089
      9 C         -24.3933   -7.2582  -15.6203 C.ar    1  UNL1        0.1379
     10 C         -25.3669   -6.3054  -15.3121 C.ar    1  UNL1        0.0865
     11 C         -25.8771   -7.1237  -11.9554 C.ar    1  UNL1        0.0809
     12 C         -26.5651   -6.9937  -13.1483 C.ar    1  UNL1        0.0577
     13 C         -27.6329   -7.8642  -13.0460 C.ar    1  UNL1        0.1231
     14 N         -27.5758   -8.5010  -11.8601 N.ar    1  UNL1       -0.1676
     15 N         -26.5094   -8.0586  -11.2104 N.ar    1  UNL1       -0.2488
     16 C         -26.1122   -8.5621   -9.8998 C.3     1  UNL1        0.1537
     17 C         -20.9008   -4.4993  -10.5764 C.3     1  UNL1        0.0310
     18 C         -22.2032   -5.1669  -10.9045 C.ar    1  UNL1       -0.0218
     19 C         -22.4261   -6.5014  -10.5347 C.ar    1  UNL1       -0.0042
     20 C         -23.6246   -7.1356  -10.8731 C.ar    1  UNL1        0.0012
     21 C         -24.6126   -6.4471  -11.5948 C.ar    1  UNL1        0.0174
     22 C         -24.3790   -5.1195  -11.9839 C.ar    1  UNL1        0.0012
     23 C         -23.1801   -4.4852  -11.6454 C.ar    1  UNL1       -0.0042
     24 N         -23.9976   -8.2719  -14.6921 N.pl3   1  UNL1       -0.2917
     25 C         -24.8545   -9.3713  -14.3085 C.3     1  UNL1        0.0937
     26 C         -24.0787  -10.1039  -13.2268 C.3     1  UNL1        0.0391
     27 C         -22.5924   -9.7695  -13.4672 C.3     1  UNL1        0.0790
     28 C         -22.6280   -8.4383  -14.2393 C.3     1  UNL1        0.1081
     29 N         -21.8181   -9.6630  -12.1995 N.3     1  UNL1       -0.2723
     30 C         -21.2406  -10.9682  -11.8036 C.3     1  UNL1        0.0730
     31 C         -20.6862  -10.9021  -10.3674 C.3     1  UNL1        0.0279
     32 C         -20.2783   -9.4733   -9.9656 C.3     1  UNL1        0.0466
     33 S         -19.0643   -9.5092   -8.6055 S.3     1  UNL1       -0.1688
     34 C         -19.7012   -8.7276  -11.1699 C.3     1  UNL1        0.0279
     35 C         -20.7269   -8.6562  -12.3240 C.3     1  UNL1        0.0730
     36 H         -19.9813  -10.0781   -7.7010 H       1  UNL1        0.1023
@<TRIPOS>BOND
     1    17    18    1
     2    18    19   ar
     3    19    20   ar
     4    20    21   ar
     5    21    11    1
     6    11    12   ar
     7    12     1    1
     8     1     2   ar
     9     2     3   ar
    10     3     4    1
    11     3     5   ar
    12     5     6   ar
    13     6     7   ar
    14     7     8   ar
    15     8     9   ar
    16     9    24    1
    17    24    25    1
    18    25    26    1
    19    26    27    1
    20    27    29    1
    21    29    30    1
    22    30    31    1
    23    31    32    1
    24    32    33    1
    25    32    34    1
    26    34    35    1
    27    27    28    1
    28     9    10   ar
    29    12    13   ar
    30    13    14   ar
    31    14    15   ar
    32    15    16    1
    33    21    22   ar
    34    22    23   ar
    35    23    18   ar
    36    15    11   ar
    37    10     1   ar
    38    10     5   ar
    39    28    24    1
    40    35    29    1
    41    33    36    1
