@<TRIPOS>MOLECULE
*****
 50 55 0 0 0
SMALL
GASTEIGER

@<TRIPOS>ATOM
      1 O          58.1517   84.4794   11.0099 O.2     1  UNL1       -0.2701
      2 C          59.0122   84.1308   11.8642 C.2     1  UNL1        0.2483
      3 N          58.9422   82.8241   12.4577 N.am    1  UNL1       -0.2945
      4 H          59.4346   82.6711   13.3670 H       1  UNL1        0.1501
      5 C          60.0624   85.0933   12.2694 C.ar    1  UNL1        0.0808
      6 C          60.0363   85.6461   13.5614 C.ar    1  UNL1        0.0080
      7 C          61.0197   86.5517   13.9671 C.ar    1  UNL1        0.0148
      8 C          62.0431   86.9296   13.0869 C.ar    1  UNL1        0.0502
      9 C          62.0613   86.3967   11.7887 C.ar    1  UNL1        0.0443
     10 C          61.0804   85.4882   11.3788 C.ar    1  UNL1        0.1457
     11 F          61.1067   85.0352   10.0998 F       1  UNL1       -0.2040
     12 N          63.0552   87.8632   13.5097 N.pl3   1  UNL1       -0.3034
     13 C          63.8859   88.5299   12.4953 C.3     1  UNL1        0.1123
     14 C          64.2516   89.9414   12.9453 C.3     1  UNL1        0.1122
     15 N          64.7591   89.9075   14.3187 N.pl3   1  UNL1       -0.3040
     16 C          63.8977   89.3145   15.3462 C.3     1  UNL1        0.1131
     17 C          63.4526   87.8989   14.9313 C.3     1  UNL1        0.1219
     18 C          65.9397   90.6482   14.6802 C.ar    1  UNL1        0.0488
     19 C          65.9116   91.5656   15.7430 C.ar    1  UNL1        0.0154
     20 C          67.0629   92.2754   16.0929 C.ar    1  UNL1        0.0135
     21 C          68.2557   92.0773   15.3895 C.ar    1  UNL1        0.0683
     22 CL         69.6841   92.9885   15.8602 Cl      1  UNL1       -0.0814
     23 C          68.2941   91.1591   14.3267 C.ar    1  UNL1        0.0694
     24 CL         69.7742   90.8737   13.4215 Cl      1  UNL1       -0.0813
     25 C          67.1388   90.4501   13.9772 C.ar    1  UNL1        0.0268
     26 C          64.5226   86.8303   15.2313 C.3     1  UNL1        0.1585
     27 O          63.9749   85.5391   15.2633 O.3     1  UNL1       -0.3802
     28 H          64.0335   85.1771   14.3411 H       1  UNL1        0.2105
     29 C          57.9944   81.8020   12.0006 C.3     1  UNL1        0.1535
     30 C          58.2008   81.5097   10.5319 C.2     1  UNL1        0.2443
     31 O          57.2801   80.9667    9.8626 O.2     1  UNL1       -0.2730
     32 N          59.4437   81.8694    9.9042 N.am    1  UNL1       -0.2825
     33 H          60.2587   82.0678   10.5280 H       1  UNL1        0.1549
     34 C          59.6626   81.9404    8.4830 C.ar    1  UNL1        0.0535
     35 C          60.1954   83.0868    7.8662 C.ar    1  UNL1        0.0353
     36 C          60.4304   83.0836    6.4891 C.ar    1  UNL1        0.1002
     37 N          60.1547   81.9763    5.7515 N.ar    1  UNL1       -0.2422
     38 C          59.6524   80.8496    6.3212 C.ar    1  UNL1        0.1002
     39 C          59.4061   80.8091    7.6953 C.ar    1  UNL1        0.0353
     40 C          58.1625   80.5296   12.8484 C.3     1  UNL1        0.0569
     41 C          58.9288   79.4686   12.1092 C.ar    1  UNL1       -0.0017
     42 C          58.4347   78.2354   11.6944 C.ar    1  UNL1        0.0681
     43 N          59.3515   77.5886   10.9393 N.ar    1  UNL1       -0.3523
     44 C          60.4152   78.4071   10.8639 C.ar    1  UNL1        0.0563
     45 C          61.5966   78.1928   10.1552 C.ar    1  UNL1        0.0170
     46 C          62.5718   79.2063   10.1807 C.ar    1  UNL1        0.0015
     47 C          62.3471   80.3975   10.9051 C.ar    1  UNL1        0.0001
     48 C          61.1447   80.5868   11.6099 C.ar    1  UNL1        0.0012
     49 C          60.1958   79.5648   11.5657 C.ar    1  UNL1        0.0131
     50 H          59.2404   76.6549   10.4850 H       1  UNL1        0.1660
@<TRIPOS>BOND
     1     1     2    2
     2     2     3   am
     3     3    29    1
     4    29    40    1
     5    40    41    1
     6    41    42   ar
     7    42    43   ar
     8    43    44   ar
     9    44    45   ar
    10    45    46   ar
    11    46    47   ar
    12    47    48   ar
    13    48    49   ar
    14    29    30    1
    15    30    31    2
    16    30    32   am
    17    32    34    1
    18    34    35   ar
    19    35    36   ar
    20    36    37   ar
    21    37    38   ar
    22    38    39   ar
    23     2     5    1
    24     5     6   ar
    25     6     7   ar
    26     7     8   ar
    27     8    12    1
    28    12    13    1
    29    13    14    1
    30    14    15    1
    31    15    18    1
    32    18    19   ar
    33    19    20   ar
    34    20    21   ar
    35    21    22    1
    36    21    23   ar
    37    23    24    1
    38    23    25   ar
    39    15    16    1
    40    16    17    1
    41    17    26    1
    42    26    27    1
    43     8     9   ar
    44     9    10   ar
    45    10    11    1
    46    49    41   ar
    47    39    34   ar
    48    10     5   ar
    49    49    44   ar
    50    17    12    1
    51    25    18   ar
    52     3     4    1
    53    43    50    1
    54    32    33    1
    55    27    28    1
@<TRIPOS>MOLECULE
*****
 50 55 0 0 0
SMALL
GASTEIGER

@<TRIPOS>ATOM
      1 O          58.8128   90.2085    6.3145 O.2     1  UNL1       -0.2701
      2 C          59.6350   89.2855    6.0618 C.2     1  UNL1        0.2483
      3 N          60.5166   89.4023    4.9332 N.am    1  UNL1       -0.2945
      4 H          60.9420   88.5276    4.5503 H       1  UNL1        0.1501
      5 C          59.6510   88.0754    6.9156 C.ar    1  UNL1        0.0808
      6 C          58.6713   87.0842    6.7334 C.ar    1  UNL1        0.0080
      7 C          58.6702   85.9320    7.5235 C.ar    1  UNL1        0.0148
      8 C          59.6426   85.7518    8.5170 C.ar    1  UNL1        0.0502
      9 C          60.6102   86.7485    8.7170 C.ar    1  UNL1        0.0443
     10 C          60.6167   87.9025    7.9272 C.ar    1  UNL1        0.1457
     11 F          61.5393   88.8634    8.1863 F       1  UNL1       -0.2040
     12 N          59.6380   84.5620    9.3288 N.pl3   1  UNL1       -0.3034
     13 C          59.3958   83.2587    8.6914 C.3     1  UNL1        0.1123
     14 C          60.1837   82.1608    9.4002 C.3     1  UNL1        0.1122
     15 N          59.9734   82.2552   10.8465 N.pl3   1  UNL1       -0.3040
     16 C          60.2904   83.5306   11.4966 C.3     1  UNL1        0.1131
     17 C          59.5598   84.6931   10.7975 C.3     1  UNL1        0.1219
     18 C          59.7077   81.0737   11.6253 C.ar    1  UNL1        0.0488
     19 C          60.1957   80.9563   12.9368 C.ar    1  UNL1        0.0154
     20 C          59.9278   79.8100   13.6892 C.ar    1  UNL1        0.0135
     21 C          59.1685   78.7691   13.1442 C.ar    1  UNL1        0.0683
     22 CL         58.8515   77.3428   14.1226 Cl      1  UNL1       -0.0814
     23 C          58.6735   78.8792   11.8339 C.ar    1  UNL1        0.0694
     24 CL         57.7083   77.5982   11.1134 Cl      1  UNL1       -0.0813
     25 C          58.9444   80.0282   11.0817 C.ar    1  UNL1        0.0268
     26 C          58.0964   84.8366   11.2607 C.3     1  UNL1        0.1585
     27 O          58.0110   85.1937   12.6147 O.3     1  UNL1       -0.3802
     28 H          58.0020   86.1854   12.6522 H       1  UNL1        0.2105
     29 C          60.6157   90.6295    4.1358 C.3     1  UNL1        0.1535
     30 C          61.8663   90.6080    3.2870 C.2     1  UNL1        0.2443
     31 O          62.6410   89.6138    3.3322 O.2     1  UNL1       -0.2730
     32 N          62.1550   91.7183    2.4196 N.am    1  UNL1       -0.2825
     33 H          61.6482   92.6146    2.5996 H       1  UNL1        0.1549
     34 C          63.1153   91.7023    1.3471 C.ar    1  UNL1        0.0535
     35 C          62.7475   91.4154    0.0201 C.ar    1  UNL1        0.0353
     36 C          63.7128   91.4596   -0.9888 C.ar    1  UNL1        0.1002
     37 N          64.9975   91.7871   -0.6912 N.ar    1  UNL1       -0.2422
     38 C          65.3799   92.0826    0.5787 C.ar    1  UNL1        0.1002
     39 C          64.4457   92.0537    1.6165 C.ar    1  UNL1        0.0353
     40 C          59.3567   90.7795    3.2650 C.3     1  UNL1        0.0569
     41 C          59.5029   91.8939    2.2670 C.ar    1  UNL1       -0.0017
     42 C          60.0798   93.1385    2.5022 C.ar    1  UNL1        0.0681
     43 N          60.1695   93.8431    1.3514 N.ar    1  UNL1       -0.3523
     44 C          59.6654   93.0504    0.3899 C.ar    1  UNL1        0.0563
     45 C          59.5837   93.3256   -0.9744 C.ar    1  UNL1        0.0170
     46 C          59.0524   92.3310   -1.8154 C.ar    1  UNL1        0.0015
     47 C          58.6200   91.0977   -1.2804 C.ar    1  UNL1        0.0001
     48 C          58.7157   90.8471    0.1004 C.ar    1  UNL1        0.0012
     49 C          59.2475   91.8518    0.9095 C.ar    1  UNL1        0.0131
     50 H          60.5751   94.7981    1.2334 H       1  UNL1        0.1660
@<TRIPOS>BOND
     1     1     2    2
     2     2     3   am
     3     3    29    1
     4    29    40    1
     5    40    41    1
     6    41    42   ar
     7    42    43   ar
     8    43    44   ar
     9    44    45   ar
    10    45    46   ar
    11    46    47   ar
    12    47    48   ar
    13    48    49   ar
    14    29    30    1
    15    30    31    2
    16    30    32   am
    17    32    34    1
    18    34    35   ar
    19    35    36   ar
    20    36    37   ar
    21    37    38   ar
    22    38    39   ar
    23     2     5    1
    24     5     6   ar
    25     6     7   ar
    26     7     8   ar
    27     8    12    1
    28    12    13    1
    29    13    14    1
    30    14    15    1
    31    15    18    1
    32    18    19   ar
    33    19    20   ar
    34    20    21   ar
    35    21    22    1
    36    21    23   ar
    37    23    24    1
    38    23    25   ar
    39    15    16    1
    40    16    17    1
    41    17    26    1
    42    26    27    1
    43     8     9   ar
    44     9    10   ar
    45    10    11    1
    46    49    41   ar
    47    39    34   ar
    48    10     5   ar
    49    49    44   ar
    50    17    12    1
    51    25    18   ar
    52     3     4    1
    53    43    50    1
    54    32    33    1
    55    27    28    1
@<TRIPOS>MOLECULE
*****
 50 55 0 0 0
SMALL
GASTEIGER

@<TRIPOS>ATOM
      1 O          58.0622   84.0005   10.9626 O.2     1  UNL1       -0.2701
      2 C          58.9293   83.6659   11.8158 C.2     1  UNL1        0.2483
      3 N          58.9224   82.3354   12.3584 N.am    1  UNL1       -0.2945
      4 H          59.4107   82.1742   13.2685 H       1  UNL1        0.1501
      5 C          59.9205   84.6670   12.2727 C.ar    1  UNL1        0.0808
      6 C          61.1497   84.7835   11.6012 C.ar    1  UNL1        0.0080
      7 C          62.0975   85.7244   12.0113 C.ar    1  UNL1        0.0148
      8 C          61.8392   86.5611   13.1060 C.ar    1  UNL1        0.0502
      9 C          60.6221   86.4341   13.7930 C.ar    1  UNL1        0.0443
     10 C          59.6694   85.4952   13.3848 C.ar    1  UNL1        0.1457
     11 F          58.5270   85.3712   14.1067 F       1  UNL1       -0.2040
     12 N          62.8191   87.5302   13.5249 N.pl3   1  UNL1       -0.3034
     13 C          63.6018   88.2465   12.5062 C.3     1  UNL1        0.1123
     14 C          63.9163   89.6653   12.9716 C.3     1  UNL1        0.1122
     15 N          64.4506   89.6325   14.3348 N.pl3   1  UNL1       -0.3040
     16 C          63.6343   88.9883   15.3684 C.3     1  UNL1        0.1131
     17 C          63.2413   87.5615   14.9395 C.3     1  UNL1        0.1219
     18 C          65.6056   90.4169   14.6864 C.ar    1  UNL1        0.0488
     19 C          65.5623   91.3082   15.7707 C.ar    1  UNL1        0.0154
     20 C          66.6893   92.0608   16.1107 C.ar    1  UNL1        0.0135
     21 C          67.8725   91.9318   15.3757 C.ar    1  UNL1        0.0683
     22 CL         69.2701   92.8952   15.8348 Cl      1  UNL1       -0.0814
     23 C          67.9260   91.0402   14.2912 C.ar    1  UNL1        0.0694
     24 CL         69.3953   90.8414   13.3460 Cl      1  UNL1       -0.0813
     25 C          66.7952   90.2882   13.9518 C.ar    1  UNL1        0.0268
     26 C          64.3606   86.5347   15.2031 C.3     1  UNL1        0.1585
     27 O          63.9510   85.2277   14.8993 O.3     1  UNL1       -0.3802
     28 H          64.1816   85.0663   13.9476 H       1  UNL1        0.2105
     29 C          58.0373   81.2824   11.8490 C.3     1  UNL1        0.1535
     30 C          58.2846   81.0519   10.3757 C.2     1  UNL1        0.2443
     31 O          57.3958   80.5072    9.6657 O.2     1  UNL1       -0.2730
     32 N          59.5293   81.4718    9.7904 N.am    1  UNL1       -0.2825
     33 H          60.3240   81.6708   10.4396 H       1  UNL1        0.1549
     34 C          59.7769   81.6027    8.3782 C.ar    1  UNL1        0.0535
     35 C          59.3583   80.6290    7.4535 C.ar    1  UNL1        0.0353
     36 C          59.5840   80.8299    6.0896 C.ar    1  UNL1        0.1002
     37 N          60.1961   81.9637    5.6582 N.ar    1  UNL1       -0.2422
     38 C          60.5993   82.9282    6.5261 C.ar    1  UNL1        0.1002
     39 C          60.3896   82.7688    7.8977 C.ar    1  UNL1        0.0353
     40 C          58.2562   79.9919   12.6569 C.3     1  UNL1        0.0569
     41 C          59.7142   79.6399   12.7544 C.ar    1  UNL1       -0.0017
     42 C          60.3415   78.5564   12.1463 C.ar    1  UNL1        0.0681
     43 N          61.6796   78.6197   12.3318 N.ar    1  UNL1       -0.3523
     44 C          61.9040   79.7391   13.0414 C.ar    1  UNL1        0.0563
     45 C          63.1372   80.2524   13.4407 C.ar    1  UNL1        0.0170
     46 C          63.1457   81.4686   14.1474 C.ar    1  UNL1        0.0015
     47 C          61.9356   82.1372   14.4355 C.ar    1  UNL1        0.0001
     48 C          60.7059   81.5964   14.0188 C.ar    1  UNL1        0.0012
     49 C          60.7288   80.3894   13.3192 C.ar    1  UNL1        0.0131
     50 H          62.3929   77.9478   11.9709 H       1  UNL1        0.1660
@<TRIPOS>BOND
     1     1     2    2
     2     2     3   am
     3     3    29    1
     4    29    40    1
     5    40    41    1
     6    41    42   ar
     7    42    43   ar
     8    43    44   ar
     9    44    45   ar
    10    45    46   ar
    11    46    47   ar
    12    47    48   ar
    13    48    49   ar
    14    29    30    1
    15    30    31    2
    16    30    32   am
    17    32    34    1
    18    34    35   ar
    19    35    36   ar
    20    36    37   ar
    21    37    38   ar
    22    38    39   ar
    23     2     5    1
    24     5     6   ar
    25     6     7   ar
    26     7     8   ar
    27     8    12    1
    28    12    13    1
    29    13    14    1
    30    14    15    1
    31    15    18    1
    32    18    19   ar
    33    19    20   ar
    34    20    21   ar
    35    21    22    1
    36    21    23   ar
    37    23    24    1
    38    23    25   ar
    39    15    16    1
    40    16    17    1
    41    17    26    1
    42    26    27    1
    43     8     9   ar
    44     9    10   ar
    45    10    11    1
    46    49    41   ar
    47    39    34   ar
    48    10     5   ar
    49    49    44   ar
    50    17    12    1
    51    25    18   ar
    52     3     4    1
    53    43    50    1
    54    32    33    1
    55    27    28    1
@<TRIPOS>MOLECULE
*****
 50 55 0 0 0
SMALL
GASTEIGER

@<TRIPOS>ATOM
      1 O          59.5398   86.3569   11.4539 O.2     1  UNL1       -0.2701
      2 C          59.9844   85.9253   10.3549 C.2     1  UNL1        0.2483
      3 N          60.5942   84.6258   10.2910 N.am    1  UNL1       -0.2945
      4 H          61.2317   84.4219    9.4881 H       1  UNL1        0.1501
      5 C          59.9030   86.7856    9.1521 C.ar    1  UNL1        0.0808
      6 C          60.5470   88.0349    9.1471 C.ar    1  UNL1        0.0080
      7 C          60.4882   88.8605    8.0217 C.ar    1  UNL1        0.0148
      8 C          59.7772   88.4580    6.8826 C.ar    1  UNL1        0.0502
      9 C          59.1148   87.2208    6.8904 C.ar    1  UNL1        0.0443
     10 C          59.1726   86.3900    8.0137 C.ar    1  UNL1        0.1457
     11 F          58.4773   85.2246    7.9979 F       1  UNL1       -0.2040
     12 N          59.7198   89.3123    5.7243 N.pl3   1  UNL1       -0.3034
     13 C          58.4466   89.4586    5.0024 C.3     1  UNL1        0.1123
     14 C          58.3166   90.8649    4.4246 C.3     1  UNL1        0.1122
     15 N          59.5438   91.2220    3.7095 N.pl3   1  UNL1       -0.3040
     16 C          60.8063   91.1533    4.4519 C.3     1  UNL1        0.1131
     17 C          60.9793   89.7673    5.1024 C.3     1  UNL1        0.1219
     18 C          59.4795   91.8506    2.4157 C.ar    1  UNL1        0.0488
     19 C          60.1570   93.0561    2.1713 C.ar    1  UNL1        0.0154
     20 C          60.0960   93.6566    0.9113 C.ar    1  UNL1        0.0135
     21 C          59.3617   93.0613   -0.1199 C.ar    1  UNL1        0.0683
     22 CL         59.3098   93.8467   -1.6923 Cl      1  UNL1       -0.0814
     23 C          58.6833   91.8535    0.1147 C.ar    1  UNL1        0.0694
     24 CL         57.7556   91.0674   -1.1555 Cl      1  UNL1       -0.0813
     25 C          58.7448   91.2545    1.3783 C.ar    1  UNL1        0.0268
     26 C          61.5185   88.7132    4.1151 C.3     1  UNL1        0.1585
     27 O          62.0762   89.3064    2.9725 O.3     1  UNL1       -0.3802
     28 H          63.0384   89.4550    3.1643 H       1  UNL1        0.2105
     29 C          60.5887   83.6973   11.4266 C.3     1  UNL1        0.1535
     30 C          61.3993   84.2594   12.5720 C.2     1  UNL1        0.2443
     31 O          62.5752   83.8495   12.7720 O.2     1  UNL1       -0.2730
     32 N          60.8266   85.2722   13.4173 N.am    1  UNL1       -0.2825
     33 H          59.7887   85.3930   13.3890 H       1  UNL1        0.1549
     34 C          61.5675   86.1064   14.3272 C.ar    1  UNL1        0.0535
     35 C          61.6951   85.7924   15.6924 C.ar    1  UNL1        0.0353
     36 C          62.4648   86.6129   16.5204 C.ar    1  UNL1        0.1002
     37 N          63.0943   87.7027   16.0081 N.ar    1  UNL1       -0.2422
     38 C          63.0010   88.0238   14.6911 C.ar    1  UNL1        0.1002
     39 C          62.2445   87.2282   13.8278 C.ar    1  UNL1        0.0353
     40 C          59.1381   83.4204   11.8569 C.3     1  UNL1        0.0569
     41 C          58.5402   82.2770   11.0860 C.ar    1  UNL1       -0.0017
     42 C          58.0522   82.3288    9.7836 C.ar    1  UNL1        0.0681
     43 N          57.7154   81.0910    9.3554 N.ar    1  UNL1       -0.3523
     44 C          57.9972   80.2568   10.3711 C.ar    1  UNL1        0.0563
     45 C          57.8592   78.8696   10.3870 C.ar    1  UNL1        0.0170
     46 C          58.2538   78.1827   11.5495 C.ar    1  UNL1        0.0015
     47 C          58.7718   78.8894   12.6570 C.ar    1  UNL1        0.0001
     48 C          58.9010   80.2893   12.6120 C.ar    1  UNL1        0.0012
     49 C          58.5023   80.9432   11.4457 C.ar    1  UNL1        0.0131
     50 H          57.3396   80.8359    8.4150 H       1  UNL1        0.1660
@<TRIPOS>BOND
     1     1     2    2
     2     2     3   am
     3     3    29    1
     4    29    40    1
     5    40    41    1
     6    41    42   ar
     7    42    43   ar
     8    43    44   ar
     9    44    45   ar
    10    45    46   ar
    11    46    47   ar
    12    47    48   ar
    13    48    49   ar
    14    29    30    1
    15    30    31    2
    16    30    32   am
    17    32    34    1
    18    34    35   ar
    19    35    36   ar
    20    36    37   ar
    21    37    38   ar
    22    38    39   ar
    23     2     5    1
    24     5     6   ar
    25     6     7   ar
    26     7     8   ar
    27     8    12    1
    28    12    13    1
    29    13    14    1
    30    14    15    1
    31    15    18    1
    32    18    19   ar
    33    19    20   ar
    34    20    21   ar
    35    21    22    1
    36    21    23   ar
    37    23    24    1
    38    23    25   ar
    39    15    16    1
    40    16    17    1
    41    17    26    1
    42    26    27    1
    43     8     9   ar
    44     9    10   ar
    45    10    11    1
    46    49    41   ar
    47    39    34   ar
    48    10     5   ar
    49    49    44   ar
    50    17    12    1
    51    25    18   ar
    52     3     4    1
    53    43    50    1
    54    32    33    1
    55    27    28    1
@<TRIPOS>MOLECULE
*****
 50 55 0 0 0
SMALL
GASTEIGER

@<TRIPOS>ATOM
      1 O          60.8424   84.9517   10.2665 O.2     1  UNL1       -0.2701
      2 C          60.0945   85.9672   10.3006 C.2     1  UNL1        0.2483
      3 N          59.2950   86.2279   11.4657 N.am    1  UNL1       -0.2945
      4 H          58.4653   86.8550   11.3612 H       1  UNL1        0.1501
      5 C          60.0256   86.8566    9.1182 C.ar    1  UNL1        0.0808
      6 C          59.3505   86.4252    7.9634 C.ar    1  UNL1        0.0080
      7 C          59.2683   87.2494    6.8384 C.ar    1  UNL1        0.0148
      8 C          59.8665   88.5171    6.8421 C.ar    1  UNL1        0.0502
      9 C          60.5599   88.9438    7.9853 C.ar    1  UNL1        0.0443
     10 C          60.6431   88.1232    9.1145 C.ar    1  UNL1        0.1457
     11 F          61.3647   88.5538   10.1802 F       1  UNL1       -0.2040
     12 N          59.7786   89.3638    5.6801 N.pl3   1  UNL1       -0.3034
     13 C          58.5050   89.4503    4.9494 C.3     1  UNL1        0.1123
     14 C          58.3161   90.8473    4.3653 C.3     1  UNL1        0.1122
     15 N          59.5309   91.2565    3.6569 N.pl3   1  UNL1       -0.3040
     16 C          60.7901   91.2470    4.4078 C.3     1  UNL1        0.1131
     17 C          61.0207   89.8725    5.0647 C.3     1  UNL1        0.1219
     18 C          59.4472   91.8769    2.3603 C.ar    1  UNL1        0.0488
     19 C          60.0992   93.0943    2.1060 C.ar    1  UNL1        0.0154
     20 C          60.0197   93.6869    0.8433 C.ar    1  UNL1        0.0135
     21 C          59.2917   93.0718   -0.1807 C.ar    1  UNL1        0.0683
     22 CL         59.2158   93.8478   -1.7569 Cl      1  UNL1       -0.0814
     23 C          58.6387   91.8521    0.0637 C.ar    1  UNL1        0.0694
     24 CL         57.7199   91.0412   -1.1973 Cl      1  UNL1       -0.0813
     25 C          58.7189   91.2610    1.3300 C.ar    1  UNL1        0.0268
     26 C          61.6131   88.8400    4.0850 C.3     1  UNL1        0.1585
     27 O          62.1677   89.4548    2.9525 O.3     1  UNL1       -0.3802
     28 H          63.1208   89.6372    3.1601 H       1  UNL1        0.2105
     29 C          59.4214   85.4429   12.6985 C.3     1  UNL1        0.1535
     30 C          58.7643   84.0916   12.5335 C.2     1  UNL1        0.2443
     31 O          57.5599   83.9316   12.8720 O.2     1  UNL1       -0.2730
     32 N          59.5157   83.0000   11.9749 N.am    1  UNL1       -0.2825
     33 H          60.5567   83.0927   11.9539 H       1  UNL1        0.1549
     34 C          58.9482   81.7740   11.4773 C.ar    1  UNL1        0.0535
     35 C          58.5578   81.6232   10.1344 C.ar    1  UNL1        0.0353
     36 C          58.0559   80.3957    9.6951 C.ar    1  UNL1        0.1002
     37 N          57.9544   79.3509   10.5579 N.ar    1  UNL1       -0.2422
     38 C          58.3362   79.4621   11.8571 C.ar    1  UNL1        0.1002
     39 C          58.8466   80.6706   12.3365 C.ar    1  UNL1        0.0353
     40 C          60.9084   85.2957   13.0637 C.3     1  UNL1        0.0569
     41 C          61.3404   86.3376   14.0573 C.ar    1  UNL1       -0.0017
     42 C          61.0250   86.3627   15.4127 C.ar    1  UNL1        0.0681
     43 N          61.6906   87.3624   16.0344 N.ar    1  UNL1       -0.3523
     44 C          62.4320   87.9612   15.0864 C.ar    1  UNL1        0.0563
     45 C          63.3216   89.0214   15.2550 C.ar    1  UNL1        0.0170
     46 C          64.0301   89.4714   14.1261 C.ar    1  UNL1        0.0015
     47 C          63.8363   88.8585   12.8687 C.ar    1  UNL1        0.0001
     48 C          62.9331   87.7894   12.7286 C.ar    1  UNL1        0.0012
     49 C          62.2453   87.3644   13.8658 C.ar    1  UNL1        0.0131
     50 H          61.6545   87.5996   17.0508 H       1  UNL1        0.1660
@<TRIPOS>BOND
     1     1     2    2
     2     2     3   am
     3     3    29    1
     4    29    40    1
     5    40    41    1
     6    41    42   ar
     7    42    43   ar
     8    43    44   ar
     9    44    45   ar
    10    45    46   ar
    11    46    47   ar
    12    47    48   ar
    13    48    49   ar
    14    29    30    1
    15    30    31    2
    16    30    32   am
    17    32    34    1
    18    34    35   ar
    19    35    36   ar
    20    36    37   ar
    21    37    38   ar
    22    38    39   ar
    23     2     5    1
    24     5     6   ar
    25     6     7   ar
    26     7     8   ar
    27     8    12    1
    28    12    13    1
    29    13    14    1
    30    14    15    1
    31    15    18    1
    32    18    19   ar
    33    19    20   ar
    34    20    21   ar
    35    21    22    1
    36    21    23   ar
    37    23    24    1
    38    23    25   ar
    39    15    16    1
    40    16    17    1
    41    17    26    1
    42    26    27    1
    43     8     9   ar
    44     9    10   ar
    45    10    11    1
    46    49    41   ar
    47    39    34   ar
    48    10     5   ar
    49    49    44   ar
    50    17    12    1
    51    25    18   ar
    52     3     4    1
    53    43    50    1
    54    32    33    1
    55    27    28    1
