@<TRIPOS>MOLECULE
*****
 50 55 0 0 0
SMALL
GASTEIGER

@<TRIPOS>ATOM
      1 C         -62.0607  -41.4219  -20.5901 C.2     1  UNL1        0.2483
      2 O         -61.2900  -41.8197  -19.6738 O.2     1  UNL1       -0.2701
      3 N         -63.1928  -40.6003  -20.2623 N.am    1  UNL1       -0.2945
      4 H         -63.9408  -40.4660  -20.9801 H       1  UNL1        0.1501
      5 C         -61.3476  -42.6189  -24.6656 C.ar    1  UNL1        0.0502
      6 C         -62.6177  -42.1811  -24.2523 C.ar    1  UNL1        0.0148
      7 C         -62.8414  -41.7984  -22.9277 C.ar    1  UNL1        0.0080
      8 C         -61.7993  -41.8351  -21.9873 C.ar    1  UNL1        0.0808
      9 C         -60.5309  -42.2926  -22.3921 C.ar    1  UNL1        0.1457
     10 F         -59.5146  -42.4154  -21.5012 F       1  UNL1       -0.2040
     11 C         -60.3106  -42.6772  -23.7185 C.ar    1  UNL1        0.0443
     12 N         -61.0087  -43.6016  -28.7856 N.pl3   1  UNL1       -0.3017
     13 C         -59.9006  -42.8481  -28.1929 C.3     1  UNL1        0.1123
     14 C         -60.3850  -42.1174  -26.9390 C.3     1  UNL1        0.1122
     15 N         -61.1163  -43.0211  -26.0338 N.pl3   1  UNL1       -0.3040
     16 C         -61.4672  -44.3814  -26.4736 C.3     1  UNL1        0.1122
     17 C         -61.9205  -44.3808  -27.9385 C.3     1  UNL1        0.1123
     18 C         -61.6938  -43.3602  -32.9729 C.ar    1  UNL1        0.1523
     19 C         -62.6672  -42.8888  -32.0701 C.ar    1  UNL1        0.0759
     20 C         -62.4565  -42.9699  -30.6793 C.ar    1  UNL1        0.1550
     21 C         -61.2562  -43.5183  -30.1965 C.ar    1  UNL1        0.0834
     22 C         -60.2928  -43.9933  -31.0944 C.ar    1  UNL1        0.0321
     23 C         -60.5074  -43.9146  -32.4723 C.ar    1  UNL1        0.0929
     24 CL        -59.2720  -44.5155  -33.5679 Cl      1  UNL1       -0.0790
     25 C         -63.1373  -43.2417  -35.0155 C.3     1  UNL1        0.2525
     26 O         -61.8721  -43.2957  -34.3643 O.3     1  UNL1       -0.4705
     27 O         -63.4171  -42.5311  -29.7536 O.3     1  UNL1       -0.4701
     28 C         -64.6929  -42.0029  -30.1000 C.3     1  UNL1        0.2525
     29 C         -63.3566  -40.0013  -18.9335 C.3     1  UNL1        0.1535
     30 C         -63.6262  -38.5235  -19.0671 C.2     1  UNL1        0.2443
     31 O         -62.9891  -37.8531  -19.9249 O.2     1  UNL1       -0.2730
     32 N         -64.6809  -37.9186  -18.3005 N.am    1  UNL1       -0.2825
     33 H         -65.2678  -38.5459  -17.7050 H       1  UNL1        0.1549
     34 C         -65.1450  -36.5749  -18.5057 C.ar    1  UNL1        0.0535
     35 C         -66.1072  -36.3228  -19.4928 C.ar    1  UNL1        0.0353
     36 C         -66.5607  -35.0181  -19.6980 C.ar    1  UNL1        0.1002
     37 N         -66.0857  -34.0027  -18.9293 N.ar    1  UNL1       -0.2422
     38 C         -65.1692  -34.2204  -17.9491 C.ar    1  UNL1        0.1002
     39 C         -64.6858  -35.5101  -17.7140 C.ar    1  UNL1        0.0353
     40 C         -64.5044  -40.6921  -18.1703 C.3     1  UNL1        0.0569
     41 C         -65.3516  -41.5338  -19.0840 C.ar    1  UNL1       -0.0017
     42 C         -66.3033  -41.0670  -19.9858 C.ar    1  UNL1        0.0681
     43 N         -66.7761  -42.0832  -20.7427 N.ar    1  UNL1       -0.3523
     44 C         -66.1212  -43.1850  -20.3376 C.ar    1  UNL1        0.0563
     45 C         -66.2338  -44.4732  -20.8586 C.ar    1  UNL1        0.0170
     46 C         -65.4119  -45.4771  -20.3148 C.ar    1  UNL1        0.0015
     47 C         -64.5045  -45.1739  -19.2759 C.ar    1  UNL1        0.0001
     48 C         -64.4116  -43.8648  -18.7703 C.ar    1  UNL1        0.0012
     49 C         -65.2416  -42.8906  -19.3271 C.ar    1  UNL1        0.0131
     50 H         -67.4838  -42.0156  -21.5076 H       1  UNL1        0.1660
@<TRIPOS>BOND
     1    25    26    1
     2    26    18    1
     3    18    19   ar
     4    19    20   ar
     5    20    27    1
     6    27    28    1
     7    20    21   ar
     8    21    12    1
     9    12    13    1
    10    13    14    1
    11    14    15    1
    12    15     5    1
    13     5     6   ar
    14     6     7   ar
    15     7     8   ar
    16     8     1    1
    17     1     2    2
    18     1     3   am
    19     3    29    1
    20    29    40    1
    21    40    41    1
    22    41    42   ar
    23    42    43   ar
    24    43    44   ar
    25    44    45   ar
    26    45    46   ar
    27    46    47   ar
    28    47    48   ar
    29    48    49   ar
    30    29    30    1
    31    30    31    2
    32    30    32   am
    33    32    34    1
    34    34    35   ar
    35    35    36   ar
    36    36    37   ar
    37    37    38   ar
    38    38    39   ar
    39     8     9   ar
    40     9    10    1
    41     9    11   ar
    42    15    16    1
    43    16    17    1
    44    21    22   ar
    45    22    23   ar
    46    23    24    1
    47    23    18   ar
    48    17    12    1
    49    11     5   ar
    50    49    41   ar
    51    39    34   ar
    52    49    44   ar
    53     3     4    1
    54    43    50    1
    55    32    33    1
@<TRIPOS>MOLECULE
*****
 50 55 0 0 0
SMALL
GASTEIGER

@<TRIPOS>ATOM
      1 C         -60.6822  -45.8162  -24.1625 C.2     1  UNL1        0.2483
      2 O         -59.7482  -46.5182  -23.6863 O.2     1  UNL1       -0.2701
      3 N         -61.2322  -46.1405  -25.4496 N.am    1  UNL1       -0.2945
      4 H         -61.8354  -45.4352  -25.9305 H       1  UNL1        0.1501
      5 C         -62.1405  -42.4524  -21.9023 C.ar    1  UNL1        0.0502
      6 C         -62.3726  -43.7694  -21.4697 C.ar    1  UNL1        0.0148
      7 C         -61.8995  -44.8549  -22.2108 C.ar    1  UNL1        0.0080
      8 C         -61.1754  -44.6498  -23.3962 C.ar    1  UNL1        0.0808
      9 C         -60.9585  -43.3327  -23.8439 C.ar    1  UNL1        0.1457
     10 F         -60.3291  -43.0890  -25.0213 F       1  UNL1       -0.2040
     11 C         -61.4353  -42.2482  -23.1009 C.ar    1  UNL1        0.0443
     12 N         -63.7853  -39.0276  -19.9995 N.pl3   1  UNL1       -0.3017
     13 C         -64.1322  -40.3313  -19.4279 C.3     1  UNL1        0.1123
     14 C         -63.9505  -41.4235  -20.4840 C.3     1  UNL1        0.1122
     15 N         -62.6347  -41.3289  -21.1401 N.pl3   1  UNL1       -0.3040
     16 C         -61.7671  -40.1661  -20.8908 C.3     1  UNL1        0.1122
     17 C         -62.5900  -38.8732  -20.8383 C.3     1  UNL1        0.1123
     18 C         -66.3474  -35.6929  -19.3857 C.ar    1  UNL1        0.1523
     19 C         -66.7788  -36.7792  -20.1722 C.ar    1  UNL1        0.0759
     20 C         -65.9368  -37.8876  -20.3904 C.ar    1  UNL1        0.1550
     21 C         -64.6593  -37.9063  -19.8053 C.ar    1  UNL1        0.0834
     22 C         -64.2287  -36.8230  -19.0301 C.ar    1  UNL1        0.0321
     23 C         -65.0652  -35.7245  -18.8196 C.ar    1  UNL1        0.0929
     24 CL        -64.4916  -34.3866  -17.8353 Cl      1  UNL1       -0.0790
     25 C         -68.5810  -34.5699  -19.2459 C.3     1  UNL1        0.2525
     26 O         -67.1603  -34.5726  -19.1491 O.3     1  UNL1       -0.4705
     27 O         -66.3281  -38.9745  -21.1889 O.3     1  UNL1       -0.4701
     28 C         -67.6765  -39.2987  -21.5103 C.3     1  UNL1        0.2525
     29 C         -60.9193  -47.4015  -26.1305 C.3     1  UNL1        0.1535
     30 C         -61.4815  -48.5606  -25.3465 C.2     1  UNL1        0.2443
     31 O         -62.5994  -49.0450  -25.6734 O.2     1  UNL1       -0.2730
     32 N         -60.6918  -49.1728  -24.3132 N.am    1  UNL1       -0.2825
     33 H         -59.7181  -48.8191  -24.1742 H       1  UNL1        0.1549
     34 C         -61.0523  -50.3976  -23.6553 C.ar    1  UNL1        0.0535
     35 C         -60.0483  -51.3071  -23.2968 C.ar    1  UNL1        0.0353
     36 C         -60.3930  -52.5003  -22.6587 C.ar    1  UNL1        0.1002
     37 N         -61.6940  -52.7670  -22.3690 N.ar    1  UNL1       -0.2422
     38 C         -62.6871  -51.8936  -22.6839 C.ar    1  UNL1        0.1002
     39 C         -62.3857  -50.6903  -23.3270 C.ar    1  UNL1        0.0353
     40 C         -61.4874  -47.3936  -27.5638 C.3     1  UNL1        0.0569
     41 C         -60.7767  -46.3974  -28.4377 C.ar    1  UNL1       -0.0017
     42 C         -59.4004  -46.2939  -28.6164 C.ar    1  UNL1        0.0681
     43 N         -59.1151  -45.3828  -29.5743 N.ar    1  UNL1       -0.3523
     44 C         -60.2988  -44.9206  -30.0126 C.ar    1  UNL1        0.0563
     45 C         -60.5185  -43.9985  -31.0349 C.ar    1  UNL1        0.0170
     46 C         -61.8502  -43.6904  -31.3681 C.ar    1  UNL1        0.0015
     47 C         -62.9201  -44.3056  -30.6816 C.ar    1  UNL1        0.0001
     48 C         -62.6685  -45.2333  -29.6548 C.ar    1  UNL1        0.0012
     49 C         -61.3376  -45.5166  -29.3441 C.ar    1  UNL1        0.0131
     50 H         -58.1667  -45.1181  -29.9220 H       1  UNL1        0.1660
@<TRIPOS>BOND
     1    25    26    1
     2    26    18    1
     3    18    19   ar
     4    19    20   ar
     5    20    27    1
     6    27    28    1
     7    20    21   ar
     8    21    12    1
     9    12    13    1
    10    13    14    1
    11    14    15    1
    12    15     5    1
    13     5     6   ar
    14     6     7   ar
    15     7     8   ar
    16     8     1    1
    17     1     2    2
    18     1     3   am
    19     3    29    1
    20    29    40    1
    21    40    41    1
    22    41    42   ar
    23    42    43   ar
    24    43    44   ar
    25    44    45   ar
    26    45    46   ar
    27    46    47   ar
    28    47    48   ar
    29    48    49   ar
    30    29    30    1
    31    30    31    2
    32    30    32   am
    33    32    34    1
    34    34    35   ar
    35    35    36   ar
    36    36    37   ar
    37    37    38   ar
    38    38    39   ar
    39     8     9   ar
    40     9    10    1
    41     9    11   ar
    42    15    16    1
    43    16    17    1
    44    21    22   ar
    45    22    23   ar
    46    23    24    1
    47    23    18   ar
    48    17    12    1
    49    11     5   ar
    50    49    41   ar
    51    39    34   ar
    52    49    44   ar
    53     3     4    1
    54    43    50    1
    55    32    33    1
@<TRIPOS>MOLECULE
*****
 50 55 0 0 0
SMALL
GASTEIGER

@<TRIPOS>ATOM
      1 C         -61.0484  -50.1210  -23.5124 C.2     1  UNL1        0.2483
      2 O         -59.9027  -50.5910  -23.7537 O.2     1  UNL1       -0.2701
      3 N         -61.1893  -48.7377  -23.1504 N.am    1  UNL1       -0.2945
      4 H         -62.0942  -48.4160  -22.7377 H       1  UNL1        0.1501
      5 C         -64.5031  -52.6841  -23.7266 C.ar    1  UNL1        0.0502
      6 C         -64.5086  -51.4119  -24.3241 C.ar    1  UNL1        0.0148
      7 C         -63.3852  -50.5853  -24.2465 C.ar    1  UNL1        0.0080
      8 C         -62.2270  -51.0141  -23.5786 C.ar    1  UNL1        0.0808
      9 C         -62.2245  -52.2792  -22.9610 C.ar    1  UNL1        0.1457
     10 F         -61.1550  -52.7043  -22.2418 F       1  UNL1       -0.2040
     11 C         -63.3515  -53.1036  -23.0385 C.ar    1  UNL1        0.0443
     12 N         -68.1392  -54.8609  -24.0365 N.pl3   1  UNL1       -0.3017
     13 C         -67.0508  -55.2620  -24.9318 C.3     1  UNL1        0.1123
     14 C         -66.0670  -54.1024  -25.1010 C.3     1  UNL1        0.1122
     15 N         -65.6665  -53.5376  -23.8005 N.pl3   1  UNL1       -0.3040
     16 C         -66.3489  -53.9651  -22.5681 C.3     1  UNL1        0.1122
     17 C         -67.8566  -54.1147  -22.8038 C.3     1  UNL1        0.1123
     18 C         -72.1761  -55.6090  -25.1338 C.ar    1  UNL1        0.1523
     19 C         -71.5254  -56.4570  -24.2161 C.ar    1  UNL1        0.0759
     20 C         -70.1848  -56.2252  -23.8495 C.ar    1  UNL1        0.1550
     21 C         -69.5007  -55.1289  -24.4015 C.ar    1  UNL1        0.0834
     22 C         -70.1460  -54.2912  -25.3190 C.ar    1  UNL1        0.0321
     23 C         -71.4738  -54.5270  -25.6827 C.ar    1  UNL1        0.0929
     24 CL        -72.2517  -53.4497  -26.8325 Cl      1  UNL1       -0.0790
     25 C         -74.5535  -56.2243  -24.6442 C.3     1  UNL1        0.2525
     26 O         -73.5105  -55.8118  -25.5216 O.3     1  UNL1       -0.4705
     27 O         -69.5009  -57.0659  -22.9564 O.3     1  UNL1       -0.4701
     28 C         -69.8379  -57.2337  -21.5834 C.3     1  UNL1        0.2525
     29 C         -60.0820  -47.7850  -23.2845 C.3     1  UNL1        0.1535
     30 C         -60.4411  -46.7201  -24.2901 C.2     1  UNL1        0.2443
     31 O         -59.5959  -46.3834  -25.1638 O.2     1  UNL1       -0.2730
     32 N         -61.7743  -46.1833  -24.3155 N.am    1  UNL1       -0.2825
     33 H         -62.4745  -46.5948  -23.6575 H       1  UNL1        0.1549
     34 C         -62.2671  -45.3232  -25.3548 C.ar    1  UNL1        0.0535
     35 C         -62.1192  -43.9355  -25.2271 C.ar    1  UNL1        0.0353
     36 C         -62.5981  -43.0944  -26.2336 C.ar    1  UNL1        0.1002
     37 N         -63.1855  -43.6217  -27.3402 N.ar    1  UNL1       -0.2422
     38 C         -63.3223  -44.9644  -27.5024 C.ar    1  UNL1        0.1002
     39 C         -62.8609  -45.8411  -26.5170 C.ar    1  UNL1        0.0353
     40 C         -59.7522  -47.1487  -21.9195 C.3     1  UNL1        0.0569
     41 C         -59.4908  -45.6731  -22.0429 C.ar    1  UNL1       -0.0017
     42 C         -58.3315  -45.0811  -22.5352 C.ar    1  UNL1        0.0681
     43 N         -58.4897  -43.7416  -22.6341 N.ar    1  UNL1       -0.3523
     44 C         -59.7433  -43.4836  -22.2229 C.ar    1  UNL1        0.0563
     45 C         -60.3836  -42.2456  -22.1930 C.ar    1  UNL1        0.0170
     46 C         -61.7249  -42.2086  -21.7701 C.ar    1  UNL1        0.0015
     47 C         -62.3892  -43.3966  -21.3932 C.ar    1  UNL1        0.0001
     48 C         -61.7182  -44.6320  -21.4343 C.ar    1  UNL1        0.0012
     49 C         -60.3874  -44.6373  -21.8548 C.ar    1  UNL1        0.0131
     50 H         -57.7882  -43.0542  -22.9886 H       1  UNL1        0.1660
@<TRIPOS>BOND
     1    25    26    1
     2    26    18    1
     3    18    19   ar
     4    19    20   ar
     5    20    27    1
     6    27    28    1
     7    20    21   ar
     8    21    12    1
     9    12    13    1
    10    13    14    1
    11    14    15    1
    12    15     5    1
    13     5     6   ar
    14     6     7   ar
    15     7     8   ar
    16     8     1    1
    17     1     2    2
    18     1     3   am
    19     3    29    1
    20    29    40    1
    21    40    41    1
    22    41    42   ar
    23    42    43   ar
    24    43    44   ar
    25    44    45   ar
    26    45    46   ar
    27    46    47   ar
    28    47    48   ar
    29    48    49   ar
    30    29    30    1
    31    30    31    2
    32    30    32   am
    33    32    34    1
    34    34    35   ar
    35    35    36   ar
    36    36    37   ar
    37    37    38   ar
    38    38    39   ar
    39     8     9   ar
    40     9    10    1
    41     9    11   ar
    42    15    16    1
    43    16    17    1
    44    21    22   ar
    45    22    23   ar
    46    23    24    1
    47    23    18   ar
    48    17    12    1
    49    11     5   ar
    50    49    41   ar
    51    39    34   ar
    52    49    44   ar
    53     3     4    1
    54    43    50    1
    55    32    33    1
@<TRIPOS>MOLECULE
*****
 50 55 0 0 0
SMALL
GASTEIGER

@<TRIPOS>ATOM
      1 C         -62.0307  -45.7128  -26.6375 C.2     1  UNL1        0.2483
      2 O         -60.8737  -46.1112  -26.9450 O.2     1  UNL1       -0.2701
      3 N         -63.1695  -46.2033  -27.3634 N.am    1  UNL1       -0.2945
      4 H         -64.0838  -45.7076  -27.2585 H       1  UNL1        0.1501
      5 C         -62.4881  -42.8638  -23.4399 C.ar    1  UNL1        0.0502
      6 C         -62.0905  -44.1864  -23.1785 C.ar    1  UNL1        0.0148
      7 C         -61.9484  -45.1052  -24.2210 C.ar    1  UNL1        0.0080
      8 C         -62.1908  -44.7217  -25.5498 C.ar    1  UNL1        0.0808
      9 C         -62.6092  -43.4036  -25.8139 C.ar    1  UNL1        0.1457
     10 F         -62.9263  -43.0096  -27.0733 F       1  UNL1       -0.2040
     11 C         -62.7527  -42.4866  -24.7678 C.ar    1  UNL1        0.0443
     12 N         -62.9881  -39.7843  -20.5551 N.pl3   1  UNL1       -0.3017
     13 C         -63.9449  -40.8931  -20.5103 C.3     1  UNL1        0.1123
     14 C         -63.9927  -41.5897  -21.8718 C.3     1  UNL1        0.1122
     15 N         -62.6417  -41.9142  -22.3620 N.pl3   1  UNL1       -0.3040
     16 C         -61.4568  -41.3980  -21.6573 C.3     1  UNL1        0.1122
     17 C         -61.6805  -39.9509  -21.2022 C.3     1  UNL1        0.1123
     18 C         -64.0375  -35.9626  -19.0210 C.ar    1  UNL1        0.1523
     19 C         -64.7453  -37.1080  -18.6068 C.ar    1  UNL1        0.0759
     20 C         -64.4132  -38.3802  -19.1134 C.ar    1  UNL1        0.1550
     21 C         -63.3570  -38.4999  -20.0325 C.ar    1  UNL1        0.0834
     22 C         -62.6591  -37.3600  -20.4491 C.ar    1  UNL1        0.0321
     23 C         -62.9943  -36.1004  -19.9474 C.ar    1  UNL1        0.0929
     24 CL        -62.0910  -34.6938  -20.4892 Cl      1  UNL1       -0.0790
     25 C         -65.6548  -34.2289  -18.2156 C.3     1  UNL1        0.2525
     26 O         -64.3430  -34.6802  -18.5371 O.3     1  UNL1       -0.4705
     27 O         -65.1151  -39.5375  -18.7391 O.3     1  UNL1       -0.4701
     28 C         -64.9277  -40.2368  -17.5133 C.3     1  UNL1        0.2525
     29 C         -63.0682  -47.3349  -28.2912 C.3     1  UNL1        0.1535
     30 C         -63.2866  -48.6285  -27.5476 C.2     1  UNL1        0.2443
     31 O         -63.3288  -49.7128  -28.1908 O.2     1  UNL1       -0.2730
     32 N         -63.3300  -48.6269  -26.1108 N.am    1  UNL1       -0.2825
     33 H         -63.1540  -47.7199  -25.6221 H       1  UNL1        0.1549
     34 C         -63.3292  -49.8209  -25.3125 C.ar    1  UNL1        0.0535
     35 C         -62.3288  -50.0030  -24.3483 C.ar    1  UNL1        0.0353
     36 C         -62.3221  -51.1627  -23.5706 C.ar    1  UNL1        0.1002
     37 N         -63.2935  -52.0992  -23.7350 N.ar    1  UNL1       -0.2422
     38 C         -64.2896  -51.9395  -24.6463 C.ar    1  UNL1        0.1002
     39 C         -64.3307  -50.7957  -25.4479 C.ar    1  UNL1        0.0353
     40 C         -64.0953  -47.1883  -29.4317 C.3     1  UNL1        0.0569
     41 C         -64.4242  -45.7459  -29.7012 C.ar    1  UNL1       -0.0017
     42 C         -65.6299  -45.1105  -29.4199 C.ar    1  UNL1        0.0681
     43 N         -65.5332  -43.7835  -29.6629 N.ar    1  UNL1       -0.3523
     44 C         -64.2731  -43.5727  -30.0810 C.ar    1  UNL1        0.0563
     45 C         -63.6847  -42.3510  -30.4049 C.ar    1  UNL1        0.0170
     46 C         -62.3272  -42.3520  -30.7742 C.ar    1  UNL1        0.0015
     47 C         -61.5960  -43.5598  -30.8088 C.ar    1  UNL1        0.0001
     48 C         -62.2156  -44.7777  -30.4759 C.ar    1  UNL1        0.0012
     49 C         -63.5639  -44.7462  -30.1166 C.ar    1  UNL1        0.0131
     50 H         -66.2795  -43.0667  -29.5227 H       1  UNL1        0.1660
@<TRIPOS>BOND
     1    25    26    1
     2    26    18    1
     3    18    19   ar
     4    19    20   ar
     5    20    27    1
     6    27    28    1
     7    20    21   ar
     8    21    12    1
     9    12    13    1
    10    13    14    1
    11    14    15    1
    12    15     5    1
    13     5     6   ar
    14     6     7   ar
    15     7     8   ar
    16     8     1    1
    17     1     2    2
    18     1     3   am
    19     3    29    1
    20    29    40    1
    21    40    41    1
    22    41    42   ar
    23    42    43   ar
    24    43    44   ar
    25    44    45   ar
    26    45    46   ar
    27    46    47   ar
    28    47    48   ar
    29    48    49   ar
    30    29    30    1
    31    30    31    2
    32    30    32   am
    33    32    34    1
    34    34    35   ar
    35    35    36   ar
    36    36    37   ar
    37    37    38   ar
    38    38    39   ar
    39     8     9   ar
    40     9    10    1
    41     9    11   ar
    42    15    16    1
    43    16    17    1
    44    21    22   ar
    45    22    23   ar
    46    23    24    1
    47    23    18   ar
    48    17    12    1
    49    11     5   ar
    50    49    41   ar
    51    39    34   ar
    52    49    44   ar
    53     3     4    1
    54    43    50    1
    55    32    33    1
@<TRIPOS>MOLECULE
*****
 50 55 0 0 0
SMALL
GASTEIGER

@<TRIPOS>ATOM
      1 C         -61.0606  -45.8950  -24.7045 C.2     1  UNL1        0.2483
      2 O         -59.9014  -46.3630  -24.5338 O.2     1  UNL1       -0.2701
      3 N         -61.9112  -46.4515  -25.7200 N.am    1  UNL1       -0.2945
      4 H         -62.7661  -45.9219  -26.0049 H       1  UNL1        0.1501
      5 C         -62.3876  -42.6174  -22.2456 C.ar    1  UNL1        0.0502
      6 C         -62.3134  -43.9233  -21.7311 C.ar    1  UNL1        0.0148
      7 C         -61.8857  -44.9813  -22.5366 C.ar    1  UNL1        0.0080
      8 C         -61.5131  -44.7579  -23.8719 C.ar    1  UNL1        0.0808
      9 C         -61.6056  -43.4550  -24.3970 C.ar    1  UNL1        0.1457
     10 F         -61.3273  -43.2054  -25.7017 F       1  UNL1       -0.2040
     11 C         -62.0363  -42.3981  -23.5888 C.ar    1  UNL1        0.0443
     12 N         -63.8724  -39.2386  -20.1397 N.pl3   1  UNL1       -0.3017
     13 C         -64.3368  -40.5536  -19.6902 C.3     1  UNL1        0.1123
     14 C         -64.1841  -41.5706  -20.8232 C.3     1  UNL1        0.1122
     15 N         -62.8359  -41.5231  -21.4155 N.pl3   1  UNL1       -0.3040
     16 C         -61.9007  -40.4508  -21.0377 C.3     1  UNL1        0.1122
     17 C         -62.6316  -39.1085  -20.9140 C.3     1  UNL1        0.1123
     18 C         -66.2167  -35.7801  -19.3629 C.ar    1  UNL1        0.1523
     19 C         -66.7063  -36.7872  -20.2177 C.ar    1  UNL1        0.0759
     20 C         -65.9363  -37.9353  -20.4902 C.ar    1  UNL1        0.1550
     21 C         -64.6730  -38.0741  -19.8908 C.ar    1  UNL1        0.0834
     22 C         -64.1843  -37.0693  -19.0474 C.ar    1  UNL1        0.0321
     23 C         -64.9492  -35.9309  -18.7832 C.ar    1  UNL1        0.0929
     24 CL        -64.3045  -34.6942  -17.7142 Cl      1  UNL1       -0.0790
     25 C         -68.3771  -34.5356  -19.1312 C.3     1  UNL1        0.2525
     26 O         -66.9571  -34.6231  -19.0710 O.3     1  UNL1       -0.4705
     27 O         -66.3857  -38.9451  -21.3565 O.3     1  UNL1       -0.4701
     28 C         -67.6975  -39.4978  -21.3439 C.3     1  UNL1        0.2525
     29 C         -61.5794  -47.7038  -26.4080 C.3     1  UNL1        0.1535
     30 C         -61.9145  -48.8786  -25.5239 C.2     1  UNL1        0.2443
     31 O         -62.9258  -49.5845  -25.7892 O.2     1  UNL1       -0.2730
     32 N         -61.0203  -49.2499  -24.4615 N.am    1  UNL1       -0.2825
     33 H         -60.1277  -48.7138  -24.3703 H       1  UNL1        0.1549
     34 C         -61.1457  -50.4625  -23.7020 C.ar    1  UNL1        0.0535
     35 C         -62.4164  -50.8921  -23.2967 C.ar    1  UNL1        0.0353
     36 C         -62.5440  -52.0693  -22.5566 C.ar    1  UNL1        0.1002
     37 N         -61.4425  -52.8042  -22.2498 N.ar    1  UNL1       -0.2422
     38 C         -60.1996  -52.4247  -22.6489 C.ar    1  UNL1        0.1002
     39 C         -60.0273  -51.2511  -23.3873 C.ar    1  UNL1        0.0353
     40 C         -62.3409  -47.8003  -27.7451 C.3     1  UNL1        0.0569
     41 C         -62.7973  -46.4498  -28.2233 C.ar    1  UNL1       -0.0017
     42 C         -64.0914  -45.9436  -28.1460 C.ar    1  UNL1        0.0681
     43 N         -64.1178  -44.6504  -28.5409 N.ar    1  UNL1       -0.3523
     44 C         -62.8499  -44.3306  -28.8529 C.ar    1  UNL1        0.0563
     45 C         -62.3699  -43.0883  -29.2651 C.ar    1  UNL1        0.0170
     46 C         -60.9875  -42.9597  -29.4929 C.ar    1  UNL1        0.0015
     47 C         -60.1256  -44.0623  -29.3035 C.ar    1  UNL1        0.0001
     48 C         -60.6379  -45.3038  -28.8860 C.ar    1  UNL1        0.0012
     49 C         -62.0134  -45.4023  -28.6709 C.ar    1  UNL1        0.0131
     50 H         -64.9513  -44.0219  -28.5666 H       1  UNL1        0.1660
@<TRIPOS>BOND
     1    25    26    1
     2    26    18    1
     3    18    19   ar
     4    19    20   ar
     5    20    27    1
     6    27    28    1
     7    20    21   ar
     8    21    12    1
     9    12    13    1
    10    13    14    1
    11    14    15    1
    12    15     5    1
    13     5     6   ar
    14     6     7   ar
    15     7     8   ar
    16     8     1    1
    17     1     2    2
    18     1     3   am
    19     3    29    1
    20    29    40    1
    21    40    41    1
    22    41    42   ar
    23    42    43   ar
    24    43    44   ar
    25    44    45   ar
    26    45    46   ar
    27    46    47   ar
    28    47    48   ar
    29    48    49   ar
    30    29    30    1
    31    30    31    2
    32    30    32   am
    33    32    34    1
    34    34    35   ar
    35    35    36   ar
    36    36    37   ar
    37    37    38   ar
    38    38    39   ar
    39     8     9   ar
    40     9    10    1
    41     9    11   ar
    42    15    16    1
    43    16    17    1
    44    21    22   ar
    45    22    23   ar
    46    23    24    1
    47    23    18   ar
    48    17    12    1
    49    11     5   ar
    50    49    41   ar
    51    39    34   ar
    52    49    44   ar
    53     3     4    1
    54    43    50    1
    55    32    33    1
@<TRIPOS>MOLECULE
*****
 50 55 0 0 0
SMALL
GASTEIGER

@<TRIPOS>ATOM
      1 C         -59.9361  -46.2848  -23.6161 C.2     1  UNL1        0.2483
      2 O         -58.7143  -46.3081  -23.9302 O.2     1  UNL1       -0.2701
      3 N         -60.5319  -45.0585  -23.1626 N.am    1  UNL1       -0.2945
      4 H         -61.4665  -45.0965  -22.6961 H       1  UNL1        0.1501
      5 C         -62.2059  -49.9397  -23.8157 C.ar    1  UNL1        0.0502
      6 C         -61.0081  -49.8716  -23.0835 C.ar    1  UNL1        0.0148
      7 C         -60.2760  -48.6833  -23.0271 C.ar    1  UNL1        0.0080
      8 C         -60.7282  -47.5328  -23.6931 C.ar    1  UNL1        0.0808
      9 C         -61.9167  -47.6024  -24.4446 C.ar    1  UNL1        0.1457
     10 F         -62.3523  -46.5376  -25.1645 F       1  UNL1       -0.2040
     11 C         -62.6463  -48.7942  -24.5009 C.ar    1  UNL1        0.0443
     12 N         -64.6228  -53.4316  -23.6713 N.pl3   1  UNL1       -0.3017
     13 C         -64.7141  -52.6148  -24.8843 C.3     1  UNL1        0.1123
     14 C         -64.2569  -51.1864  -24.5810 C.3     1  UNL1        0.1122
     15 N         -62.9610  -51.1698  -23.8802 N.pl3   1  UNL1       -0.3040
     16 C         -62.3703  -52.4260  -23.3901 C.3     1  UNL1        0.1122
     17 C         -63.4485  -53.3394  -22.7946 C.3     1  UNL1        0.1123
     18 C         -67.8543  -55.9325  -22.5037 C.ar    1  UNL1        0.1523
     19 C         -67.6735  -55.6003  -23.8607 C.ar    1  UNL1        0.0759
     20 C         -66.6110  -54.7658  -24.2609 C.ar    1  UNL1        0.1550
     21 C         -65.7213  -54.2728  -23.2914 C.ar    1  UNL1        0.0834
     22 C         -65.9063  -54.5974  -21.9422 C.ar    1  UNL1        0.0321
     23 C         -66.9632  -55.4217  -21.5494 C.ar    1  UNL1        0.0929
     24 CL        -67.1590  -55.8121  -19.8473 Cl      1  UNL1       -0.0790
     25 C         -70.2791  -56.3952  -22.0837 C.3     1  UNL1        0.2525
     26 O         -68.9027  -56.7602  -22.0706 O.3     1  UNL1       -0.4705
     27 O         -66.4182  -54.3968  -25.6021 O.3     1  UNL1       -0.4701
     28 C         -67.1642  -54.9135  -26.6990 C.3     1  UNL1        0.2525
     29 C         -59.8389  -43.7710  -23.2789 C.3     1  UNL1        0.1535
     30 C         -60.6646  -42.8173  -24.1052 C.2     1  UNL1        0.2443
     31 O         -60.0850  -41.9361  -24.7972 O.2     1  UNL1       -0.2730
     32 N         -62.0890  -42.9925  -24.1861 N.am    1  UNL1       -0.2825
     33 H         -62.5032  -43.8210  -23.7017 H       1  UNL1        0.1549
     34 C         -62.9299  -42.2696  -25.0989 C.ar    1  UNL1        0.0535
     35 C         -63.8513  -41.3407  -24.5967 C.ar    1  UNL1        0.0353
     36 C         -64.6727  -40.6364  -25.4793 C.ar    1  UNL1        0.1002
     37 N         -64.5632  -40.8368  -26.8193 N.ar    1  UNL1       -0.2422
     38 C         -63.6630  -41.7142  -27.3368 C.ar    1  UNL1        0.1002
     39 C         -62.8253  -42.4427  -26.4884 C.ar    1  UNL1        0.0353
     40 C         -59.5678  -43.1785  -21.8815 C.3     1  UNL1        0.0569
     41 C         -60.7836  -42.4914  -21.3240 C.ar    1  UNL1       -0.0017
     42 C         -60.9746  -41.1172  -21.2149 C.ar    1  UNL1        0.0681
     43 N         -62.2329  -40.8461  -20.7998 N.ar    1  UNL1       -0.3523
     44 C         -62.8430  -42.0357  -20.6600 C.ar    1  UNL1        0.0563
     45 C         -64.1695  -42.2665  -20.2982 C.ar    1  UNL1        0.0170
     46 C         -64.6189  -43.5991  -20.2605 C.ar    1  UNL1        0.0015
     47 C         -63.7432  -44.6589  -20.5838 C.ar    1  UNL1        0.0001
     48 C         -62.4099  -44.3961  -20.9464 C.ar    1  UNL1        0.0012
     49 C         -61.9916  -43.0648  -20.9719 C.ar    1  UNL1        0.0131
     50 H         -62.6514  -39.9012  -20.6500 H       1  UNL1        0.1660
@<TRIPOS>BOND
     1    25    26    1
     2    26    18    1
     3    18    19   ar
     4    19    20   ar
     5    20    27    1
     6    27    28    1
     7    20    21   ar
     8    21    12    1
     9    12    13    1
    10    13    14    1
    11    14    15    1
    12    15     5    1
    13     5     6   ar
    14     6     7   ar
    15     7     8   ar
    16     8     1    1
    17     1     2    2
    18     1     3   am
    19     3    29    1
    20    29    40    1
    21    40    41    1
    22    41    42   ar
    23    42    43   ar
    24    43    44   ar
    25    44    45   ar
    26    45    46   ar
    27    46    47   ar
    28    47    48   ar
    29    48    49   ar
    30    29    30    1
    31    30    31    2
    32    30    32   am
    33    32    34    1
    34    34    35   ar
    35    35    36   ar
    36    36    37   ar
    37    37    38   ar
    38    38    39   ar
    39     8     9   ar
    40     9    10    1
    41     9    11   ar
    42    15    16    1
    43    16    17    1
    44    21    22   ar
    45    22    23   ar
    46    23    24    1
    47    23    18   ar
    48    17    12    1
    49    11     5   ar
    50    49    41   ar
    51    39    34   ar
    52    49    44   ar
    53     3     4    1
    54    43    50    1
    55    32    33    1
@<TRIPOS>MOLECULE
*****
 50 55 0 0 0
SMALL
GASTEIGER

@<TRIPOS>ATOM
      1 C         -60.7526  -44.3556  -27.1709 C.2     1  UNL1        0.2483
      2 O         -60.4373  -45.5690  -27.0299 O.2     1  UNL1       -0.2701
      3 N         -60.5976  -43.7234  -28.4518 N.am    1  UNL1       -0.2945
      4 H         -60.6431  -42.6805  -28.5062 H       1  UNL1        0.1501
      5 C         -62.1643  -42.1608  -23.7445 C.ar    1  UNL1        0.0502
      6 C         -60.9457  -42.8599  -23.7034 C.ar    1  UNL1        0.0148
      7 C         -60.4970  -43.5725  -24.8179 C.ar    1  UNL1        0.0080
      8 C         -61.2506  -43.5955  -26.0025 C.ar    1  UNL1        0.0808
      9 C         -62.4817  -42.9136  -26.0411 C.ar    1  UNL1        0.1457
     10 F         -63.2781  -42.9697  -27.1386 F       1  UNL1       -0.2040
     11 C         -62.9292  -42.2029  -24.9230 C.ar    1  UNL1        0.0443
     12 N         -63.3779  -39.6749  -20.5191 N.pl3   1  UNL1       -0.3017
     13 C         -64.4381  -40.3766  -21.2475 C.3     1  UNL1        0.1123
     14 C         -63.9420  -40.7549  -22.6446 C.3     1  UNL1        0.1122
     15 N         -62.6327  -41.4285  -22.5905 N.pl3   1  UNL1       -0.3040
     16 C         -61.8843  -41.4873  -21.3242 C.3     1  UNL1        0.1122
     17 C         -61.9925  -40.1595  -20.5649 C.3     1  UNL1        0.1123
     18 C         -64.2195  -36.0563  -18.4556 C.ar    1  UNL1        0.1523
     19 C         -64.9067  -37.2384  -18.1165 C.ar    1  UNL1        0.0759
     20 C         -64.6432  -38.4433  -18.7978 C.ar    1  UNL1        0.1550
     21 C         -63.6763  -38.4595  -19.8173 C.ar    1  UNL1        0.0834
     22 C         -62.9993  -37.2826  -20.1585 C.ar    1  UNL1        0.0321
     23 C         -63.2664  -36.0894  -19.4833 C.ar    1  UNL1        0.0929
     24 CL        -62.3916  -34.6342  -19.9357 Cl      1  UNL1       -0.0790
     25 C         -65.6504  -34.0707  -17.9269 C.3     1  UNL1        0.2525
     26 O         -64.4583  -34.8387  -17.7981 O.3     1  UNL1       -0.4705
     27 O         -65.3283  -39.6325  -18.4999 O.3     1  UNL1       -0.4701
     28 C         -64.9021  -40.5934  -17.5398 C.3     1  UNL1        0.2525
     29 C         -60.3151  -44.4944  -29.6673 C.3     1  UNL1        0.1535
     30 C         -60.9507  -45.8583  -29.5684 C.2     1  UNL1        0.2443
     31 O         -60.2245  -46.8869  -29.6458 O.2     1  UNL1       -0.2730
     32 N         -62.3530  -45.9722  -29.2741 N.am    1  UNL1       -0.2825
     33 H         -62.8813  -45.0903  -29.0849 H       1  UNL1        0.1549
     34 C         -63.0030  -47.2142  -28.9610 C.ar    1  UNL1        0.0535
     35 C         -62.6900  -47.8717  -27.7638 C.ar    1  UNL1        0.0353
     36 C         -63.3174  -49.0804  -27.4551 C.ar    1  UNL1        0.1002
     37 N         -64.2419  -49.6042  -28.3028 N.ar    1  UNL1       -0.2422
     38 C         -64.5828  -48.9776  -29.4601 C.ar    1  UNL1        0.1002
     39 C         -63.9754  -47.7686  -29.8088 C.ar    1  UNL1        0.0353
     40 C         -60.8345  -43.7461  -30.9112 C.3     1  UNL1        0.0569
     41 C         -61.9045  -42.7515  -30.5547 C.ar    1  UNL1       -0.0017
     42 C         -61.7212  -41.3901  -30.3321 C.ar    1  UNL1        0.0681
     43 N         -62.9135  -40.7724  -30.1709 N.ar    1  UNL1       -0.3523
     44 C         -63.8489  -41.7286  -30.3043 C.ar    1  UNL1        0.0563
     45 C         -65.2331  -41.5662  -30.2673 C.ar    1  UNL1        0.0170
     46 C         -66.0348  -42.7022  -30.4814 C.ar    1  UNL1        0.0015
     47 C         -65.4420  -43.9602  -30.7273 C.ar    1  UNL1        0.0001
     48 C         -64.0423  -44.0943  -30.7599 C.ar    1  UNL1        0.0012
     49 C         -63.2728  -42.9507  -30.5409 C.ar    1  UNL1        0.0131
     50 H         -63.0721  -39.7534  -30.0074 H       1  UNL1        0.1660
@<TRIPOS>BOND
     1    25    26    1
     2    26    18    1
     3    18    19   ar
     4    19    20   ar
     5    20    27    1
     6    27    28    1
     7    20    21   ar
     8    21    12    1
     9    12    13    1
    10    13    14    1
    11    14    15    1
    12    15     5    1
    13     5     6   ar
    14     6     7   ar
    15     7     8   ar
    16     8     1    1
    17     1     2    2
    18     1     3   am
    19     3    29    1
    20    29    40    1
    21    40    41    1
    22    41    42   ar
    23    42    43   ar
    24    43    44   ar
    25    44    45   ar
    26    45    46   ar
    27    46    47   ar
    28    47    48   ar
    29    48    49   ar
    30    29    30    1
    31    30    31    2
    32    30    32   am
    33    32    34    1
    34    34    35   ar
    35    35    36   ar
    36    36    37   ar
    37    37    38   ar
    38    38    39   ar
    39     8     9   ar
    40     9    10    1
    41     9    11   ar
    42    15    16    1
    43    16    17    1
    44    21    22   ar
    45    22    23   ar
    46    23    24    1
    47    23    18   ar
    48    17    12    1
    49    11     5   ar
    50    49    41   ar
    51    39    34   ar
    52    49    44   ar
    53     3     4    1
    54    43    50    1
    55    32    33    1
@<TRIPOS>MOLECULE
*****
 50 55 0 0 0
SMALL
GASTEIGER

@<TRIPOS>ATOM
      1 C         -61.1562  -44.1779  -25.2841 C.2     1  UNL1        0.2483
      2 O         -60.2146  -44.9456  -24.9437 O.2     1  UNL1       -0.2701
      3 N         -61.7105  -44.2730  -26.6063 N.am    1  UNL1       -0.2945
      4 H         -62.3214  -43.4984  -26.9518 H       1  UNL1        0.1501
      5 C         -62.5691  -41.2580  -22.4507 C.ar    1  UNL1        0.0502
      6 C         -61.3788  -41.9699  -22.2225 C.ar    1  UNL1        0.0148
      7 C         -60.9297  -42.9180  -23.1448 C.ar    1  UNL1        0.0080
      8 C         -61.6541  -43.1703  -24.3209 C.ar    1  UNL1        0.0808
      9 C         -62.8576  -42.4744  -24.5433 C.ar    1  UNL1        0.1457
     10 F         -63.6282  -42.7391  -25.6287 F       1  UNL1       -0.2040
     11 C         -63.3057  -41.5273  -23.6170 C.ar    1  UNL1        0.0443
     12 N         -64.0892  -38.1725  -19.9558 N.pl3   1  UNL1       -0.3017
     13 C         -64.6173  -39.5212  -19.7346 C.3     1  UNL1        0.1123
     14 C         -64.4218  -40.3659  -20.9954 C.3     1  UNL1        0.1122
     15 N         -63.0382  -40.2816  -21.4946 N.pl3   1  UNL1       -0.3040
     16 C         -62.0992  -39.3116  -20.9078 C.3     1  UNL1        0.1122
     17 C         -62.7989  -37.9760  -20.6286 C.3     1  UNL1        0.1123
     18 C         -66.4375  -34.7952  -18.8880 C.ar    1  UNL1        0.1523
     19 C         -65.0886  -34.8717  -18.4888 C.ar    1  UNL1        0.0759
     20 C         -64.3008  -35.9892  -18.8292 C.ar    1  UNL1        0.1550
     21 C         -64.8712  -37.0285  -19.5835 C.ar    1  UNL1        0.0834
     22 C         -66.2138  -36.9550  -19.9733 C.ar    1  UNL1        0.0321
     23 C         -66.9922  -35.8472  -19.6304 C.ar    1  UNL1        0.0929
     24 CL        -68.6719  -35.7881  -20.1433 Cl      1  UNL1       -0.0790
     25 C         -68.6015  -33.7935  -18.1243 C.3     1  UNL1        0.2525
     26 O         -67.2509  -33.6971  -18.5651 O.3     1  UNL1       -0.4705
     27 O         -62.9607  -36.1064  -18.4258 O.3     1  UNL1       -0.4701
     28 C         -61.9673  -35.1048  -18.6172 C.3     1  UNL1        0.2525
     29 C         -61.3917  -45.3903  -27.5016 C.3     1  UNL1        0.1535
     30 C         -62.0477  -46.6522  -27.0000 C.2     1  UNL1        0.2443
     31 O         -62.4818  -47.4964  -27.8307 O.2     1  UNL1       -0.2730
     32 N         -62.0696  -46.9332  -25.5906 N.am    1  UNL1       -0.2825
     33 H         -61.5755  -46.2655  -24.9560 H       1  UNL1        0.1549
     34 C         -62.4846  -48.1912  -25.0355 C.ar    1  UNL1        0.0535
     35 C         -61.5681  -48.9541  -24.2993 C.ar    1  UNL1        0.0353
     36 C         -61.9656  -50.1787  -23.7589 C.ar    1  UNL1        0.1002
     37 N         -63.2409  -50.6170  -23.9293 N.ar    1  UNL1       -0.2422
     38 C         -64.1582  -49.8882  -24.6189 C.ar    1  UNL1        0.1002
     39 C         -63.8004  -48.6595  -25.1797 C.ar    1  UNL1        0.0353
     40 C         -61.8541  -45.0763  -28.9385 C.3     1  UNL1        0.0569
     41 C         -60.6886  -44.9242  -29.8764 C.ar    1  UNL1       -0.0017
     42 C         -59.4113  -45.4453  -29.6930 C.ar    1  UNL1        0.0681
     43 N         -58.6529  -45.2367  -30.7932 N.ar    1  UNL1       -0.3523
     44 C         -59.4438  -44.6017  -31.6754 C.ar    1  UNL1        0.0563
     45 C         -59.1200  -44.2194  -32.9764 C.ar    1  UNL1        0.0170
     46 C         -60.1221  -43.6067  -33.7508 C.ar    1  UNL1        0.0015
     47 C         -61.4112  -43.3945  -33.2145 C.ar    1  UNL1        0.0001
     48 C         -61.7099  -43.7916  -31.8987 C.ar    1  UNL1        0.0012
     49 C         -60.6951  -44.3939  -31.1534 C.ar    1  UNL1        0.0131
     50 H         -57.6633  -45.5377  -30.9360 H       1  UNL1        0.1660
@<TRIPOS>BOND
     1    25    26    1
     2    26    18    1
     3    18    19   ar
     4    19    20   ar
     5    20    27    1
     6    27    28    1
     7    20    21   ar
     8    21    12    1
     9    12    13    1
    10    13    14    1
    11    14    15    1
    12    15     5    1
    13     5     6   ar
    14     6     7   ar
    15     7     8   ar
    16     8     1    1
    17     1     2    2
    18     1     3   am
    19     3    29    1
    20    29    40    1
    21    40    41    1
    22    41    42   ar
    23    42    43   ar
    24    43    44   ar
    25    44    45   ar
    26    45    46   ar
    27    46    47   ar
    28    47    48   ar
    29    48    49   ar
    30    29    30    1
    31    30    31    2
    32    30    32   am
    33    32    34    1
    34    34    35   ar
    35    35    36   ar
    36    36    37   ar
    37    37    38   ar
    38    38    39   ar
    39     8     9   ar
    40     9    10    1
    41     9    11   ar
    42    15    16    1
    43    16    17    1
    44    21    22   ar
    45    22    23   ar
    46    23    24    1
    47    23    18   ar
    48    17    12    1
    49    11     5   ar
    50    49    41   ar
    51    39    34   ar
    52    49    44   ar
    53     3     4    1
    54    43    50    1
    55    32    33    1
@<TRIPOS>MOLECULE
*****
 50 55 0 0 0
SMALL
GASTEIGER

@<TRIPOS>ATOM
      1 C         -60.6792  -46.0571  -24.6258 C.2     1  UNL1        0.2483
      2 O         -59.5344  -45.8830  -24.1249 O.2     1  UNL1       -0.2701
      3 N         -61.3421  -44.9658  -25.2847 N.am    1  UNL1       -0.2945
      4 H         -62.3630  -45.0498  -25.4924 H       1  UNL1        0.1501
      5 C         -62.6209  -49.8856  -24.2762 C.ar    1  UNL1        0.0502
      6 C         -63.2621  -48.8046  -24.9054 C.ar    1  UNL1        0.0148
      7 C         -62.6267  -47.5651  -25.0111 C.ar    1  UNL1        0.0080
      8 C         -61.3325  -47.3792  -24.4991 C.ar    1  UNL1        0.0808
      9 C         -60.6950  -48.4535  -23.8498 C.ar    1  UNL1        0.1457
     10 F         -59.4754  -48.2988  -23.2748 F       1  UNL1       -0.2040
     11 C         -61.3345  -49.6927  -23.7437 C.ar    1  UNL1        0.0443
     12 N         -64.7791  -53.4895  -23.6357 N.pl3   1  UNL1       -0.3017
     13 C         -64.8677  -52.8950  -24.9720 C.3     1  UNL1        0.1123
     14 C         -64.5328  -51.4039  -24.8975 C.3     1  UNL1        0.1122
     15 N         -63.2793  -51.1665  -24.1604 N.pl3   1  UNL1       -0.3040
     16 C         -62.6240  -52.2721  -23.4427 C.3     1  UNL1        0.1122
     17 C         -63.6613  -53.1584  -22.7429 C.3     1  UNL1        0.1123
     18 C         -67.8700  -56.0222  -22.1892 C.ar    1  UNL1        0.1523
     19 C         -67.7718  -55.7446  -23.5669 C.ar    1  UNL1        0.0759
     20 C         -66.7568  -54.9003  -24.0592 C.ar    1  UNL1        0.1550
     21 C         -65.8310  -54.3422  -23.1613 C.ar    1  UNL1        0.0834
     22 C         -65.9340  -54.6128  -21.7916 C.ar    1  UNL1        0.0321
     23 C         -66.9441  -55.4471  -21.3074 C.ar    1  UNL1        0.0929
     24 CL        -67.0371  -55.7683  -19.5823 Cl      1  UNL1       -0.0790
     25 C         -70.2339  -56.4837  -21.5046 C.3     1  UNL1        0.2525
     26 O         -68.8694  -56.8579  -21.6651 O.3     1  UNL1       -0.4705
     27 O         -66.6468  -54.5848  -25.4232 O.3     1  UNL1       -0.4701
     28 C         -67.5125  -55.0776  -26.4403 C.3     1  UNL1        0.2525
     29 C         -60.6424  -43.7192  -25.6135 C.3     1  UNL1        0.1535
     30 C         -60.7362  -43.4544  -27.0952 C.2     1  UNL1        0.2443
     31 O         -60.7238  -42.2643  -27.5134 O.2     1  UNL1       -0.2730
     32 N         -60.7235  -44.5555  -28.0190 N.am    1  UNL1       -0.2825
     33 H         -60.5956  -45.5157  -27.6261 H       1  UNL1        0.1549
     34 C         -60.6041  -44.4004  -29.4418 C.ar    1  UNL1        0.0535
     35 C         -59.4270  -44.8107  -30.0821 C.ar    1  UNL1        0.0353
     36 C         -59.3047  -44.6605  -31.4650 C.ar    1  UNL1        0.1002
     37 N         -60.3309  -44.1382  -32.1872 N.ar    1  UNL1       -0.2422
     38 C         -61.4932  -43.7526  -31.5969 C.ar    1  UNL1        0.1002
     39 C         -61.6551  -43.8816  -30.2150 C.ar    1  UNL1        0.0353
     40 C         -61.2386  -42.5419  -24.8163 C.3     1  UNL1        0.0569
     41 C         -60.7805  -42.5522  -23.3841 C.ar    1  UNL1       -0.0017
     42 C         -59.5500  -43.0043  -22.9170 C.ar    1  UNL1        0.0681
     43 N         -59.4187  -42.7394  -21.5973 N.ar    1  UNL1       -0.3523
     44 C         -60.5488  -42.1109  -21.2297 C.ar    1  UNL1        0.0563
     45 C         -60.8571  -41.5963  -19.9713 C.ar    1  UNL1        0.0170
     46 C         -62.0847  -40.9267  -19.8170 C.ar    1  UNL1        0.0015
     47 C         -62.9655  -40.7860  -20.9120 C.ar    1  UNL1        0.0001
     48 C         -62.6276  -41.3146  -22.1708 C.ar    1  UNL1        0.0012
     49 C         -61.4048  -41.9764  -22.2929 C.ar    1  UNL1        0.0131
     50 H         -58.5919  -42.9533  -20.9964 H       1  UNL1        0.1660
@<TRIPOS>BOND
     1    25    26    1
     2    26    18    1
     3    18    19   ar
     4    19    20   ar
     5    20    27    1
     6    27    28    1
     7    20    21   ar
     8    21    12    1
     9    12    13    1
    10    13    14    1
    11    14    15    1
    12    15     5    1
    13     5     6   ar
    14     6     7   ar
    15     7     8   ar
    16     8     1    1
    17     1     2    2
    18     1     3   am
    19     3    29    1
    20    29    40    1
    21    40    41    1
    22    41    42   ar
    23    42    43   ar
    24    43    44   ar
    25    44    45   ar
    26    45    46   ar
    27    46    47   ar
    28    47    48   ar
    29    48    49   ar
    30    29    30    1
    31    30    31    2
    32    30    32   am
    33    32    34    1
    34    34    35   ar
    35    35    36   ar
    36    36    37   ar
    37    37    38   ar
    38    38    39   ar
    39     8     9   ar
    40     9    10    1
    41     9    11   ar
    42    15    16    1
    43    16    17    1
    44    21    22   ar
    45    22    23   ar
    46    23    24    1
    47    23    18   ar
    48    17    12    1
    49    11     5   ar
    50    49    41   ar
    51    39    34   ar
    52    49    44   ar
    53     3     4    1
    54    43    50    1
    55    32    33    1
