@<TRIPOS>MOLECULE
*****
 45 49 0 0 0
SMALL
GASTEIGER

@<TRIPOS>ATOM
      1 C         -27.9322   49.5256   -8.0616 C.3     1  UNL1        0.1562
      2 C         -28.2947   50.7996   -7.2874 C.3     1  UNL1        0.0622
      3 C         -28.7951   50.3387   -5.9053 C.3     1  UNL1        0.1294
      4 O         -29.9310   51.0934   -5.5515 O.3     1  UNL1       -0.3808
      5 C         -29.2141   48.8634   -6.1124 C.3     1  UNL1        0.1264
      6 N         -28.6254   48.4393   -7.3740 N.am    1  UNL1       -0.2544
      7 C         -28.7631   47.0928   -7.8748 C.2     1  UNL1        0.3081
      8 O         -28.7849   46.8740   -9.1148 O.2     1  UNL1       -0.2522
      9 N         -28.9396   45.9913   -6.9766 N.am    1  UNL1       -0.2681
     10 H         -30.2873   50.7146   -4.7044 H       1  UNL1        0.2107
     11 H         -29.7077   45.3118   -7.1768 H       1  UNL1        0.1564
     12 C         -27.6701   50.5033   -4.8656 C.ar    1  UNL1        0.0310
     13 C         -27.3906   49.4617   -3.9551 C.ar    1  UNL1        0.0026
     14 C         -26.3597   49.5766   -3.0207 C.ar    1  UNL1        0.0295
     15 C         -25.5621   50.7192   -2.9972 C.ar    1  UNL1        0.1424
     16 F         -24.5580   50.8277   -2.0928 F       1  UNL1       -0.2041
     17 C         -25.7829   51.7397   -3.9221 C.ar    1  UNL1        0.0590
     18 C         -26.8150   51.6340   -4.8612 C.ar    1  UNL1        0.1406
     19 F         -26.9493   52.6307   -5.7720 F       1  UNL1       -0.2044
     20 C         -28.0380   45.7154   -5.8938 C.ar    1  UNL1        0.0516
     21 C         -28.3820   44.8102   -4.8742 C.ar    1  UNL1        0.0156
     22 C         -27.4876   44.5472   -3.8329 C.ar    1  UNL1        0.0127
     23 C         -26.2500   45.1964   -3.7915 C.ar    1  UNL1        0.0578
     24 CL        -25.1260   44.8598   -2.4879 Cl      1  UNL1       -0.0822
     25 C         -25.9122   46.1179   -4.7881 C.ar    1  UNL1        0.0127
     26 C         -26.8053   46.3816   -5.8314 C.ar    1  UNL1        0.0156
     27 N         -27.7572   50.6261  -10.3873 N.am    1  UNL1       -0.2680
     28 C         -28.3290   49.6350   -9.5186 C.2     1  UNL1        0.2454
     29 O         -29.2304   48.8770   -9.9691 O.2     1  UNL1       -0.2730
     30 H         -28.3504   50.9735  -11.1747 H       1  UNL1        0.1563
     31 C         -23.7728   52.0263  -10.1974 C.ar    1  UNL1        0.2465
     32 C         -24.7632   52.6239   -9.4038 C.ar    1  UNL1        0.0736
     33 C         -26.0792   52.1612   -9.4593 C.ar    1  UNL1        0.0406
     34 C         -26.4007   51.0930  -10.3059 C.ar    1  UNL1        0.1346
     35 N         -25.4285   50.5426  -11.0847 N.ar    1  UNL1       -0.2228
     36 C         -24.1410   50.9750  -11.0498 C.ar    1  UNL1        0.1691
     37 C         -20.3090   52.6240   -8.9821 C.2     1  UNL1        0.0476
     38 C         -19.7792   53.3856  -10.0284 C.2     1  UNL1        0.0116
     39 C         -20.5677   53.6897  -11.1349 C.2     1  UNL1        0.1153
     40 C         -21.8902   53.2399  -11.1873 C.2     1  UNL1        0.4230
     41 O         -22.6000   53.5447  -12.1849 O.2     1  UNL1       -0.2135
     42 N         -22.4097   52.4953  -10.1569 N.am    1  UNL1       -0.0844
     43 C         -21.6416   52.1957   -9.0642 C.2     1  UNL1        0.2860
     44 C         -18.0008   52.2484   -8.1185 C.3     1  UNL1        0.0052
     45 C         -19.4818   52.3201   -7.7620 C.3     1  UNL1        0.0326
@<TRIPOS>BOND
     1    44    45    1
     2    45    37    1
     3    37    38    1
     4    38    39    2
     5    39    40    1
     6    40    41    2
     7    40    42    1
     8    42    31    1
     9    31    32   ar
    10    32    33   ar
    11    33    34   ar
    12    34    27    1
    13    27    28   am
    14    28    29    2
    15    28     1    1
    16     1     2    1
    17     2     3    1
    18     3     4    1
    19     3    12    1
    20    12    13   ar
    21    13    14   ar
    22    14    15   ar
    23    15    16    1
    24    15    17   ar
    25    17    18   ar
    26    18    19    1
    27     3     5    1
    28     5     6    1
    29     6     7   am
    30     7     8    2
    31     7     9   am
    32     9    20    1
    33    20    21   ar
    34    21    22   ar
    35    22    23   ar
    36    23    24    1
    37    23    25   ar
    38    25    26   ar
    39    34    35   ar
    40    35    36   ar
    41    42    43    1
    42    43    37    2
    43    36    31   ar
    44     6     1    1
    45    26    20   ar
    46    18    12   ar
    47    27    30    1
    48     4    10    1
    49     9    11    1
@<TRIPOS>MOLECULE
*****
 45 49 0 0 0
SMALL
GASTEIGER

@<TRIPOS>ATOM
      1 C         -28.3610   48.9732   -8.4579 C.3     1  UNL1        0.1562
      2 C         -26.8556   48.7778   -8.2354 C.3     1  UNL1        0.0622
      3 C         -26.5076   49.5348   -6.9398 C.3     1  UNL1        0.1294
      4 O         -25.2960   50.2299   -7.1236 O.3     1  UNL1       -0.3808
      5 C         -27.6549   50.5584   -6.7640 C.3     1  UNL1        0.1264
      6 N         -28.7290   50.1320   -7.6485 N.am    1  UNL1       -0.2544
      7 C         -29.9929   50.8254   -7.7162 C.2     1  UNL1        0.3081
      8 O         -30.6484   50.8504   -8.7912 O.2     1  UNL1       -0.2522
      9 N         -30.4940   51.5476   -6.5855 N.am    1  UNL1       -0.2681
     10 H         -25.1437   50.7816   -6.3109 H       1  UNL1        0.2107
     11 H         -30.8380   52.5224   -6.7378 H       1  UNL1        0.1564
     12 C         -26.4069   48.5385   -5.7688 C.ar    1  UNL1        0.0310
     13 C         -26.0447   47.1961   -6.0115 C.ar    1  UNL1        0.0026
     14 C         -25.9218   46.2807   -4.9646 C.ar    1  UNL1        0.0295
     15 C         -26.1234   46.6930   -3.6487 C.ar    1  UNL1        0.1424
     16 F         -25.9988   45.8046   -2.6323 F       1  UNL1       -0.2041
     17 C         -26.4289   48.0267   -3.3776 C.ar    1  UNL1        0.0590
     18 C         -26.5558   48.9509   -4.4207 C.ar    1  UNL1        0.1406
     19 F         -26.7994   50.2456   -4.0959 F       1  UNL1       -0.2044
     20 C         -30.6566   50.9523   -5.2892 C.ar    1  UNL1        0.0516
     21 C         -30.1251   49.6829   -5.0003 C.ar    1  UNL1        0.0156
     22 C         -30.2854   49.1233   -3.7296 C.ar    1  UNL1        0.0127
     23 C         -30.9906   49.8178   -2.7420 C.ar    1  UNL1        0.0578
     24 CL        -31.1847   49.1172   -1.1460 Cl      1  UNL1       -0.0822
     25 C         -31.5447   51.0693   -3.0305 C.ar    1  UNL1        0.0127
     26 C         -31.3843   51.6313   -4.3010 C.ar    1  UNL1        0.0156
     27 N         -28.1227   50.2512  -10.6852 N.am    1  UNL1       -0.2680
     28 C         -28.6801   49.1670   -9.9252 C.2     1  UNL1        0.2454
     29 O         -29.5052   48.3933  -10.4825 O.2     1  UNL1       -0.2730
     30 H         -28.6905   50.6208  -11.4811 H       1  UNL1        0.1563
     31 C         -24.2463   51.8535  -10.1576 C.ar    1  UNL1        0.2465
     32 C         -25.3519   52.4897   -9.5739 C.ar    1  UNL1        0.0736
     33 C         -26.6332   51.9611   -9.7410 C.ar    1  UNL1        0.0406
     34 C         -26.8048   50.7889  -10.4878 C.ar    1  UNL1        0.1346
     35 N         -25.7206   50.2004  -11.0649 N.ar    1  UNL1       -0.2228
     36 C         -24.4640   50.6952  -10.9180 C.ar    1  UNL1        0.1691
     37 C         -20.9094   52.5643   -8.6770 C.2     1  UNL1        0.0476
     38 C         -20.3530   53.4048   -9.6462 C.2     1  UNL1        0.0116
     39 C         -21.0811   53.7246  -10.7892 C.2     1  UNL1        0.1153
     40 C         -22.3705   53.2110  -10.9549 C.2     1  UNL1        0.4230
     41 O         -23.0276   53.5299  -11.9838 O.2     1  UNL1       -0.2135
     42 N         -22.9165   52.3889  -10.0000 N.am    1  UNL1       -0.0844
     43 C         -22.2081   52.0732   -8.8719 C.2     1  UNL1        0.2860
     44 C         -18.6535   52.1568   -7.6973 C.3     1  UNL1        0.0052
     45 C         -20.1504   52.2408   -7.4181 C.3     1  UNL1        0.0326
@<TRIPOS>BOND
     1    44    45    1
     2    45    37    1
     3    37    38    1
     4    38    39    2
     5    39    40    1
     6    40    41    2
     7    40    42    1
     8    42    31    1
     9    31    32   ar
    10    32    33   ar
    11    33    34   ar
    12    34    27    1
    13    27    28   am
    14    28    29    2
    15    28     1    1
    16     1     2    1
    17     2     3    1
    18     3     4    1
    19     3    12    1
    20    12    13   ar
    21    13    14   ar
    22    14    15   ar
    23    15    16    1
    24    15    17   ar
    25    17    18   ar
    26    18    19    1
    27     3     5    1
    28     5     6    1
    29     6     7   am
    30     7     8    2
    31     7     9   am
    32     9    20    1
    33    20    21   ar
    34    21    22   ar
    35    22    23   ar
    36    23    24    1
    37    23    25   ar
    38    25    26   ar
    39    34    35   ar
    40    35    36   ar
    41    42    43    1
    42    43    37    2
    43    36    31   ar
    44     6     1    1
    45    26    20   ar
    46    18    12   ar
    47    27    30    1
    48     4    10    1
    49     9    11    1
@<TRIPOS>MOLECULE
*****
 45 49 0 0 0
SMALL
GASTEIGER

@<TRIPOS>ATOM
      1 C         -27.3569   50.7590   -7.8656 C.3     1  UNL1        0.1562
      2 C         -27.5698   51.8947   -6.8562 C.3     1  UNL1        0.0622
      3 C         -28.1742   51.2464   -5.5963 C.3     1  UNL1        0.1294
      4 O         -29.2090   52.0679   -5.1069 O.3     1  UNL1       -0.3808
      5 C         -28.7815   49.9131   -6.0948 C.3     1  UNL1        0.1264
      6 N         -28.2133   49.6664   -7.4117 N.am    1  UNL1       -0.2544
      7 C         -28.5148   48.4765   -8.1707 C.2     1  UNL1        0.3081
      8 O         -28.5241   48.5098   -9.4295 O.2     1  UNL1       -0.2522
      9 N         -28.8687   47.2560   -7.5101 N.am    1  UNL1       -0.2681
     10 H         -29.6416   51.5839   -4.3541 H       1  UNL1        0.2107
     11 H         -29.7144   46.7424   -7.8460 H       1  UNL1        0.1564
     12 C         -27.0730   51.0462   -4.5376 C.ar    1  UNL1        0.0310
     13 C         -26.2015   52.1083   -4.2140 C.ar    1  UNL1        0.0026
     14 C         -25.2123   51.9596   -3.2401 C.ar    1  UNL1        0.0295
     15 C         -25.0935   50.7590   -2.5426 C.ar    1  UNL1        0.1424
     16 F         -24.1359   50.6172   -1.5934 F       1  UNL1       -0.2041
     17 C         -25.9773   49.7123   -2.8054 C.ar    1  UNL1        0.0590
     18 C         -26.9708   49.8517   -3.7810 C.ar    1  UNL1        0.1406
     19 F         -27.8374   48.8226   -3.9564 F       1  UNL1       -0.2044
     20 C         -28.0497   46.6508   -6.4980 C.ar    1  UNL1        0.0516
     21 C         -28.5947   45.7542   -5.5619 C.ar    1  UNL1        0.0156
     22 C         -27.7800   45.1677   -4.5894 C.ar    1  UNL1        0.0127
     23 C         -26.4190   45.4826   -4.5327 C.ar    1  UNL1        0.0578
     24 CL        -25.3967   44.7402   -3.3162 Cl      1  UNL1       -0.0822
     25 C         -25.8755   46.3939   -5.4440 C.ar    1  UNL1        0.0127
     26 C         -26.6888   46.9809   -6.4185 C.ar    1  UNL1        0.0156
     27 N         -26.8368   52.1083  -10.0009 N.am    1  UNL1       -0.2680
     28 C         -27.6860   51.2056   -9.2744 C.2     1  UNL1        0.2454
     29 O         -28.7651   50.8249   -9.8039 O.2     1  UNL1       -0.2730
     30 H         -27.2916   52.7326  -10.7053 H       1  UNL1        0.1563
     31 C         -22.6253   52.2444   -9.6603 C.ar    1  UNL1        0.2465
     32 C         -23.3583   51.3131   -8.9099 C.ar    1  UNL1        0.0736
     33 C         -24.7488   51.2610   -9.0232 C.ar    1  UNL1        0.0406
     34 C         -25.4040   52.1386   -9.8959 C.ar    1  UNL1        0.1346
     35 N         -24.6751   53.0502  -10.5977 N.ar    1  UNL1       -0.2228
     36 C         -23.3216   53.1217  -10.5045 C.ar    1  UNL1        0.1691
     37 C         -19.2497   53.1816   -8.4114 C.2     1  UNL1        0.0476
     38 C         -18.4254   52.4931   -9.3069 C.2     1  UNL1        0.0116
     39 C         -18.9906   51.7148  -10.3137 C.2     1  UNL1        0.1153
     40 C         -20.3813   51.6358  -10.4294 C.2     1  UNL1        0.4230
     41 O         -20.8786   50.9468  -11.3621 O.2     1  UNL1       -0.2135
     42 N         -21.1890   52.3159   -9.5512 N.am    1  UNL1       -0.0844
     43 C         -20.6405   53.0860   -8.5613 C.2     1  UNL1        0.2860
     44 C         -19.1345   55.4972   -7.4953 C.3     1  UNL1        0.0052
     45 C         -18.6543   54.0579   -7.3423 C.3     1  UNL1        0.0326
@<TRIPOS>BOND
     1    44    45    1
     2    45    37    1
     3    37    38    1
     4    38    39    2
     5    39    40    1
     6    40    41    2
     7    40    42    1
     8    42    31    1
     9    31    32   ar
    10    32    33   ar
    11    33    34   ar
    12    34    27    1
    13    27    28   am
    14    28    29    2
    15    28     1    1
    16     1     2    1
    17     2     3    1
    18     3     4    1
    19     3    12    1
    20    12    13   ar
    21    13    14   ar
    22    14    15   ar
    23    15    16    1
    24    15    17   ar
    25    17    18   ar
    26    18    19    1
    27     3     5    1
    28     5     6    1
    29     6     7   am
    30     7     8    2
    31     7     9   am
    32     9    20    1
    33    20    21   ar
    34    21    22   ar
    35    22    23   ar
    36    23    24    1
    37    23    25   ar
    38    25    26   ar
    39    34    35   ar
    40    35    36   ar
    41    42    43    1
    42    43    37    2
    43    36    31   ar
    44     6     1    1
    45    26    20   ar
    46    18    12   ar
    47    27    30    1
    48     4    10    1
    49     9    11    1
@<TRIPOS>MOLECULE
*****
 45 49 0 0 0
SMALL
GASTEIGER

@<TRIPOS>ATOM
      1 C         -28.3131   46.9353   -8.0807 C.3     1  UNL1        0.1562
      2 C         -28.1576   47.5524   -9.4768 C.3     1  UNL1        0.0622
      3 C         -28.2651   49.0777   -9.2904 C.3     1  UNL1        0.1294
      4 O         -29.0610   49.6129  -10.3224 O.3     1  UNL1       -0.3808
      5 C         -29.0014   49.2564   -7.9410 C.3     1  UNL1        0.1264
      6 N         -28.9419   47.9698   -7.2635 N.am    1  UNL1       -0.2544
      7 C         -29.4874   47.7682   -5.9426 C.2     1  UNL1        0.3081
      8 O         -29.9480   46.6447   -5.6089 O.2     1  UNL1       -0.2522
      9 N         -29.5721   48.8530   -5.0114 N.am    1  UNL1       -0.2681
     10 H         -29.1913   50.5787  -10.1266 H       1  UNL1        0.2107
     11 H         -30.4784   49.0042   -4.5138 H       1  UNL1        0.1564
     12 C         -26.8559   49.7005   -9.2927 C.ar    1  UNL1        0.0310
     13 C         -26.4193   50.4580  -10.4008 C.ar    1  UNL1        0.0026
     14 C         -25.1568   51.0537  -10.4160 C.ar    1  UNL1        0.0295
     15 C         -24.3154   50.9361   -9.3112 C.ar    1  UNL1        0.1424
     16 F         -23.0916   51.5193   -9.3247 F       1  UNL1       -0.2041
     17 C         -24.7447   50.2386   -8.1821 C.ar    1  UNL1        0.0590
     18 C         -26.0078   49.6368   -8.1585 C.ar    1  UNL1        0.1406
     19 F         -26.3955   49.0186   -7.0146 F       1  UNL1       -0.2044
     20 C         -28.4402   49.6566   -4.6447 C.ar    1  UNL1        0.0516
     21 C         -28.2433   50.9323   -5.2023 C.ar    1  UNL1        0.0156
     22 C         -27.1404   51.7042   -4.8262 C.ar    1  UNL1        0.0127
     23 C         -26.2169   51.2037   -3.9035 C.ar    1  UNL1        0.0578
     24 CL        -24.8374   52.1764   -3.4274 Cl      1  UNL1       -0.0822
     25 C         -26.3923   49.9248   -3.3649 C.ar    1  UNL1        0.0127
     26 C         -27.4958   49.1515   -3.7390 C.ar    1  UNL1        0.0156
     27 N         -30.2027   45.4841   -9.0677 N.am    1  UNL1       -0.2680
     28 C         -29.1289   45.6608   -8.1298 C.2     1  UNL1        0.2454
     29 O         -28.9019   44.7524   -7.2853 O.2     1  UNL1       -0.2730
     30 H         -30.9940   44.8648   -8.7798 H       1  UNL1        0.1563
     31 C         -30.2546   47.0041  -13.0122 C.ar    1  UNL1        0.2465
     32 C         -31.1960   47.4561  -12.0756 C.ar    1  UNL1        0.0736
     33 C         -31.1792   46.9609  -10.7704 C.ar    1  UNL1        0.0406
     34 C         -30.2123   46.0171  -10.4021 C.ar    1  UNL1        0.1346
     35 N         -29.3224   45.5750  -11.3334 N.ar    1  UNL1       -0.2228
     36 C         -29.3183   46.0404  -12.6097 C.ar    1  UNL1        0.1691
     37 C         -30.3719   47.0396  -16.7294 C.2     1  UNL1        0.0476
     38 C         -30.2675   48.4088  -16.9936 C.2     1  UNL1        0.0116
     39 C         -30.1681   49.3142  -15.9404 C.2     1  UNL1        0.1153
     40 C         -30.1622   48.8460  -14.6233 C.2     1  UNL1        0.4230
     41 O         -30.0463   49.6763  -13.6804 O.2     1  UNL1       -0.2135
     42 N         -30.2611   47.5007  -14.3661 N.am    1  UNL1       -0.0844
     43 C         -30.3552   46.6044  -15.3966 C.2     1  UNL1        0.2860
     44 C         -30.2413   44.6258  -17.3383 C.3     1  UNL1        0.0052
     45 C         -30.4407   46.0458  -17.8575 C.3     1  UNL1        0.0326
@<TRIPOS>BOND
     1    44    45    1
     2    45    37    1
     3    37    38    1
     4    38    39    2
     5    39    40    1
     6    40    41    2
     7    40    42    1
     8    42    31    1
     9    31    32   ar
    10    32    33   ar
    11    33    34   ar
    12    34    27    1
    13    27    28   am
    14    28    29    2
    15    28     1    1
    16     1     2    1
    17     2     3    1
    18     3     4    1
    19     3    12    1
    20    12    13   ar
    21    13    14   ar
    22    14    15   ar
    23    15    16    1
    24    15    17   ar
    25    17    18   ar
    26    18    19    1
    27     3     5    1
    28     5     6    1
    29     6     7   am
    30     7     8    2
    31     7     9   am
    32     9    20    1
    33    20    21   ar
    34    21    22   ar
    35    22    23   ar
    36    23    24    1
    37    23    25   ar
    38    25    26   ar
    39    34    35   ar
    40    35    36   ar
    41    42    43    1
    42    43    37    2
    43    36    31   ar
    44     6     1    1
    45    26    20   ar
    46    18    12   ar
    47    27    30    1
    48     4    10    1
    49     9    11    1
@<TRIPOS>MOLECULE
*****
 45 49 0 0 0
SMALL
GASTEIGER

@<TRIPOS>ATOM
      1 C         -28.8147   47.3733   -9.2474 C.3     1  UNL1        0.1562
      2 C         -30.1428   48.1255   -9.0920 C.3     1  UNL1        0.0622
      3 C         -29.7904   49.5137   -8.5249 C.3     1  UNL1        0.1294
      4 O         -30.7217   49.8522   -7.5234 O.3     1  UNL1       -0.3808
      5 C         -28.3971   49.3299   -7.8769 C.3     1  UNL1        0.1264
      6 N         -27.8639   48.0770   -8.3905 N.am    1  UNL1       -0.2544
      7 C         -26.5482   47.5980   -8.0406 C.2     1  UNL1        0.3081
      8 O         -26.3151   46.3618   -7.9841 O.2     1  UNL1       -0.2522
      9 N         -25.5039   48.5138   -7.6915 N.am    1  UNL1       -0.2681
     10 H         -30.4184   50.7045   -7.1116 H       1  UNL1        0.2107
     11 H         -24.9517   48.3230   -6.8252 H       1  UNL1        0.1564
     12 C         -29.7915   50.5533   -9.6620 C.ar    1  UNL1        0.0310
     13 C         -30.8399   50.5668  -10.6069 C.ar    1  UNL1        0.0026
     14 C         -30.8768   51.5148  -11.6311 C.ar    1  UNL1        0.0295
     15 C         -29.8869   52.4923  -11.7144 C.ar    1  UNL1        0.1424
     16 F         -29.9264   53.4157  -12.7063 F       1  UNL1       -0.2041
     17 C         -28.8697   52.5340  -10.7609 C.ar    1  UNL1        0.0590
     18 C         -28.8237   51.5868   -9.7318 C.ar    1  UNL1        0.1406
     19 F         -27.8443   51.7079   -8.8006 F       1  UNL1       -0.2044
     20 C         -25.1064   49.6033   -8.5380 C.ar    1  UNL1        0.0516
     21 C         -25.6037   49.7252   -9.8475 C.ar    1  UNL1        0.0156
     22 C         -25.2126   50.7977  -10.6539 C.ar    1  UNL1        0.0127
     23 C         -24.3102   51.7481  -10.1665 C.ar    1  UNL1        0.0578
     24 CL        -23.8260   53.0972  -11.1771 Cl      1  UNL1       -0.0822
     25 C         -23.7911   51.6184   -8.8742 C.ar    1  UNL1        0.0127
     26 C         -24.1822   50.5466   -8.0655 C.ar    1  UNL1        0.0156
     27 N         -28.8828   45.4699   -7.5086 N.am    1  UNL1       -0.2680
     28 C         -28.9615   45.9137   -8.8727 C.2     1  UNL1        0.2454
     29 O         -29.0952   45.0548   -9.7861 O.2     1  UNL1       -0.2730
     30 H         -28.5216   44.5038   -7.3386 H       1  UNL1        0.1563
     31 C         -30.2667   47.7319   -4.2162 C.ar    1  UNL1        0.2465
     32 C         -31.1863   47.1420   -5.0960 C.ar    1  UNL1        0.0736
     33 C         -30.7339   46.3897   -6.1816 C.ar    1  UNL1        0.0406
     34 C         -29.3578   46.2224   -6.3804 C.ar    1  UNL1        0.1346
     35 N         -28.4822   46.8228   -5.5274 N.ar    1  UNL1       -0.2228
     36 C         -28.8969   47.5603   -4.4644 C.ar    1  UNL1        0.1691
     37 C         -31.1424   48.6714   -0.7258 C.2     1  UNL1        0.0476
     38 C         -31.5839   49.9869   -0.8988 C.2     1  UNL1        0.0116
     39 C         -31.5809   50.5596   -2.1680 C.2     1  UNL1        0.1153
     40 C         -31.1460   49.8099   -3.2647 C.2     1  UNL1        0.4230
     41 O         -31.1727   50.3341   -4.4121 O.2     1  UNL1       -0.2135
     42 N         -30.7164   48.5169   -3.0931 N.am    1  UNL1       -0.0844
     43 C         -30.7201   47.9460   -1.8489 C.2     1  UNL1        0.2860
     44 C         -29.9519   48.4240    1.4505 C.3     1  UNL1        0.0052
     45 C         -31.1763   48.0255    0.6333 C.3     1  UNL1        0.0326
@<TRIPOS>BOND
     1    44    45    1
     2    45    37    1
     3    37    38    1
     4    38    39    2
     5    39    40    1
     6    40    41    2
     7    40    42    1
     8    42    31    1
     9    31    32   ar
    10    32    33   ar
    11    33    34   ar
    12    34    27    1
    13    27    28   am
    14    28    29    2
    15    28     1    1
    16     1     2    1
    17     2     3    1
    18     3     4    1
    19     3    12    1
    20    12    13   ar
    21    13    14   ar
    22    14    15   ar
    23    15    16    1
    24    15    17   ar
    25    17    18   ar
    26    18    19    1
    27     3     5    1
    28     5     6    1
    29     6     7   am
    30     7     8    2
    31     7     9   am
    32     9    20    1
    33    20    21   ar
    34    21    22   ar
    35    22    23   ar
    36    23    24    1
    37    23    25   ar
    38    25    26   ar
    39    34    35   ar
    40    35    36   ar
    41    42    43    1
    42    43    37    2
    43    36    31   ar
    44     6     1    1
    45    26    20   ar
    46    18    12   ar
    47    27    30    1
    48     4    10    1
    49     9    11    1
@<TRIPOS>MOLECULE
*****
 45 49 0 0 0
SMALL
GASTEIGER

@<TRIPOS>ATOM
      1 C         -29.0164   49.0230  -10.4449 C.3     1  UNL1        0.1562
      2 C         -28.3322   49.8434  -11.5461 C.3     1  UNL1        0.0622
      3 C         -28.0669   51.2372  -10.9462 C.3     1  UNL1        0.1294
      4 O         -28.3819   52.2193  -11.9060 O.3     1  UNL1       -0.3808
      5 C         -29.0595   51.3502   -9.7642 C.3     1  UNL1        0.1264
      6 N         -29.5349   50.0018   -9.4928 N.am    1  UNL1       -0.2544
      7 C         -30.4467   49.7086   -8.4131 C.2     1  UNL1        0.3081
      8 O         -31.2670   48.7584   -8.5131 O.2     1  UNL1       -0.2522
      9 N         -30.4790   50.5274   -7.2385 N.am    1  UNL1       -0.2681
     10 H         -28.2922   53.1055  -11.4646 H       1  UNL1        0.2107
     11 H         -31.4087   50.8586   -6.8954 H       1  UNL1        0.1564
     12 C         -26.5941   51.3398  -10.5057 C.ar    1  UNL1        0.0310
     13 C         -26.2641   51.3306   -9.1334 C.ar    1  UNL1        0.0026
     14 C         -24.9355   51.3967   -8.7097 C.ar    1  UNL1        0.0295
     15 C         -23.9046   51.4380   -9.6466 C.ar    1  UNL1        0.1424
     16 F         -22.6145   51.4970   -9.2342 F       1  UNL1       -0.2041
     17 C         -24.2016   51.3934  -11.0087 C.ar    1  UNL1        0.0590
     18 C         -25.5304   51.3289  -11.4427 C.ar    1  UNL1        0.1406
     19 F         -25.7588   51.2319  -12.7766 F       1  UNL1       -0.2044
     20 C         -29.3120   50.8072   -6.4503 C.ar    1  UNL1        0.0516
     21 C         -28.5946   52.0055   -6.6138 C.ar    1  UNL1        0.0156
     22 C         -27.4662   52.2647   -5.8309 C.ar    1  UNL1        0.0127
     23 C         -27.0350   51.3245   -4.8901 C.ar    1  UNL1        0.0578
     24 CL        -25.6231   51.6545   -3.9036 Cl      1  UNL1       -0.0822
     25 C         -27.7284   50.1189   -4.7408 C.ar    1  UNL1        0.0127
     26 C         -28.8584   49.8583   -5.5225 C.ar    1  UNL1        0.0156
     27 N         -30.3144   46.7966  -10.5402 N.am    1  UNL1       -0.2680
     28 C         -30.1038   48.1364  -11.0139 C.2     1  UNL1        0.2454
     29 O         -30.8052   48.5613  -11.9718 O.2     1  UNL1       -0.2730
     30 H         -30.6989   46.1022  -11.2204 H       1  UNL1        0.1563
     31 C         -29.7767   45.6153   -6.5169 C.ar    1  UNL1        0.2465
     32 C         -30.9514   45.2638   -7.1984 C.ar    1  UNL1        0.0736
     33 C         -31.1309   45.6472   -8.5288 C.ar    1  UNL1        0.0406
     34 C         -30.1278   46.3771   -9.1786 C.ar    1  UNL1        0.1346
     35 N         -29.0055   46.7275   -8.4912 N.ar    1  UNL1       -0.2228
     36 C         -28.8073   46.3676   -7.1963 C.ar    1  UNL1        0.1691
     37 C         -28.1839   45.2651   -3.1743 C.2     1  UNL1        0.0476
     38 C         -29.1428   44.5101   -2.4917 C.2     1  UNL1        0.0116
     39 C         -30.3157   44.1286   -3.1379 C.2     1  UNL1        0.1153
     40 C         -30.5220   44.4944   -4.4711 C.2     1  UNL1        0.4230
     41 O         -31.5783   44.1201   -5.0508 O.2     1  UNL1       -0.2135
     42 N         -29.5773   45.2326   -5.1408 N.am    1  UNL1       -0.0844
     43 C         -28.4201   45.6080   -4.5132 C.2     1  UNL1        0.2860
     44 C         -25.7819   44.6736   -2.8656 C.3     1  UNL1        0.0052
     45 C         -26.8941   45.6517   -2.5020 C.3     1  UNL1        0.0326
@<TRIPOS>BOND
     1    44    45    1
     2    45    37    1
     3    37    38    1
     4    38    39    2
     5    39    40    1
     6    40    41    2
     7    40    42    1
     8    42    31    1
     9    31    32   ar
    10    32    33   ar
    11    33    34   ar
    12    34    27    1
    13    27    28   am
    14    28    29    2
    15    28     1    1
    16     1     2    1
    17     2     3    1
    18     3     4    1
    19     3    12    1
    20    12    13   ar
    21    13    14   ar
    22    14    15   ar
    23    15    16    1
    24    15    17   ar
    25    17    18   ar
    26    18    19    1
    27     3     5    1
    28     5     6    1
    29     6     7   am
    30     7     8    2
    31     7     9   am
    32     9    20    1
    33    20    21   ar
    34    21    22   ar
    35    22    23   ar
    36    23    24    1
    37    23    25   ar
    38    25    26   ar
    39    34    35   ar
    40    35    36   ar
    41    42    43    1
    42    43    37    2
    43    36    31   ar
    44     6     1    1
    45    26    20   ar
    46    18    12   ar
    47    27    30    1
    48     4    10    1
    49     9    11    1
@<TRIPOS>MOLECULE
*****
 45 49 0 0 0
SMALL
GASTEIGER

@<TRIPOS>ATOM
      1 C         -29.6818   48.3683   -9.8083 C.3     1  UNL1        0.1562
      2 C         -29.2277   49.1390  -11.0548 C.3     1  UNL1        0.0622
      3 C         -28.9558   50.5839  -10.5952 C.3     1  UNL1        0.1294
      4 O         -29.4744   51.4773  -11.5532 O.3     1  UNL1       -0.3808
      5 C         -29.7570   50.7338   -9.2797 C.3     1  UNL1        0.1264
      6 N         -30.1031   49.3870   -8.8503 N.am    1  UNL1       -0.2544
      7 C         -30.8163   49.1288   -7.6225 C.2     1  UNL1        0.3081
      8 O         -31.5840   48.1350   -7.5293 O.2     1  UNL1       -0.2522
      9 N         -30.7139   50.0281   -6.5125 N.am    1  UNL1       -0.2681
     10 H         -29.3701   52.3965  -11.1894 H       1  UNL1        0.2107
     11 H         -31.5969   50.3376   -6.0473 H       1  UNL1        0.1564
     12 C         -27.4411   50.7900  -10.4028 C.ar    1  UNL1        0.0310
     13 C         -26.8510   50.5624   -9.1409 C.ar    1  UNL1        0.0026
     14 C         -25.4771   50.7175   -8.9476 C.ar    1  UNL1        0.0295
     15 C         -24.6563   51.0690  -10.0176 C.ar    1  UNL1        0.1424
     16 F         -23.3215   51.2144   -9.8301 F       1  UNL1       -0.2041
     17 C         -25.2072   51.2465  -11.2868 C.ar    1  UNL1        0.0590
     18 C         -26.5835   51.0949  -11.4896 C.ar    1  UNL1        0.1406
     19 F         -27.0571   51.2249  -12.7544 F       1  UNL1       -0.2044
     20 C         -29.4572   50.4210   -5.9401 C.ar    1  UNL1        0.0516
     21 C         -28.8950   51.6801   -6.2153 C.ar    1  UNL1        0.0156
     22 C         -27.6751   52.0488   -5.6415 C.ar    1  UNL1        0.0127
     23 C         -26.9984   51.1590   -4.8016 C.ar    1  UNL1        0.0578
     24 CL        -25.4712   51.6260   -4.0768 Cl      1  UNL1       -0.0822
     25 C         -27.5389   49.8948   -4.5447 C.ar    1  UNL1        0.0127
     26 C         -28.7600   49.5245   -5.1170 C.ar    1  UNL1        0.0156
     27 N         -31.5470   47.4868  -11.3558 N.am    1  UNL1       -0.2680
     28 C         -30.7898   47.3908  -10.1388 C.2     1  UNL1        0.2454
     29 O         -31.0994   46.5046   -9.2968 O.2     1  UNL1       -0.2730
     30 H         -32.5349   47.1458  -11.3343 H       1  UNL1        0.1563
     31 C         -29.9226   48.7945  -15.0332 C.ar    1  UNL1        0.2465
     32 C         -29.8253   47.4441  -14.6659 C.ar    1  UNL1        0.0736
     33 C         -30.3650   47.0068  -13.4549 C.ar    1  UNL1        0.0406
     34 C         -31.0098   47.9233  -12.6150 C.ar    1  UNL1        0.1346
     35 N         -31.0727   49.2338  -12.9804 N.ar    1  UNL1       -0.2228
     36 C         -30.5549   49.6845  -14.1527 C.ar    1  UNL1        0.1691
     37 C         -27.4328   49.9642  -17.5362 C.2     1  UNL1        0.0476
     38 C         -28.2472   50.1812  -18.6520 C.2     1  UNL1        0.0116
     39 C         -29.6146   49.9305  -18.5734 C.2     1  UNL1        0.1153
     40 C         -30.1668   49.4732  -17.3734 C.2     1  UNL1        0.4230
     41 O         -31.4111   49.2745  -17.3102 O.2     1  UNL1       -0.2135
     42 N         -29.3657   49.2645  -16.2777 N.am    1  UNL1       -0.0844
     43 C         -28.0212   49.5124  -16.3464 C.2     1  UNL1        0.2860
     44 C         -25.2458   49.2995  -18.5312 C.3     1  UNL1        0.0052
     45 C         -25.9597   50.2676  -17.5936 C.3     1  UNL1        0.0326
@<TRIPOS>BOND
     1    44    45    1
     2    45    37    1
     3    37    38    1
     4    38    39    2
     5    39    40    1
     6    40    41    2
     7    40    42    1
     8    42    31    1
     9    31    32   ar
    10    32    33   ar
    11    33    34   ar
    12    34    27    1
    13    27    28   am
    14    28    29    2
    15    28     1    1
    16     1     2    1
    17     2     3    1
    18     3     4    1
    19     3    12    1
    20    12    13   ar
    21    13    14   ar
    22    14    15   ar
    23    15    16    1
    24    15    17   ar
    25    17    18   ar
    26    18    19    1
    27     3     5    1
    28     5     6    1
    29     6     7   am
    30     7     8    2
    31     7     9   am
    32     9    20    1
    33    20    21   ar
    34    21    22   ar
    35    22    23   ar
    36    23    24    1
    37    23    25   ar
    38    25    26   ar
    39    34    35   ar
    40    35    36   ar
    41    42    43    1
    42    43    37    2
    43    36    31   ar
    44     6     1    1
    45    26    20   ar
    46    18    12   ar
    47    27    30    1
    48     4    10    1
    49     9    11    1
