@<TRIPOS>MOLECULE
*****
 77 79 0 0 0
SMALL
GASTEIGER

@<TRIPOS>ATOM
      1 C          -6.5850  -16.4960   24.9035 C.ar    1  UNL1        0.1694
      2 C          -5.5176  -15.5693   24.8229 C.ar    1  UNL1        0.1811
      3 C          -5.4287  -14.5445   25.7694 C.ar    1  UNL1        0.1358
      4 C          -6.4119  -14.3661   26.7317 C.ar    1  UNL1        0.2879
      5 O          -6.2733  -13.3560   27.5740 O.3     1  UNL1       -0.5464
      6 C          -7.1807  -13.0171   28.4768 C.ar    1  UNL1        0.2866
      7 C          -6.9230  -11.9206   29.3185 C.ar    1  UNL1        0.0996
      8 C          -5.6010  -11.1968   29.2212 C.3     1  UNL1        0.0431
      9 C          -7.8984  -11.5136   30.2488 C.ar    1  UNL1        0.1425
     10 C          -9.1292  -12.1880   30.3243 C.ar    1  UNL1        0.0501
     11 C          -9.4081  -13.2534   29.4444 C.ar    1  UNL1        0.1441
     12 O         -10.7109  -13.7657   29.4466 O.3     1  UNL1       -0.5053
     13 C          -8.3979  -13.7282   28.5586 C.ar    1  UNL1        0.1597
     14 C          -8.5340  -14.8875   27.7508 C.2     1  UNL1        0.2146
     15 O          -9.5468  -15.6171   27.8869 O.2     1  UNL1       -0.2859
     16 C          -7.5255  -15.2285   26.8045 C.ar    1  UNL1        0.1263
     17 C          -7.5710  -16.3619   25.9225 C.ar    1  UNL1        0.0304
     18 H         -11.1541  -14.1870   28.6426 H       1  UNL1        0.2922
     19 H          -5.4860  -12.8499   27.5292 H       1  UNL1        0.5634
     20 C          -7.1700  -17.5117   22.6487 C.3     1  UNL1        0.2526
     21 O          -6.7199  -17.5699   23.9978 O.3     1  UNL1       -0.4687
     22 O          -7.7007  -10.3744   31.0371 O.3     1  UNL1       -0.4659
     23 C          -7.5658  -10.4141   32.4543 C.3     1  UNL1        0.2893
     24 C          -7.2427   -9.0449   32.9730 C.2     1  UNL1        0.2673
     25 O          -7.3310   -8.8181   34.2100 O.2     1  UNL1       -0.2711
     26 N          -6.7628   -8.0231   32.0829 N.am    1  UNL1       -0.2953
     27 H          -6.8900   -8.1632   31.0561 H       1  UNL1        0.1499
     28 C          -6.1734   -6.7649   32.5582 C.3     1  UNL1        0.1485
     29 C          -4.7286   -6.9545   32.9511 C.2     1  UNL1        0.2372
     30 N          -4.3911   -7.7719   34.0714 N.am    1  UNL1       -0.3275
     31 O          -3.8150   -6.3557   32.3213 O.2     1  UNL1       -0.2736
     32 H          -3.3933   -7.8921   34.3542 H       1  UNL1        0.1450
     33 H          -5.1354   -8.2521   34.6243 H       1  UNL1        0.1450
     34 C          -6.3200   -5.6510   31.4969 C.3     1  UNL1        0.0325
     35 C          -7.0302   -6.1154   30.2097 C.3     1  UNL1        0.0450
     36 C          -8.4753   -5.6106   30.1571 C.3     1  UNL1        0.1740
     37 N          -9.3043   -6.4940   29.3355 N.pl3   1  UNL1       -0.2625
     38 H          -9.7262   -6.1345   28.4488 H       1  UNL1        0.2587
     39 C          -9.5421   -7.8621   29.6925 C.cat   1  UNL1        0.3769
     40 N          -9.3566   -8.8062   28.8241 N.pl3   1  UNL1       -0.1298
     41 N          -9.9924   -8.1805   31.0112 N.pl3   1  UNL1       -0.2892
     42 H          -9.5256   -9.8097   29.0593 H       1  UNL1        0.3062
     43 H         -10.1180   -7.4264   31.7215 H       1  UNL1        0.2546
     44 H         -10.1953   -9.1673   31.2864 H       1  UNL1        0.2546
     45 C         -10.2032  -11.6721   31.2584 C.3     1  UNL1        0.0578
     46 C         -10.4273  -12.6399   32.3947 C.2     1  UNL1       -0.0297
     47 C         -11.6526  -13.0326   32.8006 C.2     1  UNL1       -0.0475
     48 C         -12.9074  -12.5201   32.1349 C.3     1  UNL1        0.0260
     49 C         -11.7567  -14.0075   33.9446 C.3     1  UNL1        0.0260
     50 O          -4.5594  -15.6853   23.8010 O.3     1  UNL1       -0.4623
     51 C          -4.4965  -14.8906   22.6161 C.3     1  UNL1        0.2895
     52 C          -4.3824  -15.7611   21.3988 C.2     1  UNL1        0.2673
     53 O          -4.8801  -15.3651   20.3100 O.2     1  UNL1       -0.2711
     54 N          -3.7479  -17.0463   21.4835 N.am    1  UNL1       -0.2953
     55 H          -3.2531  -17.2929   22.3706 H       1  UNL1        0.1499
     56 C          -3.6559  -17.9616   20.3381 C.3     1  UNL1        0.1485
     57 C          -3.7980  -19.3990   20.7774 C.2     1  UNL1        0.2372
     58 N          -3.2624  -20.4485   19.9712 N.am    1  UNL1       -0.3275
     59 O          -4.3504  -19.6834   21.8745 O.2     1  UNL1       -0.2736
     60 H          -2.7694  -20.2354   19.0758 H       1  UNL1        0.1450
     61 H          -3.3437  -21.4429   20.2789 H       1  UNL1        0.1450
     62 C          -2.3492  -17.7351   19.5509 C.3     1  UNL1        0.0325
     63 C          -1.1782  -17.2472   20.4243 C.3     1  UNL1        0.0450
     64 C           0.1593  -17.8687   19.9978 C.3     1  UNL1        0.1740
     65 N           0.7873  -18.6130   21.0908 N.pl3   1  UNL1       -0.2625
     66 H           1.3578  -18.0991   21.8002 H       1  UNL1        0.2587
     67 C           0.6488  -20.0372   21.2363 C.cat   1  UNL1        0.3769
     68 N          -0.5243  -20.5550   21.4173 N.pl3   1  UNL1       -0.1298
     69 N           1.7861  -20.9033   21.1673 N.pl3   1  UNL1       -0.2892
     70 H          -1.3855  -19.9662   21.4674 H       1  UNL1        0.3062
     71 H           2.7490  -20.5385   21.0048 H       1  UNL1        0.2546
     72 H           1.6645  -21.9360   21.2637 H       1  UNL1        0.2546
     73 C          -8.6317  -17.4558   26.0411 C.3     1  UNL1        0.0552
     74 C          -9.7237  -17.3209   25.0009 C.2     1  UNL1       -0.0298
     75 C         -10.4146  -18.3497   24.4607 C.2     1  UNL1       -0.0475
     76 C         -11.4528  -18.0423   23.4120 C.3     1  UNL1        0.0260
     77 C         -10.1685  -19.7838   24.8593 C.3     1  UNL1        0.0260
@<TRIPOS>BOND
     1    20    21    1
     2    21     1    1
     3     1     2   ar
     4     2    50    1
     5    50    51    1
     6    51    52    1
     7    52    53    2
     8    52    54   am
     9    54    56    1
    10    56    62    1
    11    62    63    1
    12    63    64    1
    13    64    65    1
    14    65    67    1
    15    67    68    2
    16    67    69    1
    17    56    57    1
    18    57    58   am
    19    57    59    2
    20     2     3   ar
    21     3     4   ar
    22     4     5    1
    23     5     6    1
    24     6     7   ar
    25     7     8    1
    26     7     9   ar
    27     9    22    1
    28    22    23    1
    29    23    24    1
    30    24    25    2
    31    24    26   am
    32    26    28    1
    33    28    34    1
    34    34    35    1
    35    35    36    1
    36    36    37    1
    37    37    39    1
    38    39    40    2
    39    39    41    1
    40    28    29    1
    41    29    30   am
    42    29    31    2
    43     9    10   ar
    44    10    45    1
    45    45    46    1
    46    46    47    2
    47    47    48    1
    48    47    49    1
    49    10    11   ar
    50    11    12    1
    51    11    13   ar
    52    13    14    1
    53    14    15    2
    54    14    16    1
    55    16    17   ar
    56    17    73    1
    57    73    74    1
    58    74    75    2
    59    75    76    1
    60    75    77    1
    61    17     1   ar
    62    16     4   ar
    63    13     6   ar
    64    54    55    1
    65    65    66    1
    66    68    70    1
    67    69    71    1
    68    69    72    1
    69    58    60    1
    70    58    61    1
    71    26    27    1
    72    37    38    1
    73    40    42    1
    74    41    43    1
    75    41    44    1
    76    30    32    1
    77    30    33    1
    78    12    18    1
    79     5    19    1
@<TRIPOS>MOLECULE
*****
 77 79 0 0 0
SMALL
GASTEIGER

@<TRIPOS>ATOM
      1 C          -8.3007  -11.2645   31.2326 C.ar    1  UNL1        0.1694
      2 C          -6.9351  -11.0102   30.9582 C.ar    1  UNL1        0.1811
      3 C          -6.3217  -11.6581   29.8821 C.ar    1  UNL1        0.1358
      4 C          -6.9994  -12.6090   29.1332 C.ar    1  UNL1        0.2879
      5 O          -6.3428  -13.2010   28.1496 O.3     1  UNL1       -0.5464
      6 C          -6.8380  -14.1888   27.4202 C.ar    1  UNL1        0.2866
      7 C          -6.0441  -14.7424   26.4001 C.ar    1  UNL1        0.0996
      8 C          -4.6788  -14.1622   26.1162 C.3     1  UNL1        0.0431
      9 C          -6.5341  -15.8278   25.6490 C.ar    1  UNL1        0.1425
     10 C          -7.8019  -16.3664   25.9280 C.ar    1  UNL1        0.0501
     11 C          -8.5756  -15.8457   26.9851 C.ar    1  UNL1        0.1441
     12 O          -9.7443  -16.5357   27.3278 O.3     1  UNL1       -0.5053
     13 C          -8.1275  -14.6943   27.6952 C.ar    1  UNL1        0.1597
     14 C          -8.9054  -14.0099   28.6655 C.2     1  UNL1        0.2146
     15 O         -10.1004  -14.3496   28.8475 O.2     1  UNL1       -0.2859
     16 C          -8.3412  -12.9388   29.4160 C.ar    1  UNL1        0.1263
     17 C          -9.0277  -12.1944   30.4354 C.ar    1  UNL1        0.0304
     18 H         -10.1394  -16.5519   28.2574 H       1  UNL1        0.2922
     19 H          -5.4753  -12.9035   27.9574 H       1  UNL1        0.5634
     20 C          -8.7171  -10.7195   33.6796 C.3     1  UNL1        0.2526
     21 O          -8.9890  -10.6248   32.2856 O.3     1  UNL1       -0.4687
     22 O          -5.7303  -16.4503   24.6874 O.3     1  UNL1       -0.4659
     23 C          -5.3084  -15.8137   23.4853 C.3     1  UNL1        0.2893
     24 C          -6.1037  -16.3365   22.3267 C.2     1  UNL1        0.2673
     25 O          -6.3904  -15.5599   21.3759 O.2     1  UNL1       -0.2711
     26 N          -6.4693  -17.7252   22.2615 N.am    1  UNL1       -0.2953
     27 H          -6.4041  -18.2945   23.1343 H       1  UNL1        0.1499
     28 C          -6.9990  -18.3534   21.0444 C.3     1  UNL1        0.1485
     29 C          -5.9668  -19.2447   20.3981 C.2     1  UNL1        0.2372
     30 N          -6.0188  -20.6583   20.5891 N.am    1  UNL1       -0.3275
     31 O          -5.0264  -18.7431   19.7244 O.2     1  UNL1       -0.2736
     32 H          -5.2968  -21.2753   20.1555 H       1  UNL1        0.1450
     33 H          -6.7722  -21.0904   21.1685 H       1  UNL1        0.1450
     34 C          -8.2980  -19.1345   21.3467 C.3     1  UNL1        0.0325
     35 C          -9.3231  -19.0949   20.1959 C.3     1  UNL1        0.0450
     36 C         -10.5357  -18.2324   20.5587 C.3     1  UNL1        0.1740
     37 N         -10.3279  -16.8439   20.1446 N.pl3   1  UNL1       -0.2625
     38 H         -10.2995  -16.6037   19.1273 H       1  UNL1        0.2587
     39 C         -10.1856  -15.7804   21.0957 C.cat   1  UNL1        0.3769
     40 N          -9.1258  -15.0343   21.0886 N.pl3   1  UNL1       -0.1298
     41 N         -11.2167  -15.5504   22.0585 N.pl3   1  UNL1       -0.2892
     42 H          -8.9977  -14.2556   21.7727 H       1  UNL1        0.3062
     43 H         -12.0834  -16.1317   22.0513 H       1  UNL1        0.2546
     44 H         -11.1239  -14.7974   22.7761 H       1  UNL1        0.2546
     45 C          -8.2679  -17.5967   25.1789 C.3     1  UNL1        0.0578
     46 C          -9.6918  -17.4240   24.7092 C.2     1  UNL1       -0.0297
     47 C         -10.5414  -18.4566   24.5294 C.2     1  UNL1       -0.0475
     48 C         -10.1179  -19.8827   24.7888 C.3     1  UNL1        0.0260
     49 C         -11.9434  -18.1655   24.0606 C.3     1  UNL1        0.0260
     50 O          -6.2102  -10.1130   31.7614 O.3     1  UNL1       -0.4623
     51 C          -5.1291   -9.2858   31.3294 C.3     1  UNL1        0.2895
     52 C          -5.6444   -8.0198   30.7096 C.2     1  UNL1        0.2673
     53 O          -4.8228   -7.1460   30.3208 O.2     1  UNL1       -0.2711
     54 N          -7.0573   -7.7909   30.5965 N.am    1  UNL1       -0.2953
     55 H          -7.7033   -8.5794   30.8277 H       1  UNL1        0.1499
     56 C          -7.6174   -6.5483   30.0482 C.3     1  UNL1        0.1485
     57 C          -7.3753   -5.3849   30.9794 C.2     1  UNL1        0.2372
     58 N          -7.2388   -4.0649   30.4528 N.am    1  UNL1       -0.3275
     59 O          -7.3334   -5.5594   32.2274 O.2     1  UNL1       -0.2736
     60 H          -7.3051   -3.8905   29.4254 H       1  UNL1        0.1450
     61 H          -7.0877   -3.2549   31.0940 H       1  UNL1        0.1450
     62 C          -9.1157   -6.7121   29.7218 C.3     1  UNL1        0.0325
     63 C          -9.5204   -8.1599   29.3866 C.3     1  UNL1        0.0450
     64 C         -10.9728   -8.4607   29.7834 C.3     1  UNL1        0.1740
     65 N         -11.0568   -9.1055   31.0950 N.pl3   1  UNL1       -0.2625
     66 H         -10.3560   -9.8370   31.3529 H       1  UNL1        0.2587
     67 C         -12.0707   -8.7697   32.0583 C.cat   1  UNL1        0.3769
     68 N         -12.1995   -9.4816   33.1324 N.pl3   1  UNL1       -0.1298
     69 N         -12.9358   -7.6465   31.8628 N.pl3   1  UNL1       -0.2892
     70 H         -11.5879  -10.3061   33.3244 H       1  UNL1        0.3062
     71 H         -12.8609   -7.0311   31.0248 H       1  UNL1        0.2546
     72 H         -13.6586   -7.4113   32.5788 H       1  UNL1        0.2546
     73 C         -10.5266  -12.3418   30.6948 C.3     1  UNL1        0.0552
     74 C         -10.8235  -13.1407   31.9462 C.2     1  UNL1       -0.0298
     75 C         -12.0426  -13.2687   32.5162 C.2     1  UNL1       -0.0475
     76 C         -12.1596  -14.0797   33.7814 C.3     1  UNL1        0.0260
     77 C         -13.2748  -12.6165   31.9397 C.3     1  UNL1        0.0260
@<TRIPOS>BOND
     1    20    21    1
     2    21     1    1
     3     1     2   ar
     4     2    50    1
     5    50    51    1
     6    51    52    1
     7    52    53    2
     8    52    54   am
     9    54    56    1
    10    56    62    1
    11    62    63    1
    12    63    64    1
    13    64    65    1
    14    65    67    1
    15    67    68    2
    16    67    69    1
    17    56    57    1
    18    57    58   am
    19    57    59    2
    20     2     3   ar
    21     3     4   ar
    22     4     5    1
    23     5     6    1
    24     6     7   ar
    25     7     8    1
    26     7     9   ar
    27     9    22    1
    28    22    23    1
    29    23    24    1
    30    24    25    2
    31    24    26   am
    32    26    28    1
    33    28    34    1
    34    34    35    1
    35    35    36    1
    36    36    37    1
    37    37    39    1
    38    39    40    2
    39    39    41    1
    40    28    29    1
    41    29    30   am
    42    29    31    2
    43     9    10   ar
    44    10    45    1
    45    45    46    1
    46    46    47    2
    47    47    48    1
    48    47    49    1
    49    10    11   ar
    50    11    12    1
    51    11    13   ar
    52    13    14    1
    53    14    15    2
    54    14    16    1
    55    16    17   ar
    56    17    73    1
    57    73    74    1
    58    74    75    2
    59    75    76    1
    60    75    77    1
    61    17     1   ar
    62    16     4   ar
    63    13     6   ar
    64    54    55    1
    65    65    66    1
    66    68    70    1
    67    69    71    1
    68    69    72    1
    69    58    60    1
    70    58    61    1
    71    26    27    1
    72    37    38    1
    73    40    42    1
    74    41    43    1
    75    41    44    1
    76    30    32    1
    77    30    33    1
    78    12    18    1
    79     5    19    1
@<TRIPOS>MOLECULE
*****
 77 79 0 0 0
SMALL
GASTEIGER

@<TRIPOS>ATOM
      1 C          -9.3078  -10.7869   30.9946 C.ar    1  UNL1        0.1694
      2 C         -10.4697  -11.5773   30.8215 C.ar    1  UNL1        0.1811
      3 C         -10.3955  -12.7429   30.0535 C.ar    1  UNL1        0.1358
      4 C          -9.2302  -13.0932   29.3874 C.ar    1  UNL1        0.2879
      5 O          -9.2462  -14.1948   28.6558 O.3     1  UNL1       -0.5464
      6 C          -8.2366  -14.5927   27.8972 C.ar    1  UNL1        0.2866
      7 C          -8.3699  -15.7831   27.1607 C.ar    1  UNL1        0.0996
      8 C          -9.6255  -16.6112   27.2975 C.3     1  UNL1        0.0431
      9 C          -7.3271  -16.1942   26.3086 C.ar    1  UNL1        0.1425
     10 C          -6.1670  -15.4110   26.1811 C.ar    1  UNL1        0.0501
     11 C          -6.0559  -14.1911   26.8788 C.ar    1  UNL1        0.1441
     12 O          -4.9615  -13.3731   26.5745 O.3     1  UNL1       -0.5053
     13 C          -7.0660  -13.8080   27.8081 C.ar    1  UNL1        0.1597
     14 C          -6.9668  -12.6811   28.6656 C.2     1  UNL1        0.2146
     15 O          -5.8925  -12.0326   28.7079 O.2     1  UNL1       -0.2859
     16 C          -8.0697  -12.2973   29.4811 C.ar    1  UNL1        0.1263
     17 C          -8.0872  -11.1649   30.3655 C.ar    1  UNL1        0.0304
     18 H          -4.9705  -12.3658   26.6491 H       1  UNL1        0.2922
     19 H         -10.0182  -14.7255   28.6756 H       1  UNL1        0.5634
     20 C         -10.0520   -8.4226   31.5554 C.3     1  UNL1        0.2526
     21 O          -9.3053   -9.6136   31.7790 O.3     1  UNL1       -0.4687
     22 O          -7.4709  -17.3283   25.5015 O.3     1  UNL1       -0.4659
     23 C          -8.7089  -17.7277   24.9220 C.3     1  UNL1        0.2893
     24 C          -8.6781  -17.4900   23.4419 C.2     1  UNL1        0.2673
     25 O          -8.6099  -16.3079   23.0092 O.2     1  UNL1       -0.2711
     26 N          -8.6478  -18.5981   22.5266 N.am    1  UNL1       -0.2953
     27 H          -8.9074  -19.5431   22.8867 H       1  UNL1        0.1499
     28 C          -8.3424  -18.4438   21.0986 C.3     1  UNL1        0.1485
     29 C          -6.9443  -18.9188   20.7863 C.2     1  UNL1        0.2372
     30 N          -6.3014  -18.5122   19.5786 N.am    1  UNL1       -0.3275
     31 O          -6.3541  -19.7139   21.5670 O.2     1  UNL1       -0.2736
     32 H          -5.3402  -18.8518   19.3534 H       1  UNL1        0.1450
     33 H          -6.7852  -17.8782   18.9046 H       1  UNL1        0.1450
     34 C          -9.3871  -19.1782   20.2280 C.3     1  UNL1        0.0325
     35 C         -10.8406  -18.7565   20.5221 C.3     1  UNL1        0.0450
     36 C         -11.0780  -17.2864   20.1639 C.3     1  UNL1        0.1740
     37 N         -12.2465  -16.7615   20.8722 N.pl3   1  UNL1       -0.2625
     38 H         -13.1504  -16.6358   20.3618 H       1  UNL1        0.2587
     39 C         -12.2052  -16.4327   22.2672 C.cat   1  UNL1        0.3769
     40 N         -11.3872  -15.5259   22.7013 N.pl3   1  UNL1       -0.1298
     41 N         -13.0670  -17.1159   23.1803 N.pl3   1  UNL1       -0.2892
     42 H         -11.3366  -15.2708   23.7128 H       1  UNL1        0.3062
     43 H         -13.7455  -17.8280   22.8318 H       1  UNL1        0.2546
     44 H         -13.0372  -16.9103   24.2037 H       1  UNL1        0.2546
     45 C          -5.1025  -15.8164   25.1838 C.3     1  UNL1        0.0578
     46 C          -5.4572  -15.3266   23.8011 C.2     1  UNL1       -0.0297
     47 C          -5.0003  -15.9062   22.6716 C.2     1  UNL1       -0.0475
     48 C          -4.0843  -17.1060   22.7140 C.3     1  UNL1        0.0260
     49 C          -5.4237  -15.3342   21.3437 C.3     1  UNL1        0.0260
     50 O         -11.6810  -11.1900   31.4200 O.3     1  UNL1       -0.4623
     51 C         -12.9445  -11.8334   31.2489 C.3     1  UNL1        0.2895
     52 C         -13.1196  -12.9347   32.2533 C.2     1  UNL1        0.2673
     53 O         -14.0251  -12.8345   33.1251 O.2     1  UNL1       -0.2711
     54 N         -12.2409  -14.0701   32.2447 N.am    1  UNL1       -0.2953
     55 H         -11.5759  -14.1713   31.4446 H       1  UNL1        0.1499
     56 C         -12.3320  -15.1502   33.2364 C.3     1  UNL1        0.1485
     57 C         -13.4686  -16.0903   32.9142 C.2     1  UNL1        0.2372
     58 N         -14.8057  -15.7449   33.2766 N.am    1  UNL1       -0.3275
     59 O         -13.2560  -17.1639   32.2883 O.2     1  UNL1       -0.2736
     60 H         -15.0111  -14.8447   33.7642 H       1  UNL1        0.1450
     61 H         -15.5970  -16.3841   33.0414 H       1  UNL1        0.1450
     62 C         -12.4525  -14.5824   34.6652 C.3     1  UNL1        0.0325
     63 C         -11.1150  -14.0902   35.2493 C.3     1  UNL1        0.0450
     64 C         -10.2527  -13.3770   34.1982 C.3     1  UNL1        0.1740
     65 N          -9.1829  -12.5900   34.8141 N.pl3   1  UNL1       -0.2625
     66 H          -8.6421  -12.9949   35.6118 H       1  UNL1        0.2587
     67 C          -8.8357  -11.2695   34.3618 C.cat   1  UNL1        0.3769
     68 N          -9.7093  -10.3157   34.4279 N.pl3   1  UNL1       -0.1298
     69 N          -7.5300  -10.9800   33.8526 N.pl3   1  UNL1       -0.2892
     70 H         -10.6727  -10.4748   34.7984 H       1  UNL1        0.3062
     71 H          -6.7856  -11.7075   33.7958 H       1  UNL1        0.2546
     72 H          -7.2926  -10.0124   33.5395 H       1  UNL1        0.2546
     73 C          -6.8352  -10.3476   30.6821 C.3     1  UNL1        0.0552
     74 C          -6.8758   -8.9629   30.0711 C.2     1  UNL1       -0.0298
     75 C          -6.4463   -7.8329   30.6761 C.2     1  UNL1       -0.0475
     76 C          -6.5858   -6.5273   29.9359 C.3     1  UNL1        0.0260
     77 C          -5.8531   -7.8365   32.0633 C.3     1  UNL1        0.0260
@<TRIPOS>BOND
     1    20    21    1
     2    21     1    1
     3     1     2   ar
     4     2    50    1
     5    50    51    1
     6    51    52    1
     7    52    53    2
     8    52    54   am
     9    54    56    1
    10    56    62    1
    11    62    63    1
    12    63    64    1
    13    64    65    1
    14    65    67    1
    15    67    68    2
    16    67    69    1
    17    56    57    1
    18    57    58   am
    19    57    59    2
    20     2     3   ar
    21     3     4   ar
    22     4     5    1
    23     5     6    1
    24     6     7   ar
    25     7     8    1
    26     7     9   ar
    27     9    22    1
    28    22    23    1
    29    23    24    1
    30    24    25    2
    31    24    26   am
    32    26    28    1
    33    28    34    1
    34    34    35    1
    35    35    36    1
    36    36    37    1
    37    37    39    1
    38    39    40    2
    39    39    41    1
    40    28    29    1
    41    29    30   am
    42    29    31    2
    43     9    10   ar
    44    10    45    1
    45    45    46    1
    46    46    47    2
    47    47    48    1
    48    47    49    1
    49    10    11   ar
    50    11    12    1
    51    11    13   ar
    52    13    14    1
    53    14    15    2
    54    14    16    1
    55    16    17   ar
    56    17    73    1
    57    73    74    1
    58    74    75    2
    59    75    76    1
    60    75    77    1
    61    17     1   ar
    62    16     4   ar
    63    13     6   ar
    64    54    55    1
    65    65    66    1
    66    68    70    1
    67    69    71    1
    68    69    72    1
    69    58    60    1
    70    58    61    1
    71    26    27    1
    72    37    38    1
    73    40    42    1
    74    41    43    1
    75    41    44    1
    76    30    32    1
    77    30    33    1
    78    12    18    1
    79     5    19    1
@<TRIPOS>MOLECULE
*****
 77 79 0 0 0
SMALL
GASTEIGER

@<TRIPOS>ATOM
      1 C          -8.2555  -11.0405   31.4527 C.ar    1  UNL1        0.1694
      2 C          -6.8734  -10.8193   31.2396 C.ar    1  UNL1        0.1811
      3 C          -6.2344  -11.4609   30.1748 C.ar    1  UNL1        0.1358
      4 C          -6.9067  -12.3757   29.3775 C.ar    1  UNL1        0.2879
      5 O          -6.2268  -12.9646   28.4081 O.3     1  UNL1       -0.5464
      6 C          -6.7187  -13.9219   27.6368 C.ar    1  UNL1        0.2866
      7 C          -5.8990  -14.4756   26.6374 C.ar    1  UNL1        0.0996
      8 C          -4.5077  -13.9286   26.4222 C.3     1  UNL1        0.0431
      9 C          -6.3875  -15.5300   25.8424 C.ar    1  UNL1        0.1425
     10 C          -7.6801  -16.0383   26.0576 C.ar    1  UNL1        0.0501
     11 C          -8.4819  -15.5188   27.0942 C.ar    1  UNL1        0.1441
     12 O          -9.6823  -16.1825   27.3734 O.3     1  UNL1       -0.5053
     13 C          -8.0318  -14.3963   27.8479 C.ar    1  UNL1        0.1597
     14 C          -8.8297  -13.7112   28.8013 C.2     1  UNL1        0.2146
     15 O         -10.0401  -14.0206   28.9270 O.2     1  UNL1       -0.2859
     16 C          -8.2675  -12.6731   29.5983 C.ar    1  UNL1        0.1263
     17 C          -8.9745  -11.9318   30.6058 C.ar    1  UNL1        0.0304
     18 H         -10.1156  -16.2076   28.2856 H       1  UNL1        0.2922
     19 H          -5.3442  -12.6879   28.2580 H       1  UNL1        0.5634
     20 C          -8.9027  -10.6875   33.8847 C.3     1  UNL1        0.2526
     21 O          -8.9686  -10.4044   32.4913 O.3     1  UNL1       -0.4687
     22 O          -5.5623  -16.1543   24.9002 O.3     1  UNL1       -0.4659
     23 C          -5.4712  -15.7412   23.5404 C.3     1  UNL1        0.2893
     24 C          -5.1695  -16.9233   22.6687 C.2     1  UNL1        0.2673
     25 O          -4.0988  -17.5641   22.8487 O.2     1  UNL1       -0.2711
     26 N          -6.1238  -17.3698   21.6908 N.am    1  UNL1       -0.2953
     27 H          -6.8947  -16.7196   21.4204 H       1  UNL1        0.1499
     28 C          -6.0163  -18.6641   21.0056 C.3     1  UNL1        0.1485
     29 C          -7.3331  -19.0631   20.3854 C.2     1  UNL1        0.2372
     30 N          -8.4986  -18.2684   20.6030 N.am    1  UNL1       -0.3275
     31 O          -7.4220  -20.1243   19.7103 O.2     1  UNL1       -0.2736
     32 H          -9.4138  -18.5508   20.1875 H       1  UNL1        0.1450
     33 H          -8.4522  -17.4021   21.1840 H       1  UNL1        0.1450
     34 C          -4.8888  -18.6375   19.9488 C.3     1  UNL1        0.0325
     35 C          -3.9174  -19.8301   20.0536 C.3     1  UNL1        0.0450
     36 C          -2.5329  -19.3813   20.5308 C.3     1  UNL1        0.1740
     37 N          -2.1317  -18.1403   19.8663 N.pl3   1  UNL1       -0.2625
     38 H          -2.5312  -17.8993   18.9305 H       1  UNL1        0.2587
     39 C          -1.2178  -17.2157   20.4710 C.cat   1  UNL1        0.3769
     40 N          -0.1742  -16.8073   19.8197 N.pl3   1  UNL1       -0.1298
     41 N          -1.4593  -16.7504   21.8008 N.pl3   1  UNL1       -0.2892
     42 H           0.5074  -16.1365   20.2395 H       1  UNL1        0.3062
     43 H          -2.3118  -17.0560   22.3191 H       1  UNL1        0.2546
     44 H          -0.7947  -16.0958   22.2702 H       1  UNL1        0.2546
     45 C          -8.1487  -17.2383   25.2623 C.3     1  UNL1        0.0578
     46 C          -9.1567  -16.8224   24.2189 C.2     1  UNL1       -0.0297
     47 C         -10.2724  -17.5299   23.9454 C.2     1  UNL1       -0.0475
     48 C         -10.5947  -18.8113   24.6765 C.3     1  UNL1        0.0260
     49 C         -11.2115  -17.0168   22.8847 C.3     1  UNL1        0.0260
     50 O          -6.1576   -9.9607   32.0918 O.3     1  UNL1       -0.4623
     51 C          -5.0487   -9.1418   31.7187 C.3     1  UNL1        0.2895
     52 C          -5.5196   -7.8825   31.0517 C.2     1  UNL1        0.2673
     53 O          -4.7025   -6.9393   30.8704 O.2     1  UNL1       -0.2711
     54 N          -6.8936   -7.7396   30.6603 N.am    1  UNL1       -0.2953
     55 H          -7.5135   -8.5786   30.7264 H       1  UNL1        0.1499
     56 C          -7.4209   -6.5101   30.0533 C.3     1  UNL1        0.1485
     57 C          -7.2577   -5.3313   30.9824 C.2     1  UNL1        0.2372
     58 N          -6.9988   -4.0324   30.4494 N.am    1  UNL1       -0.3275
     59 O          -7.3893   -5.4727   32.2283 O.2     1  UNL1       -0.2736
     60 H          -6.9207   -3.8840   29.4187 H       1  UNL1        0.1450
     61 H          -6.9014   -3.2112   31.0868 H       1  UNL1        0.1450
     62 C          -8.8895   -6.6918   29.6192 C.3     1  UNL1        0.0325
     63 C          -9.7404   -5.4167   29.7691 C.3     1  UNL1        0.0450
     64 C         -11.1230   -5.7115   30.3681 C.3     1  UNL1        0.1740
     65 N         -11.3305   -7.1451   30.5797 N.pl3   1  UNL1       -0.2625
     66 H         -10.6111   -7.8234   30.2403 H       1  UNL1        0.2587
     67 C         -12.4929   -7.6682   31.2461 C.cat   1  UNL1        0.3769
     68 N         -13.6180   -7.0310   31.1737 N.pl3   1  UNL1       -0.1298
     69 N         -12.4373   -8.8963   31.9788 N.pl3   1  UNL1       -0.2892
     70 H         -13.7115   -6.1350   30.6453 H       1  UNL1        0.3062
     71 H         -11.5612   -9.4564   32.0520 H       1  UNL1        0.2546
     72 H         -13.2945   -9.2663   32.4466 H       1  UNL1        0.2546
     73 C         -10.4863  -12.0420   30.8008 C.3     1  UNL1        0.0552
     74 C         -10.8607  -13.0166   31.8974 C.2     1  UNL1       -0.0298
     75 C         -12.1123  -13.2136   32.3688 C.2     1  UNL1       -0.0475
     76 C         -12.3080  -14.2045   33.4877 C.3     1  UNL1        0.0260
     77 C         -13.3053  -12.4664   31.8261 C.3     1  UNL1        0.0260
@<TRIPOS>BOND
     1    20    21    1
     2    21     1    1
     3     1     2   ar
     4     2    50    1
     5    50    51    1
     6    51    52    1
     7    52    53    2
     8    52    54   am
     9    54    56    1
    10    56    62    1
    11    62    63    1
    12    63    64    1
    13    64    65    1
    14    65    67    1
    15    67    68    2
    16    67    69    1
    17    56    57    1
    18    57    58   am
    19    57    59    2
    20     2     3   ar
    21     3     4   ar
    22     4     5    1
    23     5     6    1
    24     6     7   ar
    25     7     8    1
    26     7     9   ar
    27     9    22    1
    28    22    23    1
    29    23    24    1
    30    24    25    2
    31    24    26   am
    32    26    28    1
    33    28    34    1
    34    34    35    1
    35    35    36    1
    36    36    37    1
    37    37    39    1
    38    39    40    2
    39    39    41    1
    40    28    29    1
    41    29    30   am
    42    29    31    2
    43     9    10   ar
    44    10    45    1
    45    45    46    1
    46    46    47    2
    47    47    48    1
    48    47    49    1
    49    10    11   ar
    50    11    12    1
    51    11    13   ar
    52    13    14    1
    53    14    15    2
    54    14    16    1
    55    16    17   ar
    56    17    73    1
    57    73    74    1
    58    74    75    2
    59    75    76    1
    60    75    77    1
    61    17     1   ar
    62    16     4   ar
    63    13     6   ar
    64    54    55    1
    65    65    66    1
    66    68    70    1
    67    69    71    1
    68    69    72    1
    69    58    60    1
    70    58    61    1
    71    26    27    1
    72    37    38    1
    73    40    42    1
    74    41    43    1
    75    41    44    1
    76    30    32    1
    77    30    33    1
    78    12    18    1
    79     5    19    1
@<TRIPOS>MOLECULE
*****
 77 79 0 0 0
SMALL
GASTEIGER

@<TRIPOS>ATOM
      1 C          -6.7591  -16.4852   24.7148 C.ar    1  UNL1        0.1694
      2 C          -5.5617  -15.7322   24.6526 C.ar    1  UNL1        0.1811
      3 C          -5.3058  -14.7723   25.6360 C.ar    1  UNL1        0.1358
      4 C          -6.2399  -14.4829   26.6199 C.ar    1  UNL1        0.2879
      5 O          -5.9382  -13.5410   27.4979 O.3     1  UNL1       -0.5464
      6 C          -6.7731  -13.1025   28.4273 C.ar    1  UNL1        0.2866
      7 C          -6.3403  -12.0937   29.3060 C.ar    1  UNL1        0.0996
      8 C          -4.9230  -11.5795   29.2154 C.3     1  UNL1        0.0431
      9 C          -7.2315  -11.5786   30.2666 C.ar    1  UNL1        0.1425
     10 C          -8.5513  -12.0570   30.3358 C.ar    1  UNL1        0.0501
     11 C          -9.0006  -13.0304   29.4205 C.ar    1  UNL1        0.1441
     12 O         -10.3670  -13.3349   29.4239 O.3     1  UNL1       -0.5053
     13 C          -8.0850  -13.6196   28.5012 C.ar    1  UNL1        0.1597
     14 C          -8.4071  -14.7106   27.6520 C.2     1  UNL1        0.2146
     15 O          -9.5194  -15.2797   27.7763 O.2     1  UNL1       -0.2859
     16 C          -7.4730  -15.1651   26.6775 C.ar    1  UNL1        0.1263
     17 C          -7.7024  -16.2414   25.7538 C.ar    1  UNL1        0.0304
     18 H         -10.8781  -13.6499   28.6115 H       1  UNL1        0.2922
     19 H          -5.0824  -13.1613   27.4599 H       1  UNL1        0.5634
     20 C          -7.3484  -17.3153   22.3863 C.3     1  UNL1        0.2526
     21 O          -7.0678  -17.4881   23.7710 O.3     1  UNL1       -0.4687
     22 O          -6.8519  -10.5162   31.0945 O.3     1  UNL1       -0.4659
     23 C          -6.1839   -9.3513   30.6204 C.3     1  UNL1        0.2893
     24 C          -7.1057   -8.5576   29.7436 C.2     1  UNL1        0.2673
     25 O          -6.7942   -8.3647   28.5373 O.2     1  UNL1       -0.2711
     26 N          -8.3668   -8.0878   30.2489 N.am    1  UNL1       -0.2953
     27 H          -8.5120   -8.0789   31.2828 H       1  UNL1        0.1499
     28 C          -9.4235   -7.5526   29.3809 C.3     1  UNL1        0.1485
     29 C         -10.4692   -8.6003   29.0868 C.2     1  UNL1        0.2372
     30 N         -11.4119   -8.9748   30.0909 N.am    1  UNL1       -0.3275
     31 O         -10.4875   -9.1837   27.9690 O.2     1  UNL1       -0.2736
     32 H         -12.1264   -9.7103   29.8946 H       1  UNL1        0.1450
     33 H         -11.3941   -8.5250   31.0330 H       1  UNL1        0.1450
     34 C         -10.0609   -6.2890   30.0018 C.3     1  UNL1        0.0325
     35 C          -9.2325   -5.0079   29.7795 C.3     1  UNL1        0.0450
     36 C          -7.8984   -5.0694   30.5294 C.3     1  UNL1        0.1740
     37 N          -8.0896   -5.5785   31.8884 N.pl3   1  UNL1       -0.2625
     38 H          -8.9995   -5.4211   32.3791 H       1  UNL1        0.2587
     39 C          -7.0702   -6.3187   32.5731 C.cat   1  UNL1        0.3769
     40 N          -7.3709   -7.0484   33.6012 N.pl3   1  UNL1       -0.1298
     41 N          -5.7166   -6.2428   32.1201 N.pl3   1  UNL1       -0.2892
     42 H          -6.6460   -7.5943   34.1181 H       1  UNL1        0.3062
     43 H          -5.4741   -5.6775   31.2772 H       1  UNL1        0.2546
     44 H          -4.9539   -6.7539   32.6177 H       1  UNL1        0.2546
     45 C          -9.5231  -11.4194   31.3060 C.3     1  UNL1        0.0578
     46 C          -9.8527  -12.3717   32.4294 C.2     1  UNL1       -0.0297
     47 C         -11.1154  -12.6876   32.7844 C.2     1  UNL1       -0.0475
     48 C         -12.3080  -12.0978   32.0702 C.3     1  UNL1        0.0260
     49 C         -11.3261  -13.6545   33.9205 C.3     1  UNL1        0.0260
     50 O          -4.6432  -15.9538   23.6120 O.3     1  UNL1       -0.4623
     51 C          -4.4312  -15.1025   22.4850 C.3     1  UNL1        0.2895
     52 C          -4.2550  -15.9125   21.2339 C.2     1  UNL1        0.2673
     53 O          -4.7212  -15.4755   20.1469 O.2     1  UNL1       -0.2711
     54 N          -3.5972  -17.1878   21.2826 N.am    1  UNL1       -0.2953
     55 H          -3.1298  -17.4663   22.1750 H       1  UNL1        0.1499
     56 C          -3.4447  -18.0464   20.1002 C.3     1  UNL1        0.1485
     57 C          -3.6114  -19.5030   20.4604 C.2     1  UNL1        0.2372
     58 N          -2.6177  -20.1630   21.2450 N.am    1  UNL1       -0.3275
     59 O          -4.6436  -20.1369   20.1104 O.2     1  UNL1       -0.2736
     60 H          -1.7713  -19.6493   21.5766 H       1  UNL1        0.1450
     61 H          -2.7365  -21.1657   21.5105 H       1  UNL1        0.1450
     62 C          -2.0976  -17.7862   19.3960 C.3     1  UNL1        0.0325
     63 C          -0.9671  -17.3744   20.3576 C.3     1  UNL1        0.0450
     64 C           0.3568  -18.0789   20.0288 C.3     1  UNL1        0.1740
     65 N           0.9267  -18.7429   21.2024 N.pl3   1  UNL1       -0.2625
     66 H           1.2135  -18.1691   22.0278 H       1  UNL1        0.2587
     67 C           1.1074  -20.1681   21.2730 C.cat   1  UNL1        0.3769
     68 N           0.0795  -20.9409   21.4251 N.pl3   1  UNL1       -0.1298
     69 N           2.4070  -20.7568   21.1602 N.pl3   1  UNL1       -0.2892
     70 H          -0.8899  -20.5602   21.5048 H       1  UNL1        0.3062
     71 H           3.2639  -20.1804   21.0183 H       1  UNL1        0.2546
     72 H           2.5174  -21.7943   21.2023 H       1  UNL1        0.2546
     73 C          -8.9187  -17.1621   25.8473 C.3     1  UNL1        0.0552
     74 C          -9.8703  -16.9872   24.6827 C.2     1  UNL1       -0.0298
     75 C         -10.6066  -17.9742   24.1250 C.2     1  UNL1       -0.0475
     76 C         -11.4854  -17.6341   22.9485 C.3     1  UNL1        0.0260
     77 C         -10.5630  -19.3957   24.6285 C.3     1  UNL1        0.0260
@<TRIPOS>BOND
     1    20    21    1
     2    21     1    1
     3     1     2   ar
     4     2    50    1
     5    50    51    1
     6    51    52    1
     7    52    53    2
     8    52    54   am
     9    54    56    1
    10    56    62    1
    11    62    63    1
    12    63    64    1
    13    64    65    1
    14    65    67    1
    15    67    68    2
    16    67    69    1
    17    56    57    1
    18    57    58   am
    19    57    59    2
    20     2     3   ar
    21     3     4   ar
    22     4     5    1
    23     5     6    1
    24     6     7   ar
    25     7     8    1
    26     7     9   ar
    27     9    22    1
    28    22    23    1
    29    23    24    1
    30    24    25    2
    31    24    26   am
    32    26    28    1
    33    28    34    1
    34    34    35    1
    35    35    36    1
    36    36    37    1
    37    37    39    1
    38    39    40    2
    39    39    41    1
    40    28    29    1
    41    29    30   am
    42    29    31    2
    43     9    10   ar
    44    10    45    1
    45    45    46    1
    46    46    47    2
    47    47    48    1
    48    47    49    1
    49    10    11   ar
    50    11    12    1
    51    11    13   ar
    52    13    14    1
    53    14    15    2
    54    14    16    1
    55    16    17   ar
    56    17    73    1
    57    73    74    1
    58    74    75    2
    59    75    76    1
    60    75    77    1
    61    17     1   ar
    62    16     4   ar
    63    13     6   ar
    64    54    55    1
    65    65    66    1
    66    68    70    1
    67    69    71    1
    68    69    72    1
    69    58    60    1
    70    58    61    1
    71    26    27    1
    72    37    38    1
    73    40    42    1
    74    41    43    1
    75    41    44    1
    76    30    32    1
    77    30    33    1
    78    12    18    1
    79     5    19    1
@<TRIPOS>MOLECULE
*****
 77 79 0 0 0
SMALL
GASTEIGER

@<TRIPOS>ATOM
      1 C          -8.2390  -11.2481   31.4190 C.ar    1  UNL1        0.1694
      2 C          -6.8547  -11.0407   31.2058 C.ar    1  UNL1        0.1811
      3 C          -6.2317  -11.6527   30.1143 C.ar    1  UNL1        0.1358
      4 C          -6.9227  -12.5270   29.2881 C.ar    1  UNL1        0.2879
      5 O          -6.2575  -13.0904   28.2936 O.3     1  UNL1       -0.5464
      6 C          -6.7687  -14.0110   27.4908 C.ar    1  UNL1        0.2866
      7 C          -5.9633  -14.5403   26.4668 C.ar    1  UNL1        0.0996
      8 C          -4.5648  -14.0074   26.2634 C.3     1  UNL1        0.0431
      9 C          -6.4727  -15.5571   25.6368 C.ar    1  UNL1        0.1425
     10 C          -7.7720  -16.0528   25.8410 C.ar    1  UNL1        0.0501
     11 C          -8.5598  -15.5593   26.9008 C.ar    1  UNL1        0.1441
     12 O          -9.7690  -16.2141   27.1628 O.3     1  UNL1       -0.5053
     13 C          -8.0879  -14.4724   27.6923 C.ar    1  UNL1        0.1597
     14 C          -8.8697  -13.8104   28.6750 C.2     1  UNL1        0.2146
     15 O         -10.0841  -14.1054   28.7967 O.2     1  UNL1       -0.2859
     16 C          -8.2869  -12.8112   29.5061 C.ar    1  UNL1        0.1263
     17 C          -8.9765  -12.0965   30.5443 C.ar    1  UNL1        0.0304
     18 H         -10.1975  -16.2659   28.0761 H       1  UNL1        0.2922
     19 H          -5.3716  -12.8221   28.1484 H       1  UNL1        0.5634
     20 C          -8.7402  -10.8507   33.8784 C.3     1  UNL1        0.2526
     21 O          -8.9362  -10.6396   32.4845 O.3     1  UNL1       -0.4687
     22 O          -5.6627  -16.1590   24.6673 O.3     1  UNL1       -0.4659
     23 C          -5.2828  -15.5182   23.4536 C.3     1  UNL1        0.2893
     24 C          -4.8806  -16.5468   22.4394 C.2     1  UNL1        0.2673
     25 O          -5.6184  -16.7443   21.4365 O.2     1  UNL1       -0.2711
     26 N          -3.6307  -17.2453   22.5666 N.am    1  UNL1       -0.2953
     27 H          -3.1422  -17.2195   23.4890 H       1  UNL1        0.1499
     28 C          -3.0542  -18.0508   21.4824 C.3     1  UNL1        0.1485
     29 C          -1.5492  -17.9399   21.4626 C.2     1  UNL1        0.2372
     30 N          -0.9256  -16.6622   21.3367 N.am    1  UNL1       -0.3275
     31 O          -0.8348  -18.9778   21.5105 O.2     1  UNL1       -0.2736
     32 H           0.1151  -16.5846   21.3074 H       1  UNL1        0.1450
     33 H          -1.5002  -15.7933   21.2653 H       1  UNL1        0.1450
     34 C          -3.5022  -19.5259   21.5923 C.3     1  UNL1        0.0325
     35 C          -4.0883  -20.0913   20.2832 C.3     1  UNL1        0.0450
     36 C          -5.5795  -20.4083   20.4311 C.3     1  UNL1        0.1740
     37 N          -6.1318  -19.7630   21.6233 N.pl3   1  UNL1       -0.2625
     38 H          -5.5196  -19.5955   22.4543 H       1  UNL1        0.2587
     39 C          -7.4945  -19.3216   21.6861 C.cat   1  UNL1        0.3769
     40 N          -8.3345  -19.9043   22.4828 N.pl3   1  UNL1       -0.1298
     41 N          -7.9254  -18.2380   20.8594 N.pl3   1  UNL1       -0.2892
     42 H          -9.3326  -19.6030   22.5444 H       1  UNL1        0.3062
     43 H          -7.2465  -17.7489   20.2359 H       1  UNL1        0.2546
     44 H          -8.9185  -17.9154   20.8706 H       1  UNL1        0.2546
     45 C          -8.2638  -17.2154   25.0052 C.3     1  UNL1        0.0578
     46 C          -9.2587  -16.7432   23.9732 C.2     1  UNL1       -0.0297
     47 C         -10.4467  -17.3467   23.7611 C.2     1  UNL1       -0.0475
     48 C         -10.8697  -18.5595   24.5551 C.3     1  UNL1        0.0260
     49 C         -11.3640  -16.7855   22.7059 C.3     1  UNL1        0.0260
     50 O          -6.1208  -10.2252   32.0844 O.3     1  UNL1       -0.4623
     51 C          -5.3039   -9.1143   31.7128 C.3     1  UNL1        0.2895
     52 C          -6.0378   -8.2085   30.7677 C.2     1  UNL1        0.2673
     53 O          -5.7289   -8.2137   29.5452 O.2     1  UNL1       -0.2711
     54 N          -7.0529   -7.3190   31.2574 N.am    1  UNL1       -0.2953
     55 H          -7.3568   -7.4198   32.2524 H       1  UNL1        0.1499
     56 C          -7.7650   -6.3735   30.3872 C.3     1  UNL1        0.1485
     57 C          -6.9704   -5.1039   30.1978 C.2     1  UNL1        0.2372
     58 N          -7.5712   -3.8379   30.4710 N.am    1  UNL1       -0.3275
     59 O          -5.7625   -5.1499   29.8393 O.2     1  UNL1       -0.2736
     60 H          -8.5593   -3.7763   30.8030 H       1  UNL1        0.1450
     61 H          -7.0207   -2.9580   30.3573 H       1  UNL1        0.1450
     62 C          -9.1805   -6.0824   30.9256 C.3     1  UNL1        0.0325
     63 C         -10.3006   -6.3769   29.9102 C.3     1  UNL1        0.0450
     64 C         -10.4160   -7.8751   29.5952 C.3     1  UNL1        0.1740
     65 N         -10.5066   -8.6824   30.8130 N.pl3   1  UNL1       -0.2625
     66 H          -9.6567   -9.1803   31.1630 H       1  UNL1        0.2587
     67 C         -11.7274   -8.8190   31.5612 C.cat   1  UNL1        0.3769
     68 N         -12.8222   -8.2959   31.1085 N.pl3   1  UNL1       -0.1298
     69 N         -11.7628   -9.5411   32.7963 N.pl3   1  UNL1       -0.2892
     70 H         -12.8496   -7.7662   30.2088 H       1  UNL1        0.3062
     71 H         -10.9138   -9.9964   33.1944 H       1  UNL1        0.2546
     72 H         -12.6610   -9.6395   33.3199 H       1  UNL1        0.2546
     73 C         -10.4888  -12.1902   30.7444 C.3     1  UNL1        0.0552
     74 C         -10.8674  -13.1078   31.8877 C.2     1  UNL1       -0.0298
     75 C         -12.1148  -13.2532   32.3879 C.2     1  UNL1       -0.0475
     76 C         -12.3148  -14.1906   33.5512 C.3     1  UNL1        0.0260
     77 C         -13.2987  -12.4999   31.8336 C.3     1  UNL1        0.0260
@<TRIPOS>BOND
     1    20    21    1
     2    21     1    1
     3     1     2   ar
     4     2    50    1
     5    50    51    1
     6    51    52    1
     7    52    53    2
     8    52    54   am
     9    54    56    1
    10    56    62    1
    11    62    63    1
    12    63    64    1
    13    64    65    1
    14    65    67    1
    15    67    68    2
    16    67    69    1
    17    56    57    1
    18    57    58   am
    19    57    59    2
    20     2     3   ar
    21     3     4   ar
    22     4     5    1
    23     5     6    1
    24     6     7   ar
    25     7     8    1
    26     7     9   ar
    27     9    22    1
    28    22    23    1
    29    23    24    1
    30    24    25    2
    31    24    26   am
    32    26    28    1
    33    28    34    1
    34    34    35    1
    35    35    36    1
    36    36    37    1
    37    37    39    1
    38    39    40    2
    39    39    41    1
    40    28    29    1
    41    29    30   am
    42    29    31    2
    43     9    10   ar
    44    10    45    1
    45    45    46    1
    46    46    47    2
    47    47    48    1
    48    47    49    1
    49    10    11   ar
    50    11    12    1
    51    11    13   ar
    52    13    14    1
    53    14    15    2
    54    14    16    1
    55    16    17   ar
    56    17    73    1
    57    73    74    1
    58    74    75    2
    59    75    76    1
    60    75    77    1
    61    17     1   ar
    62    16     4   ar
    63    13     6   ar
    64    54    55    1
    65    65    66    1
    66    68    70    1
    67    69    71    1
    68    69    72    1
    69    58    60    1
    70    58    61    1
    71    26    27    1
    72    37    38    1
    73    40    42    1
    74    41    43    1
    75    41    44    1
    76    30    32    1
    77    30    33    1
    78    12    18    1
    79     5    19    1
@<TRIPOS>MOLECULE
*****
 77 79 0 0 0
SMALL
GASTEIGER

@<TRIPOS>ATOM
      1 C          -8.9706  -11.5716   30.9730 C.ar    1  UNL1        0.1694
      2 C         -10.1551  -12.3142   30.7492 C.ar    1  UNL1        0.1811
      3 C         -10.1372  -13.3708   29.8341 C.ar    1  UNL1        0.1358
      4 C          -9.0078  -13.6497   29.0786 C.ar    1  UNL1        0.2879
      5 O          -9.0771  -14.6461   28.2118 O.3     1  UNL1       -0.5464
      6 C          -8.1078  -14.9576   27.3652 C.ar    1  UNL1        0.2866
      7 C          -8.2964  -16.0396   26.4871 C.ar    1  UNL1        0.0996
      8 C          -9.5628  -16.8585   26.5694 C.3     1  UNL1        0.0431
      9 C          -7.2983  -16.3526   25.5447 C.ar    1  UNL1        0.1425
     10 C          -6.1279  -15.5780   25.4698 C.ar    1  UNL1        0.0501
     11 C          -5.9625  -14.4614   26.3142 C.ar    1  UNL1        0.1441
     12 O          -4.8641  -13.6281   26.0715 O.3     1  UNL1       -0.5053
     13 C          -6.9255  -14.1866   27.3280 C.ar    1  UNL1        0.1597
     14 C          -6.7674  -13.1829   28.3193 C.2     1  UNL1        0.2146
     15 O          -5.6786  -12.5625   28.3989 O.2     1  UNL1       -0.2859
     16 C          -7.8277  -12.8912   29.2245 C.ar    1  UNL1        0.1263
     17 C          -7.7850  -11.8837   30.2480 C.ar    1  UNL1        0.0304
     18 H          -4.8485  -12.6391   26.2763 H       1  UNL1        0.2922
     19 H          -9.8587  -15.1626   28.1959 H       1  UNL1        0.5634
     20 C          -8.7260  -10.6041   33.3101 C.3     1  UNL1        0.2526
     21 O          -8.9111  -10.5108   31.9019 O.3     1  UNL1       -0.4687
     22 O          -7.4989  -17.3693   24.6044 O.3     1  UNL1       -0.4659
     23 C          -8.2822  -17.2058   23.4263 C.3     1  UNL1        0.2893
     24 C          -7.8793  -18.2239   22.4020 C.2     1  UNL1        0.2673
     25 O          -7.7718  -19.4326   22.7439 O.2     1  UNL1       -0.2711
     26 N          -7.6929  -17.8415   21.0288 N.am    1  UNL1       -0.2953
     27 H          -7.5865  -16.8263   20.8091 H       1  UNL1        0.1499
     28 C          -7.5712  -18.8183   19.9392 C.3     1  UNL1        0.1485
     29 C          -6.3033  -19.6263   20.0711 C.2     1  UNL1        0.2372
     30 N          -6.3347  -20.9161   20.6816 N.am    1  UNL1       -0.3275
     31 O          -5.2021  -19.1482   19.6854 O.2     1  UNL1       -0.2736
     32 H          -5.4563  -21.4702   20.7877 H       1  UNL1        0.1450
     33 H          -7.2319  -21.3169   21.0348 H       1  UNL1        0.1450
     34 C          -8.8128  -19.7368   19.8797 C.3     1  UNL1        0.0325
     35 C         -10.1119  -18.9940   19.5090 C.3     1  UNL1        0.0450
     36 C         -11.0777  -18.9333   20.6963 C.3     1  UNL1        0.1740
     37 N         -11.2622  -17.5525   21.1456 N.pl3   1  UNL1       -0.2625
     38 H         -11.3896  -17.3498   22.1635 H       1  UNL1        0.2587
     39 C         -11.2485  -16.4477   20.2317 C.cat   1  UNL1        0.3769
     40 N         -10.2491  -15.6225   20.2182 N.pl3   1  UNL1       -0.1298
     41 N         -12.3476  -16.2559   19.3381 N.pl3   1  UNL1       -0.2892
     42 H         -10.2174  -14.8090   19.5640 H       1  UNL1        0.3062
     43 H         -13.1420  -16.9325   19.3273 H       1  UNL1        0.2546
     44 H         -12.3707  -15.4448   18.6808 H       1  UNL1        0.2546
     45 C          -5.1138  -15.8667   24.3834 C.3     1  UNL1        0.0578
     46 C          -5.5407  -15.2390   23.0790 C.2     1  UNL1       -0.0297
     47 C          -5.0095  -15.5786   21.8862 C.2     1  UNL1       -0.0475
     48 C          -3.9299  -16.6283   21.7721 C.3     1  UNL1        0.0260
     49 C          -5.5161  -14.8881   20.6467 C.3     1  UNL1        0.0260
     50 O         -11.3326  -11.9891   31.4446 O.3     1  UNL1       -0.4623
     51 C         -12.2700  -10.9757   31.0788 C.3     1  UNL1        0.2895
     52 C         -11.7923   -9.6247   31.5251 C.2     1  UNL1        0.2673
     53 O         -12.0787   -9.2230   32.6855 O.2     1  UNL1       -0.2711
     54 N         -11.0513   -8.7847   30.6270 N.am    1  UNL1       -0.2953
     55 H         -10.7401   -9.1925   29.7162 H       1  UNL1        0.1499
     56 C         -10.6058   -7.4332   30.9919 C.3     1  UNL1        0.1485
     57 C         -11.7227   -6.4302   30.8315 C.2     1  UNL1        0.2372
     58 N         -11.5740   -5.3338   29.9292 N.am    1  UNL1       -0.3275
     59 O         -12.8083   -6.5727   31.4568 O.2     1  UNL1       -0.2736
     60 H         -10.6978   -5.2145   29.3738 H       1  UNL1        0.1450
     61 H         -12.3499   -4.6468   29.8026 H       1  UNL1        0.1450
     62 C          -9.3559   -7.0248   30.1860 C.3     1  UNL1        0.0325
     63 C          -8.4349   -6.0402   30.9306 C.3     1  UNL1        0.0450
     64 C          -7.8400   -6.6562   32.2049 C.3     1  UNL1        0.1740
     65 N          -6.4291   -6.3034   32.3730 N.pl3   1  UNL1       -0.2625
     66 H          -6.0968   -5.3594   32.0712 H       1  UNL1        0.2587
     67 C          -5.4689   -7.2078   32.9464 C.cat   1  UNL1        0.3769
     68 N          -5.8415   -8.3901   33.3211 N.pl3   1  UNL1       -0.1298
     69 N          -4.0959   -6.8332   33.0971 N.pl3   1  UNL1       -0.2892
     70 H          -6.8301   -8.7132   33.2252 H       1  UNL1        0.3062
     71 H          -3.7415   -5.9007   32.7944 H       1  UNL1        0.2546
     72 H          -3.4108   -7.5075   33.5050 H       1  UNL1        0.2546
     73 C          -6.5039  -11.1346   30.6136 C.3     1  UNL1        0.0552
     74 C          -6.5166   -9.6969   30.1391 C.2     1  UNL1       -0.0298
     75 C          -5.5053   -9.0857   29.4824 C.2     1  UNL1       -0.0475
     76 C          -5.6696   -7.6355   29.1055 C.3     1  UNL1        0.0260
     77 C          -4.2225   -9.7993   29.1337 C.3     1  UNL1        0.0260
@<TRIPOS>BOND
     1    20    21    1
     2    21     1    1
     3     1     2   ar
     4     2    50    1
     5    50    51    1
     6    51    52    1
     7    52    53    2
     8    52    54   am
     9    54    56    1
    10    56    62    1
    11    62    63    1
    12    63    64    1
    13    64    65    1
    14    65    67    1
    15    67    68    2
    16    67    69    1
    17    56    57    1
    18    57    58   am
    19    57    59    2
    20     2     3   ar
    21     3     4   ar
    22     4     5    1
    23     5     6    1
    24     6     7   ar
    25     7     8    1
    26     7     9   ar
    27     9    22    1
    28    22    23    1
    29    23    24    1
    30    24    25    2
    31    24    26   am
    32    26    28    1
    33    28    34    1
    34    34    35    1
    35    35    36    1
    36    36    37    1
    37    37    39    1
    38    39    40    2
    39    39    41    1
    40    28    29    1
    41    29    30   am
    42    29    31    2
    43     9    10   ar
    44    10    45    1
    45    45    46    1
    46    46    47    2
    47    47    48    1
    48    47    49    1
    49    10    11   ar
    50    11    12    1
    51    11    13   ar
    52    13    14    1
    53    14    15    2
    54    14    16    1
    55    16    17   ar
    56    17    73    1
    57    73    74    1
    58    74    75    2
    59    75    76    1
    60    75    77    1
    61    17     1   ar
    62    16     4   ar
    63    13     6   ar
    64    54    55    1
    65    65    66    1
    66    68    70    1
    67    69    71    1
    68    69    72    1
    69    58    60    1
    70    58    61    1
    71    26    27    1
    72    37    38    1
    73    40    42    1
    74    41    43    1
    75    41    44    1
    76    30    32    1
    77    30    33    1
    78    12    18    1
    79     5    19    1
@<TRIPOS>MOLECULE
*****
 77 79 0 0 0
SMALL
GASTEIGER

@<TRIPOS>ATOM
      1 C          -8.6432  -11.5500   30.7902 C.ar    1  UNL1        0.1694
      2 C          -9.8714  -12.2281   30.5990 C.ar    1  UNL1        0.1811
      3 C          -9.9306  -13.2945   29.6973 C.ar    1  UNL1        0.1358
      4 C          -8.8338  -13.6445   28.9234 C.ar    1  UNL1        0.2879
      5 O          -8.9757  -14.6456   28.0709 O.3     1  UNL1       -0.5464
      6 C          -8.0425  -15.0203   27.2095 C.ar    1  UNL1        0.2866
      7 C          -8.3085  -16.1002   26.3490 C.ar    1  UNL1        0.0996
      8 C          -9.6164  -16.8463   26.4665 C.3     1  UNL1        0.0431
      9 C          -7.3485  -16.4792   25.3914 C.ar    1  UNL1        0.1425
     10 C          -6.1387  -15.7718   25.2838 C.ar    1  UNL1        0.0501
     11 C          -5.8946  -14.6565   26.1106 C.ar    1  UNL1        0.1441
     12 O          -4.7569  -13.8885   25.8360 O.3     1  UNL1       -0.5053
     13 C          -6.8202  -14.3168   27.1395 C.ar    1  UNL1        0.1597
     14 C          -6.5867  -13.3121   28.1147 C.2     1  UNL1        0.2146
     15 O          -5.4639  -12.7524   28.1651 O.2     1  UNL1       -0.2859
     16 C          -7.6107  -12.9513   29.0366 C.ar    1  UNL1        0.1263
     17 C          -7.4916  -11.9360   30.0463 C.ar    1  UNL1        0.0304
     18 H          -4.6824  -12.8996   26.0279 H       1  UNL1        0.2922
     19 H          -9.7849  -15.1178   28.0768 H       1  UNL1        0.5634
     20 C          -8.4243  -10.5658   33.1229 C.3     1  UNL1        0.2526
     21 O          -8.5063  -10.4834   31.7043 O.3     1  UNL1       -0.4687
     22 O          -7.6241  -17.4940   24.4681 O.3     1  UNL1       -0.4659
     23 C          -7.7573  -17.2671   23.0685 C.3     1  UNL1        0.2893
     24 C          -8.9761  -16.4355   22.8016 C.2     1  UNL1        0.2673
     25 O          -8.9622  -15.2098   23.0963 O.2     1  UNL1       -0.2711
     26 N         -10.1200  -17.0089   22.1464 N.am    1  UNL1       -0.2953
     27 H         -10.1911  -18.0494   22.0979 H       1  UNL1        0.1499
     28 C         -11.2222  -16.1982   21.6131 C.3     1  UNL1        0.1485
     29 C         -11.4692  -16.5060   20.1563 C.2     1  UNL1        0.2372
     30 N         -10.5409  -17.3061   19.4246 N.am    1  UNL1       -0.3275
     31 O         -12.4718  -16.0206   19.5655 O.2     1  UNL1       -0.2736
     32 H         -10.7020  -17.5075   18.4130 H       1  UNL1        0.1450
     33 H          -9.6889  -17.6924   19.8883 H       1  UNL1        0.1450
     34 C         -12.5071  -16.3949   22.4491 C.3     1  UNL1        0.0325
     35 C         -12.9310  -17.8704   22.5902 C.3     1  UNL1        0.0450
     36 C         -12.9994  -18.2928   24.0609 C.3     1  UNL1        0.1740
     37 N         -11.6554  -18.4662   24.6143 N.pl3   1  UNL1       -0.2625
     38 H         -11.2710  -17.7556   25.2781 H       1  UNL1        0.2587
     39 C         -10.8436  -19.6045   24.2962 C.cat   1  UNL1        0.3769
     40 N         -10.5083  -19.8457   23.0677 N.pl3   1  UNL1       -0.1298
     41 N         -10.4105  -20.4781   25.3413 N.pl3   1  UNL1       -0.2892
     42 H          -9.9203  -20.6696   22.8105 H       1  UNL1        0.3062
     43 H         -10.6560  -20.2734   26.3347 H       1  UNL1        0.2546
     44 H          -9.8390  -21.3264   25.1306 H       1  UNL1        0.2546
     45 C          -5.1643  -16.1291   24.1816 C.3     1  UNL1        0.0578
     46 C          -5.4318  -15.3013   22.9483 C.2     1  UNL1       -0.0297
     47 C          -5.0273  -15.6629   21.7131 C.2     1  UNL1       -0.0475
     48 C          -4.2634  -16.9436   21.4750 C.3     1  UNL1        0.0260
     49 C          -5.3541  -14.7595   20.5524 C.3     1  UNL1        0.0260
     50 O         -11.0147  -11.8298   31.3131 O.3     1  UNL1       -0.4623
     51 C         -11.9558  -10.8367   30.9035 C.3     1  UNL1        0.2895
     52 C         -11.5205   -9.4739   31.3572 C.2     1  UNL1        0.2673
     53 O         -12.0496   -8.9689   32.3842 O.2     1  UNL1       -0.2711
     54 N         -10.5411   -8.7389   30.6076 N.am    1  UNL1       -0.2953
     55 H         -10.0472   -9.2307   29.8286 H       1  UNL1        0.1499
     56 C         -10.1177   -7.3808   30.9746 C.3     1  UNL1        0.1485
     57 C         -11.1477   -6.3586   30.5581 C.2     1  UNL1        0.2372
     58 N         -12.4834   -6.4473   31.0545 N.am    1  UNL1       -0.3275
     59 O         -10.8308   -5.3976   29.8059 O.2     1  UNL1       -0.2736
     60 H         -12.7607   -7.2140   31.7069 H       1  UNL1        0.1450
     61 H         -13.1950   -5.7334   30.7824 H       1  UNL1        0.1450
     62 C          -8.7276   -7.0566   30.3909 C.3     1  UNL1        0.0325
     63 C          -7.8975   -6.0996   31.2669 C.3     1  UNL1        0.0450
     64 C          -7.6057   -6.6912   32.6532 C.3     1  UNL1        0.1740
     65 N          -6.5361   -7.6896   32.6053 N.pl3   1  UNL1       -0.2625
     66 H          -6.7641   -8.6734   32.3349 H       1  UNL1        0.2587
     67 C          -5.1675   -7.3721   32.9131 C.cat   1  UNL1        0.3769
     68 N          -4.4985   -6.5831   32.1340 N.pl3   1  UNL1       -0.1298
     69 N          -4.5289   -7.8991   34.0804 N.pl3   1  UNL1       -0.2892
     70 H          -4.9220   -6.1672   31.2746 H       1  UNL1        0.3062
     71 H          -5.0288   -8.5233   34.7491 H       1  UNL1        0.2546
     72 H          -3.5379   -7.6482   34.2937 H       1  UNL1        0.2546
     73 C          -6.1639  -11.2552   30.3772 C.3     1  UNL1        0.0552
     74 C          -6.1536   -9.7888   30.0006 C.2     1  UNL1       -0.0298
     75 C          -5.1825   -9.1758   29.2873 C.2     1  UNL1       -0.0475
     76 C          -5.3130   -7.6974   29.0235 C.3     1  UNL1        0.0260
     77 C          -3.9751   -9.9158   28.7669 C.3     1  UNL1        0.0260
@<TRIPOS>BOND
     1    20    21    1
     2    21     1    1
     3     1     2   ar
     4     2    50    1
     5    50    51    1
     6    51    52    1
     7    52    53    2
     8    52    54   am
     9    54    56    1
    10    56    62    1
    11    62    63    1
    12    63    64    1
    13    64    65    1
    14    65    67    1
    15    67    68    2
    16    67    69    1
    17    56    57    1
    18    57    58   am
    19    57    59    2
    20     2     3   ar
    21     3     4   ar
    22     4     5    1
    23     5     6    1
    24     6     7   ar
    25     7     8    1
    26     7     9   ar
    27     9    22    1
    28    22    23    1
    29    23    24    1
    30    24    25    2
    31    24    26   am
    32    26    28    1
    33    28    34    1
    34    34    35    1
    35    35    36    1
    36    36    37    1
    37    37    39    1
    38    39    40    2
    39    39    41    1
    40    28    29    1
    41    29    30   am
    42    29    31    2
    43     9    10   ar
    44    10    45    1
    45    45    46    1
    46    46    47    2
    47    47    48    1
    48    47    49    1
    49    10    11   ar
    50    11    12    1
    51    11    13   ar
    52    13    14    1
    53    14    15    2
    54    14    16    1
    55    16    17   ar
    56    17    73    1
    57    73    74    1
    58    74    75    2
    59    75    76    1
    60    75    77    1
    61    17     1   ar
    62    16     4   ar
    63    13     6   ar
    64    54    55    1
    65    65    66    1
    66    68    70    1
    67    69    71    1
    68    69    72    1
    69    58    60    1
    70    58    61    1
    71    26    27    1
    72    37    38    1
    73    40    42    1
    74    41    43    1
    75    41    44    1
    76    30    32    1
    77    30    33    1
    78    12    18    1
    79     5    19    1
@<TRIPOS>MOLECULE
*****
 77 79 0 0 0
SMALL
GASTEIGER

@<TRIPOS>ATOM
      1 C          -8.3120  -11.2247   31.5015 C.ar    1  UNL1        0.1694
      2 C          -6.9407  -10.9424   31.2902 C.ar    1  UNL1        0.1811
      3 C          -6.2855  -11.5147   30.1960 C.ar    1  UNL1        0.1358
      4 C          -6.9285  -12.4206   29.3652 C.ar    1  UNL1        0.2879
      5 O          -6.2337  -12.9426   28.3683 O.3     1  UNL1       -0.5464
      6 C          -6.6946  -13.8853   27.5606 C.ar    1  UNL1        0.2866
      7 C          -5.8617  -14.3656   26.5345 C.ar    1  UNL1        0.0996
      8 C          -4.4937  -13.7576   26.3345 C.3     1  UNL1        0.0431
      9 C          -6.3157  -15.4041   25.6990 C.ar    1  UNL1        0.1425
     10 C          -7.5866  -15.9695   25.9000 C.ar    1  UNL1        0.0501
     11 C          -8.4000  -15.5242   26.9618 C.ar    1  UNL1        0.1441
     12 O          -9.5725  -16.2441   27.2198 O.3     1  UNL1       -0.5053
     13 C          -7.9873  -14.4176   27.7590 C.ar    1  UNL1        0.1597
     14 C          -8.8037  -13.8033   28.7445 C.2     1  UNL1        0.2146
     15 O         -10.0006  -14.1634   28.8639 O.2     1  UNL1       -0.2859
     16 C          -8.2755  -12.7785   29.5808 C.ar    1  UNL1        0.1263
     17 C          -9.0028  -12.1069   30.6222 C.ar    1  UNL1        0.0304
     18 H          -9.9980  -16.3233   28.1326 H       1  UNL1        0.2922
     19 H          -5.3633  -12.6266   28.2249 H       1  UNL1        0.5634
     20 C          -8.8334  -10.8654   33.9626 C.3     1  UNL1        0.2526
     21 O          -9.0411  -10.6596   32.5696 O.3     1  UNL1       -0.4687
     22 O          -5.4743  -15.9569   24.7271 O.3     1  UNL1       -0.4659
     23 C          -5.1522  -15.3031   23.5037 C.3     1  UNL1        0.2893
     24 C          -4.9794  -16.3187   22.4142 C.2     1  UNL1        0.2673
     25 O          -5.1124  -15.9617   21.2125 O.2     1  UNL1       -0.2711
     26 N          -4.5902  -17.6662   22.7295 N.am    1  UNL1       -0.2953
     27 H          -4.6842  -17.9887   23.7181 H       1  UNL1        0.1499
     28 C          -4.1406  -18.6245   21.7118 C.3     1  UNL1        0.1485
     29 C          -2.7147  -19.0527   21.9592 C.2     1  UNL1        0.2372
     30 N          -1.7777  -18.1355   22.5231 N.am    1  UNL1       -0.3275
     31 O          -2.3311  -20.2070   21.6269 O.2     1  UNL1       -0.2736
     32 H          -0.7871  -18.4249   22.6809 H       1  UNL1        0.1450
     33 H          -2.0683  -17.1654   22.7772 H       1  UNL1        0.1450
     34 C          -5.0854  -19.8459   21.6477 C.3     1  UNL1        0.0325
     35 C          -6.0898  -19.7878   20.4795 C.3     1  UNL1        0.0450
     36 C          -7.3631  -19.0344   20.8759 C.3     1  UNL1        0.1740
     37 N          -8.2914  -18.9538   19.7470 N.pl3   1  UNL1       -0.2625
     38 H          -7.9284  -19.0295   18.7693 H       1  UNL1        0.2587
     39 C          -9.7044  -18.7987   19.9347 C.cat   1  UNL1        0.3769
     40 N         -10.4108  -19.7726   20.4167 N.pl3   1  UNL1       -0.1298
     41 N         -10.3333  -17.5649   19.5805 N.pl3   1  UNL1       -0.2892
     42 H         -11.4416  -19.6850   20.5600 H       1  UNL1        0.3062
     43 H          -9.7647  -16.7692   19.2166 H       1  UNL1        0.2546
     44 H         -11.3645  -17.4376   19.6857 H       1  UNL1        0.2546
     45 C          -8.0152  -17.1526   25.0581 C.3     1  UNL1        0.0578
     46 C          -9.4235  -16.9600   24.5507 C.2     1  UNL1       -0.0297
     47 C          -9.7088  -16.4103   23.3521 C.2     1  UNL1       -0.0475
     48 C          -8.6187  -15.9396   22.4191 C.3     1  UNL1        0.0260
     49 C         -11.1531  -16.2710   22.9465 C.3     1  UNL1        0.0260
     50 O          -6.2518  -10.0932   32.1733 O.3     1  UNL1       -0.4623
     51 C          -6.0841   -8.6831   32.0215 C.3     1  UNL1        0.2895
     52 C          -7.3991   -8.0204   31.7317 C.2     1  UNL1        0.2673
     53 O          -8.0189   -7.4468   32.6680 O.2     1  UNL1       -0.2711
     54 N          -7.9621   -8.0731   30.4119 N.am    1  UNL1       -0.2953
     55 H          -7.3721   -8.4601   29.6407 H       1  UNL1        0.1499
     56 C          -9.2697   -7.4891   30.0844 C.3     1  UNL1        0.1485
     57 C         -10.1082   -8.4506   29.2771 C.2     1  UNL1        0.2372
     58 N         -11.0149   -9.3348   29.9364 N.am    1  UNL1       -0.3275
     59 O         -10.0482   -8.4537   28.0178 O.2     1  UNL1       -0.2736
     60 H         -11.1080   -9.3260   30.9764 H       1  UNL1        0.1450
     61 H         -11.6088   -9.9900   29.3815 H       1  UNL1        0.1450
     62 C          -9.1075   -6.1348   29.3647 C.3     1  UNL1        0.0325
     63 C         -10.1558   -5.0853   29.7792 C.3     1  UNL1        0.0450
     64 C         -10.9394   -5.5129   31.0283 C.3     1  UNL1        0.1740
     65 N         -12.2134   -6.1456   30.6821 N.pl3   1  UNL1       -0.2625
     66 H         -12.6287   -5.9795   29.7373 H       1  UNL1        0.2587
     67 C         -12.9256   -6.9998   31.5941 C.cat   1  UNL1        0.3769
     68 N         -13.2096   -8.2154   31.2493 N.pl3   1  UNL1       -0.1298
     69 N         -13.3151   -6.5380   32.8914 N.pl3   1  UNL1       -0.2892
     70 H         -12.9405   -8.6016   30.3170 H       1  UNL1        0.3062
     71 H         -13.0944   -5.5750   33.2240 H       1  UNL1        0.2546
     72 H         -13.8216   -7.1764   33.5444 H       1  UNL1        0.2546
     73 C         -10.5079  -12.2825   30.8209 C.3     1  UNL1        0.0552
     74 C         -10.8371  -13.2511   31.9371 C.2     1  UNL1       -0.0298
     75 C         -11.7901  -13.0601   32.8767 C.2     1  UNL1       -0.0475
     76 C         -11.9697  -14.1147   33.9386 C.3     1  UNL1        0.0260
     77 C         -12.6593  -11.8273   32.9047 C.3     1  UNL1        0.0260
@<TRIPOS>BOND
     1    20    21    1
     2    21     1    1
     3     1     2   ar
     4     2    50    1
     5    50    51    1
     6    51    52    1
     7    52    53    2
     8    52    54   am
     9    54    56    1
    10    56    62    1
    11    62    63    1
    12    63    64    1
    13    64    65    1
    14    65    67    1
    15    67    68    2
    16    67    69    1
    17    56    57    1
    18    57    58   am
    19    57    59    2
    20     2     3   ar
    21     3     4   ar
    22     4     5    1
    23     5     6    1
    24     6     7   ar
    25     7     8    1
    26     7     9   ar
    27     9    22    1
    28    22    23    1
    29    23    24    1
    30    24    25    2
    31    24    26   am
    32    26    28    1
    33    28    34    1
    34    34    35    1
    35    35    36    1
    36    36    37    1
    37    37    39    1
    38    39    40    2
    39    39    41    1
    40    28    29    1
    41    29    30   am
    42    29    31    2
    43     9    10   ar
    44    10    45    1
    45    45    46    1
    46    46    47    2
    47    47    48    1
    48    47    49    1
    49    10    11   ar
    50    11    12    1
    51    11    13   ar
    52    13    14    1
    53    14    15    2
    54    14    16    1
    55    16    17   ar
    56    17    73    1
    57    73    74    1
    58    74    75    2
    59    75    76    1
    60    75    77    1
    61    17     1   ar
    62    16     4   ar
    63    13     6   ar
    64    54    55    1
    65    65    66    1
    66    68    70    1
    67    69    71    1
    68    69    72    1
    69    58    60    1
    70    58    61    1
    71    26    27    1
    72    37    38    1
    73    40    42    1
    74    41    43    1
    75    41    44    1
    76    30    32    1
    77    30    33    1
    78    12    18    1
    79     5    19    1
