@<TRIPOS>MOLECULE
*****
 34 36 0 0 0
SMALL
GASTEIGER

@<TRIPOS>ATOM
      1 C          48.8202    9.6970  -22.2336 C.ar    1  UNL1       -0.0023
      2 C          49.8792    8.8170  -22.5102 C.ar    1  UNL1       -0.0026
      3 C          50.6507    8.9788  -23.6635 C.ar    1  UNL1       -0.0003
      4 C          50.3696   10.0181  -24.5641 C.ar    1  UNL1        0.0001
      5 C          49.3084   10.8947  -24.2913 C.ar    1  UNL1       -0.0003
      6 C          48.5366   10.7318  -23.1382 C.ar    1  UNL1       -0.0026
      7 C          51.2104   10.2160  -25.7670 C.ar    1  UNL1        0.0030
      8 C          50.9410    9.4307  -26.9022 C.ar    1  UNL1        0.0001
      9 C          51.6338    9.6427  -28.0946 C.ar    1  UNL1        0.0000
     10 C          52.5993   10.6446  -28.1728 C.ar    1  UNL1        0.0001
     11 C          52.8889   11.4271  -27.0538 C.ar    1  UNL1        0.0031
     12 C          52.2187   11.2146  -25.8360 C.ar    1  UNL1        0.0371
     13 C          52.6202   12.0277  -24.6646 C.ar    1  UNL1        0.1806
     14 N          53.6584   11.7344  -23.8584 N.ar    1  UNL1       -0.1084
     15 N          53.6385   12.6689  -22.9182 N.ar    1  UNL1       -0.0229
     16 N          52.6255   13.4966  -23.1249 N.ar    1  UNL1       -0.0464
     17 N          51.9734   13.1139  -24.2074 N.ar    1  UNL1       -0.2388
     18 H          51.1081   13.5645  -24.5773 H       1  UNL1        0.1923
     19 C          48.0577    9.5822  -20.9370 C.3     1  UNL1        0.1206
     20 C          49.7862   10.5645  -19.4177 C.2     1  UNL1        0.2262
     21 O          50.2043    9.4683  -18.9564 O.2     1  UNL1       -0.2749
     22 N          48.4656   10.6383  -19.9921 N.am    1  UNL1       -0.2673
     23 C          50.7202   11.7432  -19.4569 C.3     1  UNL1        0.0853
     24 C          50.5628   12.5050  -20.7798 C.3     1  UNL1        0.0096
     25 C          49.3994   14.5818  -21.6954 C.3     1  UNL1        0.0000
     26 C          50.2543   13.9948  -20.5731 C.3     1  UNL1        0.0005
     27 C          47.5487   11.7211  -19.5640 C.3     1  UNL1        0.1746
     28 C          47.4593   11.8312  -18.0567 C.2     1  UNL1        0.3320
     29 O          47.2067   10.8058  -17.3686 O.2     1  UNL1       -0.2485
     30 O          47.5598   13.0672  -17.4236 O.3     1  UNL1       -0.4790
     31 H          47.4708   13.1453  -16.4176 H       1  UNL1        0.2951
     32 C          46.1682   11.6211  -20.2975 C.3     1  UNL1        0.0292
     33 C          46.1476   12.4894  -21.5654 C.3     1  UNL1        0.0023
     34 C          44.9462   11.9685  -19.4246 C.3     1  UNL1        0.0023
@<TRIPOS>BOND
     1    25    26    1
     2    26    24    1
     3    24    23    1
     4    23    20    1
     5    20    21    2
     6    20    22   am
     7    22    19    1
     8    19     1    1
     9     1     2   ar
    10     2     3   ar
    11     3     4   ar
    12     4     7    1
    13     7     8   ar
    14     8     9   ar
    15     9    10   ar
    16    10    11   ar
    17    11    12   ar
    18    12    13    1
    19    13    14   ar
    20    14    15   ar
    21    15    16   ar
    22    16    17   ar
    23     4     5   ar
    24     5     6   ar
    25    22    27    1
    26    27    28    1
    27    28    29    2
    28    28    30    1
    29    27    32    1
    30    32    33    1
    31    32    34    1
    32     6     1   ar
    33    12     7   ar
    34    17    13   ar
    35    17    18    1
    36    30    31    1
@<TRIPOS>MOLECULE
*****
 34 36 0 0 0
SMALL
GASTEIGER

@<TRIPOS>ATOM
      1 C          47.5239   12.3464  -23.7057 C.ar    1  UNL1       -0.0023
      2 C          48.5598   12.5299  -24.6361 C.ar    1  UNL1       -0.0026
      3 C          48.3057   12.4321  -26.0061 C.ar    1  UNL1       -0.0003
      4 C          47.0130   12.1398  -26.4681 C.ar    1  UNL1        0.0001
      5 C          45.9783   11.9511  -25.5392 C.ar    1  UNL1       -0.0003
      6 C          46.2332   12.0481  -24.1689 C.ar    1  UNL1       -0.0026
      7 C          46.7325   12.0747  -27.9207 C.ar    1  UNL1        0.0030
      8 C          46.8076   10.8223  -28.5563 C.ar    1  UNL1        0.0001
      9 C          46.4568   10.6840  -29.8996 C.ar    1  UNL1        0.0000
     10 C          46.0204   11.7910  -30.6250 C.ar    1  UNL1        0.0001
     11 C          45.9498   13.0446  -30.0152 C.ar    1  UNL1        0.0031
     12 C          46.3205   13.2101  -28.6689 C.ar    1  UNL1        0.0371
     13 C          46.2933   14.5768  -28.0981 C.ar    1  UNL1        0.1806
     14 N          45.1670   15.2428  -27.7794 N.ar    1  UNL1       -0.1084
     15 N          45.5774   16.4310  -27.3583 N.ar    1  UNL1       -0.0229
     16 N          46.8982   16.5029  -27.4253 N.ar    1  UNL1       -0.0464
     17 N          47.3667   15.3584  -27.8878 N.ar    1  UNL1       -0.2388
     18 H          48.3721   15.1552  -28.0792 H       1  UNL1        0.1923
     19 C          47.7804   12.5560  -22.2339 C.3     1  UNL1        0.1206
     20 C          48.3609   10.1493  -21.8705 C.2     1  UNL1        0.2262
     21 O          47.1934    9.7663  -21.5882 O.2     1  UNL1       -0.2749
     22 N          48.7123   11.5389  -21.7127 N.am    1  UNL1       -0.2673
     23 C          49.3266    9.1644  -22.4710 C.3     1  UNL1        0.0853
     24 C          49.6202    9.5283  -23.9326 C.3     1  UNL1        0.0096
     25 C          51.4019    9.7480  -25.7444 C.3     1  UNL1        0.0000
     26 C          51.0903    9.3050  -24.3155 C.3     1  UNL1        0.0005
     27 C          49.9493   11.8945  -20.9780 C.3     1  UNL1        0.1746
     28 C          49.7970   11.7149  -19.4825 C.2     1  UNL1        0.3320
     29 O          50.5921   10.9614  -18.8589 O.2     1  UNL1       -0.2485
     30 O          48.7334   12.2966  -18.7978 O.3     1  UNL1       -0.4790
     31 H          48.6145   12.1528  -17.8021 H       1  UNL1        0.2951
     32 C          50.4896   13.2973  -21.4185 C.3     1  UNL1        0.0292
     33 C          51.4333   13.1761  -22.6255 C.3     1  UNL1        0.0023
     34 C          51.1912   14.0984  -20.3042 C.3     1  UNL1        0.0023
@<TRIPOS>BOND
     1    25    26    1
     2    26    24    1
     3    24    23    1
     4    23    20    1
     5    20    21    2
     6    20    22   am
     7    22    19    1
     8    19     1    1
     9     1     2   ar
    10     2     3   ar
    11     3     4   ar
    12     4     7    1
    13     7     8   ar
    14     8     9   ar
    15     9    10   ar
    16    10    11   ar
    17    11    12   ar
    18    12    13    1
    19    13    14   ar
    20    14    15   ar
    21    15    16   ar
    22    16    17   ar
    23     4     5   ar
    24     5     6   ar
    25    22    27    1
    26    27    28    1
    27    28    29    2
    28    28    30    1
    29    27    32    1
    30    32    33    1
    31    32    34    1
    32     6     1   ar
    33    12     7   ar
    34    17    13   ar
    35    17    18    1
    36    30    31    1
@<TRIPOS>MOLECULE
*****
 34 36 0 0 0
SMALL
GASTEIGER

@<TRIPOS>ATOM
      1 C          49.5104   14.5072  -23.7525 C.ar    1  UNL1       -0.0023
      2 C          49.9140   13.1946  -23.4579 C.ar    1  UNL1       -0.0026
      3 C          50.1199   12.7981  -22.1344 C.ar    1  UNL1       -0.0003
      4 C          49.9347   13.7106  -21.0842 C.ar    1  UNL1        0.0001
      5 C          49.5366   15.0237  -21.3777 C.ar    1  UNL1       -0.0003
      6 C          49.3316   15.4201  -22.7017 C.ar    1  UNL1       -0.0026
      7 C          50.1138   13.2821  -19.6780 C.ar    1  UNL1        0.0030
      8 C          48.9779   13.2272  -18.8505 C.ar    1  UNL1        0.0001
      9 C          49.0698   12.7360  -17.5478 C.ar    1  UNL1        0.0000
     10 C          50.2938   12.2870  -17.0553 C.ar    1  UNL1        0.0001
     11 C          51.4347   12.3438  -17.8573 C.ar    1  UNL1        0.0031
     12 C          51.3685   12.8566  -19.1649 C.ar    1  UNL1        0.0371
     13 C          52.6259   12.9585  -19.9416 C.ar    1  UNL1        0.1806
     14 N          52.6937   13.3620  -21.2247 N.ar    1  UNL1       -0.1084
     15 N          53.9746   13.2588  -21.5506 N.ar    1  UNL1       -0.0229
     16 N          54.6677   12.7994  -20.5198 N.ar    1  UNL1       -0.0464
     17 N          53.8462   12.6012  -19.5053 N.ar    1  UNL1       -0.2388
     18 H          54.1203   12.2042  -18.5801 H       1  UNL1        0.1923
     19 C          49.1884   14.9010  -25.1728 C.3     1  UNL1        0.1206
     20 C          47.0470   13.6372  -25.4521 C.2     1  UNL1        0.2262
     21 O          47.5295   12.6973  -26.1399 O.2     1  UNL1       -0.2749
     22 N          47.7313   14.9054  -25.3994 N.am    1  UNL1       -0.2673
     23 C          45.8254   13.3753  -24.6140 C.3     1  UNL1        0.0853
     24 C          46.0698   12.1902  -23.6702 C.3     1  UNL1        0.0096
     25 C          46.7693   11.4583  -21.3292 C.3     1  UNL1        0.0000
     26 C          46.4097   12.6318  -22.2395 C.3     1  UNL1        0.0005
     27 C          46.9672   16.1517  -25.6426 C.3     1  UNL1        0.1746
     28 C          46.7250   16.3947  -27.1172 C.2     1  UNL1        0.3320
     29 O          45.5670   16.6852  -27.5213 O.2     1  UNL1       -0.2485
     30 O          47.7438   16.2109  -28.0483 O.3     1  UNL1       -0.4790
     31 H          47.5747   16.3449  -29.0380 H       1  UNL1        0.2951
     32 C          47.5942   17.3632  -24.8725 C.3     1  UNL1        0.0292
     33 C          46.6677   17.8452  -23.7448 C.3     1  UNL1        0.0023
     34 C          47.9801   18.5629  -25.7599 C.3     1  UNL1        0.0023
@<TRIPOS>BOND
     1    25    26    1
     2    26    24    1
     3    24    23    1
     4    23    20    1
     5    20    21    2
     6    20    22   am
     7    22    19    1
     8    19     1    1
     9     1     2   ar
    10     2     3   ar
    11     3     4   ar
    12     4     7    1
    13     7     8   ar
    14     8     9   ar
    15     9    10   ar
    16    10    11   ar
    17    11    12   ar
    18    12    13    1
    19    13    14   ar
    20    14    15   ar
    21    15    16   ar
    22    16    17   ar
    23     4     5   ar
    24     5     6   ar
    25    22    27    1
    26    27    28    1
    27    28    29    2
    28    28    30    1
    29    27    32    1
    30    32    33    1
    31    32    34    1
    32     6     1   ar
    33    12     7   ar
    34    17    13   ar
    35    17    18    1
    36    30    31    1
@<TRIPOS>MOLECULE
*****
 34 36 0 0 0
SMALL
GASTEIGER

@<TRIPOS>ATOM
      1 C          48.2754   13.5810  -22.2398 C.ar    1  UNL1       -0.0023
      2 C          47.6525   13.7246  -23.4903 C.ar    1  UNL1       -0.0026
      3 C          48.0149   14.7679  -24.3455 C.ar    1  UNL1       -0.0003
      4 C          48.9999   15.6906  -23.9601 C.ar    1  UNL1        0.0001
      5 C          49.6193   15.5511  -22.7088 C.ar    1  UNL1       -0.0003
      6 C          49.2558   14.5079  -21.8534 C.ar    1  UNL1       -0.0026
      7 C          49.4141   16.7739  -24.8810 C.ar    1  UNL1        0.0030
      8 C          50.6601   16.6597  -25.5231 C.ar    1  UNL1        0.0001
      9 C          51.0583   17.5982  -26.4757 C.ar    1  UNL1        0.0000
     10 C          50.2166   18.6590  -26.8053 C.ar    1  UNL1        0.0001
     11 C          48.9809   18.7959  -26.1709 C.ar    1  UNL1        0.0031
     12 C          48.5705   17.8741  -25.1915 C.ar    1  UNL1        0.0371
     13 C          47.2812   18.1126  -24.5020 C.ar    1  UNL1        0.1806
     14 N          47.0866   17.9459  -23.1798 N.ar    1  UNL1       -0.1084
     15 N          45.8016   18.2081  -22.9855 N.ar    1  UNL1       -0.0229
     16 N          45.2228   18.5109  -24.1376 N.ar    1  UNL1       -0.0464
     17 N          46.1262   18.4541  -25.0989 N.ar    1  UNL1       -0.2388
     18 H          45.9337   18.6077  -26.1129 H       1  UNL1        0.1923
     19 C          47.9560   12.3941  -21.3651 C.3     1  UNL1        0.1206
     20 C          49.1261   10.6459  -22.7199 C.2     1  UNL1        0.2262
     21 O          48.0926   10.1890  -23.2789 O.2     1  UNL1       -0.2749
     22 N          49.0045   11.3631  -21.4748 N.am    1  UNL1       -0.2673
     23 C          50.4500   10.5262  -23.4244 C.3     1  UNL1        0.0853
     24 C          50.3707   11.1584  -24.8204 C.3     1  UNL1        0.0096
     25 C          52.0634   12.7533  -23.7735 C.3     1  UNL1        0.0000
     26 C          51.0353   12.5411  -24.8839 C.3     1  UNL1        0.0005
     27 C          49.8808   10.9946  -20.3378 C.3     1  UNL1        0.1746
     28 C          49.5024    9.6585  -19.7347 C.2     1  UNL1        0.3320
     29 O          48.2976    9.2880  -19.7412 O.2     1  UNL1       -0.2485
     30 O          50.4521    8.8719  -19.0883 O.3     1  UNL1       -0.4790
     31 H          50.1937    7.9915  -18.6591 H       1  UNL1        0.2951
     32 C          50.0008   12.1688  -19.3080 C.3     1  UNL1        0.0292
     33 C          51.4392   12.7062  -19.2421 C.3     1  UNL1        0.0023
     34 C          49.5200   11.8301  -17.8832 C.3     1  UNL1        0.0023
@<TRIPOS>BOND
     1    25    26    1
     2    26    24    1
     3    24    23    1
     4    23    20    1
     5    20    21    2
     6    20    22   am
     7    22    19    1
     8    19     1    1
     9     1     2   ar
    10     2     3   ar
    11     3     4   ar
    12     4     7    1
    13     7     8   ar
    14     8     9   ar
    15     9    10   ar
    16    10    11   ar
    17    11    12   ar
    18    12    13    1
    19    13    14   ar
    20    14    15   ar
    21    15    16   ar
    22    16    17   ar
    23     4     5   ar
    24     5     6   ar
    25    22    27    1
    26    27    28    1
    27    28    29    2
    28    28    30    1
    29    27    32    1
    30    32    33    1
    31    32    34    1
    32     6     1   ar
    33    12     7   ar
    34    17    13   ar
    35    17    18    1
    36    30    31    1
@<TRIPOS>MOLECULE
*****
 34 36 0 0 0
SMALL
GASTEIGER

@<TRIPOS>ATOM
      1 C          48.3772   11.3316  -23.8845 C.ar    1  UNL1       -0.0023
      2 C          49.0049   11.6659  -25.0956 C.ar    1  UNL1       -0.0026
      3 C          48.3712   12.5087  -26.0118 C.ar    1  UNL1       -0.0003
      4 C          47.0950   13.0236  -25.7359 C.ar    1  UNL1        0.0001
      5 C          46.4647   12.6861  -24.5285 C.ar    1  UNL1       -0.0003
      6 C          47.0986   11.8424  -23.6129 C.ar    1  UNL1       -0.0026
      7 C          46.4378   13.9488  -26.6874 C.ar    1  UNL1        0.0030
      8 C          46.1641   15.2597  -26.2576 C.ar    1  UNL1        0.0001
      9 C          45.6385   16.2029  -27.1411 C.ar    1  UNL1        0.0000
     10 C          45.3850   15.8536  -28.4662 C.ar    1  UNL1        0.0001
     11 C          45.6394   14.5545  -28.9090 C.ar    1  UNL1        0.0031
     12 C          46.1474   13.5825  -28.0291 C.ar    1  UNL1        0.0371
     13 C          46.3285   12.2032  -28.5383 C.ar    1  UNL1        0.1806
     14 N          46.6969   11.9028  -29.7984 N.ar    1  UNL1       -0.1084
     15 N          46.6894   10.5781  -29.8524 N.ar    1  UNL1       -0.0229
     16 N          46.3202   10.0801  -28.6821 N.ar    1  UNL1       -0.0464
     17 N          46.0862   11.0759  -27.8472 N.ar    1  UNL1       -0.2388
     18 H          45.7415   10.9695  -26.8681 H       1  UNL1        0.1923
     19 C          49.1079   10.5072  -22.8538 C.3     1  UNL1        0.1206
     20 C          50.8039   12.2745  -22.3429 C.2     1  UNL1        0.2262
     21 O          51.6877   11.8519  -23.1364 O.2     1  UNL1       -0.2749
     22 N          49.7822   11.3737  -21.8695 N.am    1  UNL1       -0.2673
     23 C          50.7738   13.7383  -21.9967 C.3     1  UNL1        0.0853
     24 C          49.9515   14.5151  -23.0338 C.3     1  UNL1        0.0096
     25 C          48.0708   16.1995  -23.3954 C.3     1  UNL1        0.0000
     26 C          48.7571   15.2526  -22.4118 C.3     1  UNL1        0.0005
     27 C          49.4977   11.2999  -20.4169 C.3     1  UNL1        0.1746
     28 C          49.3693    9.8715  -19.9319 C.2     1  UNL1        0.3320
     29 O          50.0956    9.4646  -18.9855 O.2     1  UNL1       -0.2485
     30 O          48.5259    8.9710  -20.5772 O.3     1  UNL1       -0.4790
     31 H          48.4615    8.0075  -20.2714 H       1  UNL1        0.2951
     32 C          48.3056   12.2363  -20.0221 C.3     1  UNL1        0.0292
     33 C          48.6180   13.0240  -18.7398 C.3     1  UNL1        0.0023
     34 C          46.9491   11.5224  -19.8613 C.3     1  UNL1        0.0023
@<TRIPOS>BOND
     1    25    26    1
     2    26    24    1
     3    24    23    1
     4    23    20    1
     5    20    21    2
     6    20    22   am
     7    22    19    1
     8    19     1    1
     9     1     2   ar
    10     2     3   ar
    11     3     4   ar
    12     4     7    1
    13     7     8   ar
    14     8     9   ar
    15     9    10   ar
    16    10    11   ar
    17    11    12   ar
    18    12    13    1
    19    13    14   ar
    20    14    15   ar
    21    15    16   ar
    22    16    17   ar
    23     4     5   ar
    24     5     6   ar
    25    22    27    1
    26    27    28    1
    27    28    29    2
    28    28    30    1
    29    27    32    1
    30    32    33    1
    31    32    34    1
    32     6     1   ar
    33    12     7   ar
    34    17    13   ar
    35    17    18    1
    36    30    31    1
@<TRIPOS>MOLECULE
*****
 34 36 0 0 0
SMALL
GASTEIGER

@<TRIPOS>ATOM
      1 C          50.4329   13.6059  -23.7107 C.ar    1  UNL1       -0.0023
      2 C          50.0144   13.6088  -25.0513 C.ar    1  UNL1       -0.0026
      3 C          49.7241   14.8118  -25.6992 C.ar    1  UNL1       -0.0003
      4 C          49.8386   16.0314  -25.0139 C.ar    1  UNL1        0.0001
      5 C          50.2517   16.0292  -23.6729 C.ar    1  UNL1       -0.0003
      6 C          50.5410   14.8256  -23.0251 C.ar    1  UNL1       -0.0026
      7 C          49.5699   17.3107  -25.7097 C.ar    1  UNL1        0.0030
      8 C          50.5091   17.7636  -26.6535 C.ar    1  UNL1        0.0001
      9 C          50.2610   18.9088  -27.4110 C.ar    1  UNL1        0.0000
     10 C          49.0706   19.6135  -27.2422 C.ar    1  UNL1        0.0001
     11 C          48.1310   19.1864  -26.3026 C.ar    1  UNL1        0.0031
     12 C          48.3715   18.0482  -25.5127 C.ar    1  UNL1        0.0371
     13 C          47.3702   17.6863  -24.4827 C.ar    1  UNL1        0.1806
     14 N          46.9019   18.5364  -23.5491 N.ar    1  UNL1       -0.1084
     15 N          46.0793   17.8107  -22.8045 N.ar    1  UNL1       -0.0229
     16 N          46.0493   16.5634  -23.2487 N.ar    1  UNL1       -0.0464
     17 N          46.8502   16.4611  -24.2935 N.ar    1  UNL1       -0.2388
     18 H          47.0471   15.5787  -24.8144 H       1  UNL1        0.1923
     19 C          50.8453   12.3150  -23.0477 C.3     1  UNL1        0.1206
     20 C          48.5643   11.5525  -22.3575 C.2     1  UNL1        0.2262
     21 O          48.6557   11.9143  -21.1533 O.2     1  UNL1       -0.2749
     22 N          49.7630   11.3163  -23.1232 N.am    1  UNL1       -0.2673
     23 C          47.2044   11.4836  -22.9973 C.3     1  UNL1        0.0853
     24 C          46.6794   12.8960  -23.2884 C.3     1  UNL1        0.0096
     25 C          46.5764   12.1767  -25.7332 C.3     1  UNL1        0.0000
     26 C          45.9135   12.9819  -24.6163 C.3     1  UNL1        0.0005
     27 C          49.8935   10.0579  -23.8952 C.3     1  UNL1        0.1746
     28 C          50.0009    8.8447  -22.9960 C.2     1  UNL1        0.3320
     29 O          49.8227    7.6928  -23.4758 O.2     1  UNL1       -0.2485
     30 O          50.2018    8.9867  -21.6256 O.3     1  UNL1       -0.4790
     31 H          50.2445    8.1765  -21.0192 H       1  UNL1        0.2951
     32 C          51.0163   10.1705  -24.9817 C.3     1  UNL1        0.0292
     33 C          50.4785    9.8138  -26.3766 C.3     1  UNL1        0.0023
     34 C          52.2787    9.3338  -24.6953 C.3     1  UNL1        0.0023
@<TRIPOS>BOND
     1    25    26    1
     2    26    24    1
     3    24    23    1
     4    23    20    1
     5    20    21    2
     6    20    22   am
     7    22    19    1
     8    19     1    1
     9     1     2   ar
    10     2     3   ar
    11     3     4   ar
    12     4     7    1
    13     7     8   ar
    14     8     9   ar
    15     9    10   ar
    16    10    11   ar
    17    11    12   ar
    18    12    13    1
    19    13    14   ar
    20    14    15   ar
    21    15    16   ar
    22    16    17   ar
    23     4     5   ar
    24     5     6   ar
    25    22    27    1
    26    27    28    1
    27    28    29    2
    28    28    30    1
    29    27    32    1
    30    32    33    1
    31    32    34    1
    32     6     1   ar
    33    12     7   ar
    34    17    13   ar
    35    17    18    1
    36    30    31    1
@<TRIPOS>MOLECULE
*****
 34 36 0 0 0
SMALL
GASTEIGER

@<TRIPOS>ATOM
      1 C          50.0394   13.7400  -23.3014 C.ar    1  UNL1       -0.0023
      2 C          49.6252   14.7407  -22.4073 C.ar    1  UNL1       -0.0026
      3 C          49.0208   15.9073  -22.8818 C.ar    1  UNL1       -0.0003
      4 C          48.8292   16.0963  -24.2594 C.ar    1  UNL1        0.0001
      5 C          49.2473   15.0993  -25.1539 C.ar    1  UNL1       -0.0003
      6 C          49.8526   13.9332  -24.6788 C.ar    1  UNL1       -0.0026
      7 C          48.1530   17.3141  -24.7624 C.ar    1  UNL1        0.0030
      8 C          46.7638   17.4281  -24.5745 C.ar    1  UNL1        0.0001
      9 C          46.0903   18.5948  -24.9374 C.ar    1  UNL1        0.0000
     10 C          46.7937   19.6656  -25.4860 C.ar    1  UNL1        0.0001
     11 C          48.1710   19.5675  -25.6907 C.ar    1  UNL1        0.0031
     12 C          48.8652   18.3921  -25.3533 C.ar    1  UNL1        0.0371
     13 C          50.3126   18.3210  -25.6608 C.ar    1  UNL1        0.1806
     14 N          50.8175   17.9169  -26.8421 N.ar    1  UNL1       -0.1084
     15 N          52.1333   17.9492  -26.6829 N.ar    1  UNL1       -0.0229
     16 N          52.4304   18.3430  -25.4538 N.ar    1  UNL1       -0.0464
     17 N          51.3096   18.5773  -24.7962 N.ar    1  UNL1       -0.2388
     18 H          51.2502   18.8612  -23.7939 H       1  UNL1        0.1923
     19 C          50.5953   12.4386  -22.7786 C.3     1  UNL1        0.1206
     20 C          48.4008   11.4493  -22.0958 C.2     1  UNL1        0.2262
     21 O          48.4869   11.7506  -20.8747 O.2     1  UNL1       -0.2749
     22 N          49.5988   11.3577  -22.8931 N.am    1  UNL1       -0.2673
     23 C          47.0384   11.3011  -22.7164 C.3     1  UNL1        0.0853
     24 C          46.4379   12.6801  -23.0212 C.3     1  UNL1        0.0096
     25 C          44.5803   12.6413  -24.7683 C.3     1  UNL1        0.0000
     26 C          46.0701   12.8526  -24.5018 C.3     1  UNL1        0.0005
     27 C          49.8177   10.1593  -23.7371 C.3     1  UNL1        0.1746
     28 C          50.0322    8.9095  -22.9099 C.2     1  UNL1        0.3320
     29 O          49.8265    7.7768  -23.4232 O.2     1  UNL1       -0.2485
     30 O          50.3642    8.9943  -21.5604 O.3     1  UNL1       -0.4790
     31 H          50.4792    8.1588  -20.9993 H       1  UNL1        0.2951
     32 C          50.9135   10.4218  -24.8252 C.3     1  UNL1        0.0292
     33 C          50.3257   10.3233  -26.2419 C.3     1  UNL1        0.0023
     34 C          52.1536    9.5119  -24.7259 C.3     1  UNL1        0.0023
@<TRIPOS>BOND
     1    25    26    1
     2    26    24    1
     3    24    23    1
     4    23    20    1
     5    20    21    2
     6    20    22   am
     7    22    19    1
     8    19     1    1
     9     1     2   ar
    10     2     3   ar
    11     3     4   ar
    12     4     7    1
    13     7     8   ar
    14     8     9   ar
    15     9    10   ar
    16    10    11   ar
    17    11    12   ar
    18    12    13    1
    19    13    14   ar
    20    14    15   ar
    21    15    16   ar
    22    16    17   ar
    23     4     5   ar
    24     5     6   ar
    25    22    27    1
    26    27    28    1
    27    28    29    2
    28    28    30    1
    29    27    32    1
    30    32    33    1
    31    32    34    1
    32     6     1   ar
    33    12     7   ar
    34    17    13   ar
    35    17    18    1
    36    30    31    1
@<TRIPOS>MOLECULE
*****
 34 36 0 0 0
SMALL
GASTEIGER

@<TRIPOS>ATOM
      1 C          48.9559   14.5383  -26.3219 C.ar    1  UNL1       -0.0023
      2 C          47.9671   13.5444  -26.2392 C.ar    1  UNL1       -0.0026
      3 C          48.2283   12.3396  -25.5825 C.ar    1  UNL1       -0.0003
      4 C          49.4863   12.1051  -25.0058 C.ar    1  UNL1        0.0001
      5 C          50.4767   13.0953  -25.0924 C.ar    1  UNL1       -0.0003
      6 C          50.2151   14.2999  -25.7501 C.ar    1  UNL1       -0.0026
      7 C          49.7531   10.8450  -24.2748 C.ar    1  UNL1        0.0030
      8 C          49.2771   10.7283  -22.9565 C.ar    1  UNL1        0.0001
      9 C          49.4112    9.5296  -22.2552 C.ar    1  UNL1        0.0000
     10 C          50.0156    8.4297  -22.8613 C.ar    1  UNL1        0.0001
     11 C          50.5045    8.5291  -24.1649 C.ar    1  UNL1        0.0031
     12 C          50.4001    9.7348  -24.8809 C.ar    1  UNL1        0.0371
     13 C          51.0018    9.8005  -26.2330 C.ar    1  UNL1        0.1806
     14 N          50.4542    9.2509  -27.3339 N.ar    1  UNL1       -0.1084
     15 N          51.3241    9.4880  -28.3059 N.ar    1  UNL1       -0.0229
     16 N          52.3701   10.1437  -27.8263 N.ar    1  UNL1       -0.0464
     17 N          52.1928   10.3467  -26.5337 N.ar    1  UNL1       -0.2388
     18 H          52.8820   10.8049  -25.8983 H       1  UNL1        0.1923
     19 C          48.6359   15.8770  -26.9397 C.3     1  UNL1        0.1206
     20 C          47.0789   16.7293  -25.1761 C.2     1  UNL1        0.2262
     21 O          46.0130   16.4937  -25.8067 O.2     1  UNL1       -0.2749
     22 N          48.3178   16.8730  -25.8999 N.am    1  UNL1       -0.2673
     23 C          47.0486   16.7447  -23.6721 C.3     1  UNL1        0.0853
     24 C          47.5517   15.4064  -23.1145 C.3     1  UNL1        0.0096
     25 C          49.3194   14.3100  -21.6387 C.3     1  UNL1        0.0000
     26 C          48.9659   15.5037  -22.5247 C.3     1  UNL1        0.0005
     27 C          49.1852   18.0431  -25.6263 C.3     1  UNL1        0.1746
     28 C          48.7841   19.2545  -26.4410 C.2     1  UNL1        0.3320
     29 O          48.0855   20.1605  -25.9121 O.2     1  UNL1       -0.2485
     30 O          49.0968   19.3401  -27.7950 O.3     1  UNL1       -0.4790
     31 H          48.8033   20.1368  -28.3475 H       1  UNL1        0.2951
     32 C          50.7017   17.6618  -25.7207 C.3     1  UNL1        0.0292
     33 C          51.5137   18.3274  -24.5983 C.3     1  UNL1        0.0023
     34 C          51.3626   17.9728  -27.0780 C.3     1  UNL1        0.0023
@<TRIPOS>BOND
     1    25    26    1
     2    26    24    1
     3    24    23    1
     4    23    20    1
     5    20    21    2
     6    20    22   am
     7    22    19    1
     8    19     1    1
     9     1     2   ar
    10     2     3   ar
    11     3     4   ar
    12     4     7    1
    13     7     8   ar
    14     8     9   ar
    15     9    10   ar
    16    10    11   ar
    17    11    12   ar
    18    12    13    1
    19    13    14   ar
    20    14    15   ar
    21    15    16   ar
    22    16    17   ar
    23     4     5   ar
    24     5     6   ar
    25    22    27    1
    26    27    28    1
    27    28    29    2
    28    28    30    1
    29    27    32    1
    30    32    33    1
    31    32    34    1
    32     6     1   ar
    33    12     7   ar
    34    17    13   ar
    35    17    18    1
    36    30    31    1
@<TRIPOS>MOLECULE
*****
 34 36 0 0 0
SMALL
GASTEIGER

@<TRIPOS>ATOM
      1 C          51.5463   10.5605  -25.6426 C.ar    1  UNL1       -0.0023
      2 C          52.0689   10.9880  -26.8741 C.ar    1  UNL1       -0.0026
      3 C          51.8189   10.2599  -28.0397 C.ar    1  UNL1       -0.0003
      4 C          51.0497    9.0868  -27.9913 C.ar    1  UNL1        0.0001
      5 C          50.5314    8.6560  -26.7606 C.ar    1  UNL1       -0.0003
      6 C          50.7826    9.3840  -25.5949 C.ar    1  UNL1       -0.0026
      7 C          50.7500    8.3348  -29.2314 C.ar    1  UNL1        0.0030
      8 C          49.4031    8.0737  -29.5407 C.ar    1  UNL1        0.0001
      9 C          49.0558    7.4581  -30.7437 C.ar    1  UNL1        0.0000
     10 C          50.0462    7.1009  -31.6569 C.ar    1  UNL1        0.0001
     11 C          51.3894    7.3416  -31.3632 C.ar    1  UNL1        0.0031
     12 C          51.7624    7.9398  -30.1466 C.ar    1  UNL1        0.0371
     13 C          53.2067    8.1034  -29.8605 C.ar    1  UNL1        0.1806
     14 N          53.9034    9.2313  -30.0979 N.ar    1  UNL1       -0.1084
     15 N          55.1516    8.9429  -29.7565 N.ar    1  UNL1       -0.0229
     16 N          55.2276    7.6885  -29.3387 N.ar    1  UNL1       -0.0464
     17 N          54.0264    7.1434  -29.3984 N.ar    1  UNL1       -0.2388
     18 H          53.8060    6.1503  -29.1660 H       1  UNL1        0.1923
     19 C          51.7309   11.4049  -24.4062 C.3     1  UNL1        0.1206
     20 C          49.8367   12.9009  -25.0659 C.2     1  UNL1        0.2262
     21 O          50.5247   13.6980  -25.7592 O.2     1  UNL1       -0.2749
     22 N          50.4794   12.1004  -24.0532 N.am    1  UNL1       -0.2673
     23 C          48.3781   12.7247  -25.3893 C.3     1  UNL1        0.0853
     24 C          48.2004   11.6858  -26.5047 C.3     1  UNL1        0.0096
     25 C          46.7775   10.9922  -28.5045 C.3     1  UNL1        0.0000
     26 C          46.8393   11.7964  -27.2066 C.3     1  UNL1        0.0005
     27 C          49.9050   12.0617  -22.6876 C.3     1  UNL1        0.1746
     28 C          50.6330   12.9864  -21.7352 C.2     1  UNL1        0.3320
     29 O          51.8649   12.8232  -21.5243 O.2     1  UNL1       -0.2485
     30 O          49.9429   13.9584  -21.0158 O.3     1  UNL1       -0.4790
     31 H          50.4246   14.5580  -20.3567 H       1  UNL1        0.2951
     32 C          49.7459   10.5888  -22.1786 C.3     1  UNL1        0.0292
     33 C          48.4754    9.9376  -22.7478 C.3     1  UNL1        0.0023
     34 C          49.7539   10.4307  -20.6454 C.3     1  UNL1        0.0023
@<TRIPOS>BOND
     1    25    26    1
     2    26    24    1
     3    24    23    1
     4    23    20    1
     5    20    21    2
     6    20    22   am
     7    22    19    1
     8    19     1    1
     9     1     2   ar
    10     2     3   ar
    11     3     4   ar
    12     4     7    1
    13     7     8   ar
    14     8     9   ar
    15     9    10   ar
    16    10    11   ar
    17    11    12   ar
    18    12    13    1
    19    13    14   ar
    20    14    15   ar
    21    15    16   ar
    22    16    17   ar
    23     4     5   ar
    24     5     6   ar
    25    22    27    1
    26    27    28    1
    27    28    29    2
    28    28    30    1
    29    27    32    1
    30    32    33    1
    31    32    34    1
    32     6     1   ar
    33    12     7   ar
    34    17    13   ar
    35    17    18    1
    36    30    31    1
