@<TRIPOS>MOLECULE
*****
 52 57 0 0 0
SMALL
GASTEIGER

@<TRIPOS>ATOM
      1 N         -63.0932  -46.6801  -26.9823 N.am    1  UNL1       -0.2945
      2 C         -62.0744  -46.2243  -26.0723 C.2     1  UNL1        0.2483
      3 O         -61.0130  -46.8890  -25.9243 O.2     1  UNL1       -0.2701
      4 H         -63.9993  -46.1617  -27.0173 H       1  UNL1        0.1501
      5 C         -62.2707  -44.9969  -25.2719 C.ar    1  UNL1        0.0808
      6 C         -62.0936  -45.0449  -23.8794 C.ar    1  UNL1        0.0080
      7 C         -62.2846  -43.9014  -23.1000 C.ar    1  UNL1        0.0148
      8 C         -62.6440  -42.6845  -23.7002 C.ar    1  UNL1        0.0502
      9 C         -62.8061  -42.6306  -25.0927 C.ar    1  UNL1        0.0443
     10 C         -62.6182  -43.7737  -25.8762 C.ar    1  UNL1        0.1457
     11 F         -62.7323  -43.6677  -27.2243 F       1  UNL1       -0.2040
     12 N         -62.8452  -41.5029  -22.9021 N.pl3   1  UNL1       -0.3040
     13 C         -61.7807  -41.0054  -22.0238 C.3     1  UNL1        0.1123
     14 C         -62.3762  -40.4753  -20.7166 C.3     1  UNL1        0.1136
     15 N         -63.5244  -39.5992  -20.9906 N.pl3   1  UNL1       -0.2897
     16 C         -64.5777  -40.1025  -21.8822 C.3     1  UNL1        0.1136
     17 C         -63.9669  -40.6029  -23.1894 C.3     1  UNL1        0.1123
     18 C         -63.7675  -38.4176  -20.2005 C.ar    1  UNL1        0.1318
     19 C         -64.8201  -38.3630  -19.2722 C.ar    1  UNL1        0.0343
     20 C         -65.0240  -37.1999  -18.5282 C.ar    1  UNL1        0.0083
     21 C         -64.1980  -36.0826  -18.7223 C.ar    1  UNL1        0.0906
     22 C         -63.1468  -36.1836  -19.6466 C.ar    1  UNL1        0.1041
     23 N         -62.9661  -37.3278  -20.3576 N.ar    1  UNL1       -0.2292
     24 C         -64.3763  -34.8383  -17.8901 C.3     1  UNL1        0.4200
     25 F         -64.6777  -35.1666  -16.5796 F       1  UNL1       -0.1658
     26 F         -65.4065  -34.0604  -18.3895 F       1  UNL1       -0.1658
     27 F         -63.2053  -34.1042  -17.9128 F       1  UNL1       -0.1658
     28 C         -63.0074  -47.9184  -27.7727 C.3     1  UNL1        0.1535
     29 C         -63.3680  -49.1336  -26.9504 C.2     1  UNL1        0.2443
     30 O         -63.9047  -50.1351  -27.4988 O.2     1  UNL1       -0.2730
     31 N         -63.1781  -49.1099  -25.5266 N.am    1  UNL1       -0.2825
     32 H         -63.0921  -48.1774  -25.0622 H       1  UNL1        0.1549
     33 C         -63.1989  -50.2811  -24.6928 C.ar    1  UNL1        0.0535
     34 C         -62.1729  -50.4806  -23.7589 C.ar    1  UNL1        0.0353
     35 C         -62.1759  -51.6285  -22.9627 C.ar    1  UNL1        0.1002
     36 N         -63.1604  -52.5546  -23.1051 N.ar    1  UNL1       -0.2422
     37 C         -64.1578  -52.3989  -24.0152 C.ar    1  UNL1        0.1002
     38 C         -64.1932  -51.2650  -24.8308 C.ar    1  UNL1        0.0353
     39 C         -63.8645  -47.8321  -29.0530 C.3     1  UNL1        0.0569
     40 C         -60.9709  -44.4190  -30.1734 C.ar    1  UNL1        0.0074
     41 C         -61.6482  -43.1953  -30.4110 C.ar    1  UNL1       -0.0004
     42 C         -63.0514  -43.1266  -30.3425 C.ar    1  UNL1        0.0167
     43 C         -63.7470  -44.2913  -30.0265 C.ar    1  UNL1        0.0563
     44 N         -65.0765  -44.4329  -29.8855 N.ar    1  UNL1       -0.3523
     45 C         -65.2807  -45.7257  -29.5450 C.ar    1  UNL1        0.0681
     46 C         -64.0688  -46.4074  -29.4810 C.ar    1  UNL1       -0.0017
     47 C         -63.0980  -45.4735  -29.7838 C.ar    1  UNL1        0.0129
     48 C         -61.7086  -45.5758  -29.8389 C.ar    1  UNL1       -0.0007
     49 H         -65.8054  -43.6933  -29.9958 H       1  UNL1        0.1660
     50 C         -59.4712  -44.4691  -30.2047 C.3     1  UNL1        0.1687
     51 C         -59.1670  -44.4612  -32.4866 C.3     1  UNL1        0.1746
     52 O         -59.0645  -45.2390  -31.3154 O.3     1  UNL1       -0.3463
@<TRIPOS>BOND
     1    51    52    1
     2    52    50    1
     3    50    40    1
     4    40    41   ar
     5    41    42   ar
     6    42    43   ar
     7    43    44   ar
     8    44    45   ar
     9    45    46   ar
    10    46    39    1
    11    39    28    1
    12    28     1    1
    13     1     2   am
    14     2     3    2
    15     2     5    1
    16     5     6   ar
    17     6     7   ar
    18     7     8   ar
    19     8    12    1
    20    12    13    1
    21    13    14    1
    22    14    15    1
    23    15    18    1
    24    18    19   ar
    25    19    20   ar
    26    20    21   ar
    27    21    24    1
    28    24    25    1
    29    24    26    1
    30    24    27    1
    31    21    22   ar
    32    22    23   ar
    33    15    16    1
    34    16    17    1
    35     8     9   ar
    36     9    10   ar
    37    10    11    1
    38    28    29    1
    39    29    30    2
    40    29    31   am
    41    31    33    1
    42    33    34   ar
    43    34    35   ar
    44    35    36   ar
    45    36    37   ar
    46    37    38   ar
    47    46    47   ar
    48    47    48   ar
    49    48    40   ar
    50    47    43   ar
    51    10     5   ar
    52    38    33   ar
    53    17    12    1
    54    23    18   ar
    55    44    49    1
    56     1     4    1
    57    31    32    1
@<TRIPOS>MOLECULE
*****
 52 57 0 0 0
SMALL
GASTEIGER

@<TRIPOS>ATOM
      1 N         -65.4097  -54.0314  -22.6103 N.am    1  UNL1       -0.2945
      2 C         -64.0333  -53.6723  -22.8344 C.2     1  UNL1        0.2483
      3 O         -63.1090  -54.4573  -22.4886 O.2     1  UNL1       -0.2701
      4 H         -66.1504  -53.3256  -22.8211 H       1  UNL1        0.1501
      5 C         -63.6810  -52.3682  -23.4349 C.ar    1  UNL1        0.0808
      6 C         -64.5122  -51.8158  -24.4232 C.ar    1  UNL1        0.0080
      7 C         -64.1945  -50.5905  -25.0140 C.ar    1  UNL1        0.0148
      8 C         -63.0457  -49.8877  -24.6184 C.ar    1  UNL1        0.0502
      9 C         -62.2224  -50.4301  -23.6202 C.ar    1  UNL1        0.0443
     10 C         -62.5356  -51.6576  -23.0280 C.ar    1  UNL1        0.1457
     11 F         -61.7432  -52.1222  -22.0292 F       1  UNL1       -0.2040
     12 N         -62.7111  -48.6256  -25.2255 N.pl3   1  UNL1       -0.3040
     13 C         -61.9324  -47.6254  -24.4871 C.3     1  UNL1        0.1123
     14 C         -62.4507  -46.2177  -24.7937 C.3     1  UNL1        0.1136
     15 N         -62.6282  -46.0372  -26.2419 N.pl3   1  UNL1       -0.2897
     16 C         -63.3983  -47.0520  -26.9732 C.3     1  UNL1        0.1136
     17 C         -62.8505  -48.4459  -26.6743 C.3     1  UNL1        0.1123
     18 C         -62.3207  -44.7818  -26.8814 C.ar    1  UNL1        0.1318
     19 C         -61.2975  -43.9483  -26.4008 C.ar    1  UNL1        0.0343
     20 C         -61.0323  -42.7396  -27.0463 C.ar    1  UNL1        0.0083
     21 C         -61.7977  -42.3471  -28.1545 C.ar    1  UNL1        0.0906
     22 C         -62.7992  -43.2163  -28.6141 C.ar    1  UNL1        0.1041
     23 N         -63.0374  -44.3896  -27.9708 N.ar    1  UNL1       -0.2292
     24 C         -61.4890  -41.0683  -28.8908 C.3     1  UNL1        0.4200
     25 F         -62.4331  -40.0983  -28.6011 F       1  UNL1       -0.1658
     26 F         -61.4911  -41.2798  -30.2587 F       1  UNL1       -0.1658
     27 F         -60.2419  -40.6122  -28.5071 F       1  UNL1       -0.1658
     28 C         -65.8484  -55.2798  -21.9664 C.3     1  UNL1        0.1535
     29 C         -66.8594  -55.0209  -20.8737 C.2     1  UNL1        0.2443
     30 O         -67.3479  -53.8678  -20.7207 O.2     1  UNL1       -0.2730
     31 N         -67.1961  -56.0717  -19.9538 N.am    1  UNL1       -0.2825
     32 H         -66.5300  -56.8722  -19.8638 H       1  UNL1        0.1549
     33 C         -68.3382  -56.0411  -19.0809 C.ar    1  UNL1        0.0535
     34 C         -68.2608  -55.3416  -17.8688 C.ar    1  UNL1        0.0353
     35 C         -69.3598  -55.3282  -17.0065 C.ar    1  UNL1        0.1002
     36 N         -70.4925  -56.0040  -17.3347 N.ar    1  UNL1       -0.2422
     37 C         -70.5910  -56.7073  -18.4936 C.ar    1  UNL1        0.1002
     38 C         -69.5157  -56.7460  -19.3849 C.ar    1  UNL1        0.0353
     39 C         -66.3860  -56.2907  -23.0009 C.3     1  UNL1        0.0569
     40 C         -70.9849  -55.9854  -23.1890 C.ar    1  UNL1        0.0074
     41 C         -71.4338  -55.3431  -24.3716 C.ar    1  UNL1       -0.0004
     42 C         -70.5134  -54.8386  -25.3078 C.ar    1  UNL1        0.0167
     43 C         -69.1559  -54.9984  -25.0397 C.ar    1  UNL1        0.0563
     44 N         -68.1230  -54.6160  -25.8107 N.ar    1  UNL1       -0.3523
     45 C         -67.0049  -55.0102  -25.1600 C.ar    1  UNL1        0.0681
     46 C         -67.3364  -55.6377  -23.9627 C.ar    1  UNL1       -0.0017
     47 C         -68.7159  -55.6288  -23.9054 C.ar    1  UNL1        0.0129
     48 C         -69.6007  -56.1444  -22.9591 C.ar    1  UNL1       -0.0007
     49 H         -68.1702  -54.1310  -26.7343 H       1  UNL1        0.1660
     50 C         -71.9767  -56.5598  -22.2200 C.3     1  UNL1        0.1687
     51 C         -73.6047  -55.9734  -20.7016 C.3     1  UNL1        0.1746
     52 O         -72.4680  -55.5203  -21.4016 O.3     1  UNL1       -0.3463
@<TRIPOS>BOND
     1    51    52    1
     2    52    50    1
     3    50    40    1
     4    40    41   ar
     5    41    42   ar
     6    42    43   ar
     7    43    44   ar
     8    44    45   ar
     9    45    46   ar
    10    46    39    1
    11    39    28    1
    12    28     1    1
    13     1     2   am
    14     2     3    2
    15     2     5    1
    16     5     6   ar
    17     6     7   ar
    18     7     8   ar
    19     8    12    1
    20    12    13    1
    21    13    14    1
    22    14    15    1
    23    15    18    1
    24    18    19   ar
    25    19    20   ar
    26    20    21   ar
    27    21    24    1
    28    24    25    1
    29    24    26    1
    30    24    27    1
    31    21    22   ar
    32    22    23   ar
    33    15    16    1
    34    16    17    1
    35     8     9   ar
    36     9    10   ar
    37    10    11    1
    38    28    29    1
    39    29    30    2
    40    29    31   am
    41    31    33    1
    42    33    34   ar
    43    34    35   ar
    44    35    36   ar
    45    36    37   ar
    46    37    38   ar
    47    46    47   ar
    48    47    48   ar
    49    48    40   ar
    50    47    43   ar
    51    10     5   ar
    52    38    33   ar
    53    17    12    1
    54    23    18   ar
    55    44    49    1
    56     1     4    1
    57    31    32    1
@<TRIPOS>MOLECULE
*****
 52 57 0 0 0
SMALL
GASTEIGER

@<TRIPOS>ATOM
      1 N         -62.5829  -46.7728  -26.2043 N.am    1  UNL1       -0.2945
      2 C         -61.5921  -46.1450  -25.3688 C.2     1  UNL1        0.2483
      3 O         -60.4612  -46.6812  -25.2144 O.2     1  UNL1       -0.2701
      4 H         -63.5403  -46.3568  -26.2416 H       1  UNL1        0.1501
      5 C         -61.8952  -44.8885  -24.6513 C.ar    1  UNL1        0.0808
      6 C         -61.9572  -44.8922  -23.2482 C.ar    1  UNL1        0.0080
      7 C         -62.2533  -43.7203  -22.5478 C.ar    1  UNL1        0.0148
      8 C         -62.4806  -42.5190  -23.2373 C.ar    1  UNL1        0.0502
      9 C         -62.4037  -42.5096  -24.6381 C.ar    1  UNL1        0.0443
     10 C         -62.1100  -43.6812  -25.3430 C.ar    1  UNL1        0.1457
     11 F         -61.9922  -43.6189  -26.6935 F       1  UNL1       -0.2040
     12 N         -62.7891  -41.3082  -22.5214 N.pl3   1  UNL1       -0.3040
     13 C         -61.7747  -40.6559  -21.6864 C.3     1  UNL1        0.1123
     14 C         -62.4162  -40.0930  -20.4152 C.3     1  UNL1        0.1136
     15 N         -63.6398  -39.3464  -20.7418 N.pl3   1  UNL1       -0.2897
     16 C         -64.6425  -40.0044  -21.5899 C.3     1  UNL1        0.1136
     17 C         -63.9884  -40.5364  -22.8632 C.3     1  UNL1        0.1123
     18 C         -63.9901  -38.1400  -20.0338 C.ar    1  UNL1        0.1318
     19 C         -63.0265  -37.1634  -19.7328 C.ar    1  UNL1        0.0343
     20 C         -63.4052  -36.0103  -19.0436 C.ar    1  UNL1        0.0083
     21 C         -64.7353  -35.8370  -18.6325 C.ar    1  UNL1        0.0906
     22 C         -65.6709  -36.8278  -18.9681 C.ar    1  UNL1        0.1041
     23 N         -65.2792  -37.9410  -19.6424 N.ar    1  UNL1       -0.2292
     24 C         -65.1673  -34.5742  -17.9317 C.3     1  UNL1        0.4200
     25 F         -64.2744  -33.5467  -18.1829 F       1  UNL1       -0.1658
     26 F         -65.2266  -34.7712  -16.5629 F       1  UNL1       -0.1658
     27 F         -66.4186  -34.2055  -18.3886 F       1  UNL1       -0.1658
     28 C         -62.3881  -48.0510  -26.9068 C.3     1  UNL1        0.1535
     29 C         -62.6514  -49.2326  -26.0027 C.2     1  UNL1        0.2443
     30 O         -63.5694  -50.0524  -26.2800 O.2     1  UNL1       -0.2730
     31 N         -61.9106  -49.3703  -24.7795 N.am    1  UNL1       -0.2825
     32 H         -61.4425  -48.5184  -24.3951 H       1  UNL1        0.1549
     33 C         -61.8570  -50.5795  -24.0035 C.ar    1  UNL1        0.0535
     34 C         -60.6185  -51.0515  -23.5475 C.ar    1  UNL1        0.0353
     35 C         -60.5585  -52.2383  -22.8129 C.ar    1  UNL1        0.1002
     36 N         -61.6940  -52.9396  -22.5561 N.ar    1  UNL1       -0.2422
     37 C         -62.9070  -52.5178  -23.0014 C.ar    1  UNL1        0.1002
     38 C         -63.0119  -51.3356  -23.7387 C.ar    1  UNL1        0.0353
     39 C         -63.2404  -48.1257  -28.1911 C.3     1  UNL1        0.0569
     40 C         -60.6889  -44.7279  -29.9865 C.ar    1  UNL1        0.0074
     41 C         -61.4507  -43.5579  -30.2379 C.ar    1  UNL1       -0.0004
     42 C         -62.8347  -43.5351  -29.9877 C.ar    1  UNL1        0.0167
     43 C         -63.4250  -44.6900  -29.4798 C.ar    1  UNL1        0.0563
     44 N         -64.7163  -44.8669  -29.1495 N.ar    1  UNL1       -0.3523
     45 C         -64.8104  -46.1286  -28.6720 C.ar    1  UNL1        0.0681
     46 C         -63.5686  -46.7560  -28.7116 C.ar    1  UNL1       -0.0017
     47 C         -62.6927  -45.8193  -29.2232 C.ar    1  UNL1        0.0129
     48 C         -61.3189  -45.8747  -29.4553 C.ar    1  UNL1       -0.0007
     49 H         -65.4888  -44.1683  -29.2257 H       1  UNL1        0.1660
     50 C         -59.2054  -44.7252  -30.2145 C.3     1  UNL1        0.1687
     51 C         -59.0723  -44.4602  -32.4974 C.3     1  UNL1        0.1746
     52 O         -58.9314  -45.3770  -31.4358 O.3     1  UNL1       -0.3463
@<TRIPOS>BOND
     1    51    52    1
     2    52    50    1
     3    50    40    1
     4    40    41   ar
     5    41    42   ar
     6    42    43   ar
     7    43    44   ar
     8    44    45   ar
     9    45    46   ar
    10    46    39    1
    11    39    28    1
    12    28     1    1
    13     1     2   am
    14     2     3    2
    15     2     5    1
    16     5     6   ar
    17     6     7   ar
    18     7     8   ar
    19     8    12    1
    20    12    13    1
    21    13    14    1
    22    14    15    1
    23    15    18    1
    24    18    19   ar
    25    19    20   ar
    26    20    21   ar
    27    21    24    1
    28    24    25    1
    29    24    26    1
    30    24    27    1
    31    21    22   ar
    32    22    23   ar
    33    15    16    1
    34    16    17    1
    35     8     9   ar
    36     9    10   ar
    37    10    11    1
    38    28    29    1
    39    29    30    2
    40    29    31   am
    41    31    33    1
    42    33    34   ar
    43    34    35   ar
    44    35    36   ar
    45    36    37   ar
    46    37    38   ar
    47    46    47   ar
    48    47    48   ar
    49    48    40   ar
    50    47    43   ar
    51    10     5   ar
    52    38    33   ar
    53    17    12    1
    54    23    18   ar
    55    44    49    1
    56     1     4    1
    57    31    32    1
@<TRIPOS>MOLECULE
*****
 52 57 0 0 0
SMALL
GASTEIGER

@<TRIPOS>ATOM
      1 N         -61.4305  -46.5174  -25.5172 N.am    1  UNL1       -0.2945
      2 C         -60.7691  -46.1148  -24.3031 C.2     1  UNL1        0.2483
      3 O         -59.8272  -46.8097  -23.8338 O.2     1  UNL1       -0.2701
      4 H         -62.2658  -45.9760  -25.8337 H       1  UNL1        0.1501
      5 C         -61.2058  -44.9079  -23.5694 C.ar    1  UNL1        0.0808
      6 C         -61.7568  -45.0424  -22.2845 C.ar    1  UNL1        0.0080
      7 C         -62.1875  -43.9182  -21.5758 C.ar    1  UNL1        0.0148
      8 C         -62.0634  -42.6363  -22.1338 C.ar    1  UNL1        0.0502
      9 C         -61.4988  -42.4981  -23.4107 C.ar    1  UNL1        0.0443
     10 C         -61.0688  -43.6213  -24.1244 C.ar    1  UNL1        0.1457
     11 F         -60.4796  -43.4408  -25.3335 F       1  UNL1       -0.2040
     12 N         -62.5082  -41.4737  -21.4097 N.pl3   1  UNL1       -0.3040
     13 C         -63.8141  -41.4651  -20.7416 C.3     1  UNL1        0.1123
     14 C         -64.4727  -40.0901  -20.8824 C.3     1  UNL1        0.1136
     15 N         -63.5141  -39.0233  -20.5596 N.pl3   1  UNL1       -0.2897
     16 C         -62.2045  -39.0496  -21.2245 C.3     1  UNL1        0.1136
     17 C         -61.5532  -40.4200  -21.0513 C.3     1  UNL1        0.1123
     18 C         -63.9274  -37.8368  -19.8518 C.ar    1  UNL1        0.1318
     19 C         -63.0737  -36.7292  -19.7211 C.ar    1  UNL1        0.0343
     20 C         -63.5102  -35.6003  -19.0262 C.ar    1  UNL1        0.0083
     21 C         -64.7849  -35.5793  -18.4408 C.ar    1  UNL1        0.0906
     22 C         -65.6139  -36.6992  -18.6091 C.ar    1  UNL1        0.1041
     23 N         -65.1680  -37.7863  -19.2925 N.ar    1  UNL1       -0.2292
     24 C         -65.2870  -34.3480  -17.7307 C.3     1  UNL1        0.4200
     25 F         -66.6235  -34.1298  -18.0179 F       1  UNL1       -0.1658
     26 F         -64.5714  -33.2308  -18.1253 F       1  UNL1       -0.1658
     27 F         -65.1411  -34.5181  -16.3668 F       1  UNL1       -0.1658
     28 C         -61.1014  -47.7329  -26.2788 C.3     1  UNL1        0.1535
     29 C         -61.6278  -48.9771  -25.6023 C.2     1  UNL1        0.2443
     30 O         -62.5821  -49.6236  -26.1154 O.2     1  UNL1       -0.2730
     31 N         -61.0962  -49.3717  -24.3274 N.am    1  UNL1       -0.2825
     32 H         -60.5962  -48.6477  -23.7631 H       1  UNL1        0.1549
     33 C         -61.2955  -50.6685  -23.7393 C.ar    1  UNL1        0.0535
     34 C         -62.5877  -51.0669  -23.3705 C.ar    1  UNL1        0.0353
     35 C         -62.7835  -52.3166  -22.7775 C.ar    1  UNL1        0.1002
     36 N         -61.7233  -53.1346  -22.5448 N.ar    1  UNL1       -0.2422
     37 C         -60.4563  -52.7684  -22.8733 C.ar    1  UNL1        0.1002
     38 C         -60.2163  -51.5276  -23.4693 C.ar    1  UNL1        0.0353
     39 C         -61.5937  -47.6360  -27.7381 C.3     1  UNL1        0.0569
     40 C         -62.9620  -44.1953  -30.4890 C.ar    1  UNL1        0.0074
     41 C         -61.8684  -43.5020  -31.0685 C.ar    1  UNL1       -0.0004
     42 C         -60.5448  -43.8540  -30.7484 C.ar    1  UNL1        0.0167
     43 C         -60.3467  -44.9051  -29.8561 C.ar    1  UNL1        0.0563
     44 N         -59.1720  -45.4119  -29.4426 N.ar    1  UNL1       -0.3523
     45 C         -59.4778  -46.4353  -28.6131 C.ar    1  UNL1        0.0681
     46 C         -60.8583  -46.5678  -28.4950 C.ar    1  UNL1       -0.0017
     47 C         -61.3985  -45.5868  -29.3025 C.ar    1  UNL1        0.0129
     48 C         -62.7224  -45.2671  -29.6013 C.ar    1  UNL1       -0.0007
     49 H         -58.2158  -45.0957  -29.7188 H       1  UNL1        0.1660
     50 C         -64.3688  -43.8403  -30.8734 C.3     1  UNL1        0.1687
     51 C         -64.8162  -41.8952  -29.7262 C.3     1  UNL1        0.1746
     52 O         -64.4709  -42.4369  -30.9811 O.3     1  UNL1       -0.3463
@<TRIPOS>BOND
     1    51    52    1
     2    52    50    1
     3    50    40    1
     4    40    41   ar
     5    41    42   ar
     6    42    43   ar
     7    43    44   ar
     8    44    45   ar
     9    45    46   ar
    10    46    39    1
    11    39    28    1
    12    28     1    1
    13     1     2   am
    14     2     3    2
    15     2     5    1
    16     5     6   ar
    17     6     7   ar
    18     7     8   ar
    19     8    12    1
    20    12    13    1
    21    13    14    1
    22    14    15    1
    23    15    18    1
    24    18    19   ar
    25    19    20   ar
    26    20    21   ar
    27    21    24    1
    28    24    25    1
    29    24    26    1
    30    24    27    1
    31    21    22   ar
    32    22    23   ar
    33    15    16    1
    34    16    17    1
    35     8     9   ar
    36     9    10   ar
    37    10    11    1
    38    28    29    1
    39    29    30    2
    40    29    31   am
    41    31    33    1
    42    33    34   ar
    43    34    35   ar
    44    35    36   ar
    45    36    37   ar
    46    37    38   ar
    47    46    47   ar
    48    47    48   ar
    49    48    40   ar
    50    47    43   ar
    51    10     5   ar
    52    38    33   ar
    53    17    12    1
    54    23    18   ar
    55    44    49    1
    56     1     4    1
    57    31    32    1
@<TRIPOS>MOLECULE
*****
 52 57 0 0 0
SMALL
GASTEIGER

@<TRIPOS>ATOM
      1 N         -62.7893  -47.1117  -26.2705 N.am    1  UNL1       -0.2945
      2 C         -61.7443  -46.4927  -25.4969 C.2     1  UNL1        0.2483
      3 O         -60.6119  -47.0404  -25.4082 O.2     1  UNL1       -0.2701
      4 H         -63.7429  -46.6858  -26.2522 H       1  UNL1        0.1501
      5 C         -61.9914  -45.2316  -24.7660 C.ar    1  UNL1        0.0808
      6 C         -62.1194  -45.2575  -23.3677 C.ar    1  UNL1        0.0080
      7 C         -62.3646  -44.0809  -22.6555 C.ar    1  UNL1        0.0148
      8 C         -62.4738  -42.8535  -23.3277 C.ar    1  UNL1        0.0502
      9 C         -62.3307  -42.8230  -24.7230 C.ar    1  UNL1        0.0443
     10 C         -62.0876  -43.9990  -25.4397 C.ar    1  UNL1        0.1457
     11 F         -61.9023  -43.9197  -26.7817 F       1  UNL1       -0.2040
     12 N         -62.7294  -41.6375  -22.5998 N.pl3   1  UNL1       -0.3040
     13 C         -61.6866  -41.0365  -21.7613 C.3     1  UNL1        0.1123
     14 C         -62.3010  -40.4590  -20.4833 C.3     1  UNL1        0.1136
     15 N         -63.4927  -39.6585  -20.7998 N.pl3   1  UNL1       -0.2897
     16 C         -64.5242  -40.2656  -21.6514 C.3     1  UNL1        0.1136
     17 C         -63.8958  -40.8127  -22.9313 C.3     1  UNL1        0.1123
     18 C         -63.7903  -38.4451  -20.0797 C.ar    1  UNL1        0.1318
     19 C         -64.8747  -38.3704  -19.1902 C.ar    1  UNL1        0.0343
     20 C         -65.1310  -37.1768  -18.5138 C.ar    1  UNL1        0.0083
     21 C         -64.3254  -36.0502  -18.7377 C.ar    1  UNL1        0.0906
     22 C         -63.2415  -36.1711  -19.6209 C.ar    1  UNL1        0.1041
     23 N         -63.0098  -37.3448  -20.2661 N.ar    1  UNL1       -0.2292
     24 C         -64.5611  -34.7705  -17.9767 C.3     1  UNL1        0.4200
     25 F         -64.8907  -35.0396  -16.6595 F       1  UNL1       -0.1658
     26 F         -65.5974  -34.0489  -18.5436 F       1  UNL1       -0.1658
     27 F         -63.4103  -34.0052  -18.0060 F       1  UNL1       -0.1658
     28 C         -62.6497  -48.3934  -26.9800 C.3     1  UNL1        0.1535
     29 C         -62.7467  -49.5692  -26.0360 C.2     1  UNL1        0.2443
     30 O         -63.4920  -50.5482  -26.3155 O.2     1  UNL1       -0.2730
     31 N         -62.0553  -49.5289  -24.7774 N.am    1  UNL1       -0.2825
     32 H         -61.7635  -48.5942  -24.4118 H       1  UNL1        0.1549
     33 C         -61.8295  -50.6804  -23.9466 C.ar    1  UNL1        0.0535
     34 C         -60.5162  -51.0630  -23.6409 C.ar    1  UNL1        0.0353
     35 C         -60.2909  -52.1946  -22.8533 C.ar    1  UNL1        0.1002
     36 N         -61.3402  -52.9297  -22.3997 N.ar    1  UNL1       -0.2422
     37 C         -62.6241  -52.5953  -22.6954 C.ar    1  UNL1        0.1002
     38 C         -62.8938  -51.4705  -23.4791 C.ar    1  UNL1        0.0353
     39 C         -63.6669  -48.5143  -28.1340 C.3     1  UNL1        0.0569
     40 C         -65.8320  -47.3283  -32.0307 C.ar    1  UNL1        0.0074
     41 C         -65.5705  -45.9849  -32.4043 C.ar    1  UNL1       -0.0004
     42 C         -64.7710  -45.1577  -31.5952 C.ar    1  UNL1        0.0167
     43 C         -64.2414  -45.7021  -30.4276 C.ar    1  UNL1        0.0563
     44 N         -63.4375  -45.0946  -29.5375 N.ar    1  UNL1       -0.3523
     45 C         -63.1559  -46.0220  -28.5943 C.ar    1  UNL1        0.0681
     46 C         -63.7969  -47.2221  -28.8878 C.ar    1  UNL1       -0.0017
     47 C         -64.4800  -47.0024  -30.0674 C.ar    1  UNL1        0.0129
     48 C         -65.2639  -47.8509  -30.8481 C.ar    1  UNL1       -0.0007
     49 H         -63.0837  -44.1127  -29.5735 H       1  UNL1        0.1660
     50 C         -66.6491  -48.2143  -32.9252 C.3     1  UNL1        0.1687
     51 C         -66.5115  -49.5230  -34.8140 C.3     1  UNL1        0.1746
     52 O         -65.9309  -48.4431  -34.1183 O.3     1  UNL1       -0.3463
@<TRIPOS>BOND
     1    51    52    1
     2    52    50    1
     3    50    40    1
     4    40    41   ar
     5    41    42   ar
     6    42    43   ar
     7    43    44   ar
     8    44    45   ar
     9    45    46   ar
    10    46    39    1
    11    39    28    1
    12    28     1    1
    13     1     2   am
    14     2     3    2
    15     2     5    1
    16     5     6   ar
    17     6     7   ar
    18     7     8   ar
    19     8    12    1
    20    12    13    1
    21    13    14    1
    22    14    15    1
    23    15    18    1
    24    18    19   ar
    25    19    20   ar
    26    20    21   ar
    27    21    24    1
    28    24    25    1
    29    24    26    1
    30    24    27    1
    31    21    22   ar
    32    22    23   ar
    33    15    16    1
    34    16    17    1
    35     8     9   ar
    36     9    10   ar
    37    10    11    1
    38    28    29    1
    39    29    30    2
    40    29    31   am
    41    31    33    1
    42    33    34   ar
    43    34    35   ar
    44    35    36   ar
    45    36    37   ar
    46    37    38   ar
    47    46    47   ar
    48    47    48   ar
    49    48    40   ar
    50    47    43   ar
    51    10     5   ar
    52    38    33   ar
    53    17    12    1
    54    23    18   ar
    55    44    49    1
    56     1     4    1
    57    31    32    1
@<TRIPOS>MOLECULE
*****
 52 57 0 0 0
SMALL
GASTEIGER

@<TRIPOS>ATOM
      1 N         -63.0467  -41.1228  -19.9114 N.am    1  UNL1       -0.2945
      2 C         -61.9309  -41.9097  -20.3692 C.2     1  UNL1        0.2483
      3 O         -61.1173  -42.3991  -19.5393 O.2     1  UNL1       -0.2701
      4 H         -63.6514  -40.6534  -20.6221 H       1  UNL1        0.1501
      5 C         -61.6995  -42.1237  -21.8136 C.ar    1  UNL1        0.0808
      6 C         -60.4519  -42.5985  -22.2502 C.ar    1  UNL1        0.0080
      7 C         -60.2050  -42.7978  -23.6107 C.ar    1  UNL1        0.0148
      8 C         -61.2059  -42.5379  -24.5598 C.ar    1  UNL1        0.0502
      9 C         -62.4581  -42.0785  -24.1246 C.ar    1  UNL1        0.0443
     10 C         -62.7084  -41.8754  -22.7638 C.ar    1  UNL1        0.1457
     11 F         -63.9487  -41.4814  -22.3794 F       1  UNL1       -0.2040
     12 N         -60.9568  -42.7385  -25.9639 N.pl3   1  UNL1       -0.3040
     13 C         -60.2218  -41.7354  -26.7421 C.3     1  UNL1        0.1123
     14 C         -60.8263  -41.6036  -28.1427 C.3     1  UNL1        0.1136
     15 N         -61.0434  -42.9302  -28.7378 N.pl3   1  UNL1       -0.2897
     16 C         -61.7688  -43.9309  -27.9441 C.3     1  UNL1        0.1136
     17 C         -61.1359  -44.0660  -26.5608 C.3     1  UNL1        0.1123
     18 C         -60.8216  -43.1635  -30.1435 C.ar    1  UNL1        0.1318
     19 C         -61.6940  -42.6484  -31.1163 C.ar    1  UNL1        0.0343
     20 C         -61.4460  -42.8985  -32.4668 C.ar    1  UNL1        0.0083
     21 C         -60.3456  -43.6794  -32.8508 C.ar    1  UNL1        0.0906
     22 C         -59.4883  -44.1607  -31.8494 C.ar    1  UNL1        0.1041
     23 N         -59.7485  -43.9019  -30.5408 N.ar    1  UNL1       -0.2292
     24 C         -60.0385  -43.9151  -34.3078 C.3     1  UNL1        0.4200
     25 F         -59.3327  -45.0944  -34.4732 F       1  UNL1       -0.1658
     26 F         -59.2768  -42.8791  -34.8201 F       1  UNL1       -0.1658
     27 F         -61.2232  -43.9961  -35.0152 F       1  UNL1       -0.1658
     28 C         -63.3192  -40.8104  -18.4994 C.3     1  UNL1        0.1535
     29 C         -64.0284  -39.4850  -18.3462 C.2     1  UNL1        0.2443
     30 O         -64.8902  -39.3271  -17.4382 O.2     1  UNL1       -0.2730
     31 N         -63.7817  -38.4335  -19.2934 N.am    1  UNL1       -0.2825
     32 H         -63.3711  -38.6971  -20.2177 H       1  UNL1        0.1549
     33 C         -64.1556  -37.0606  -19.0864 C.ar    1  UNL1        0.0535
     34 C         -63.2713  -36.1976  -18.4247 C.ar    1  UNL1        0.0353
     35 C         -63.6394  -34.8688  -18.2005 C.ar    1  UNL1        0.1002
     36 N         -64.8560  -34.4202  -18.6080 N.ar    1  UNL1       -0.2422
     37 C         -65.7427  -35.2377  -19.2347 C.ar    1  UNL1        0.1002
     38 C         -65.4140  -36.5735  -19.4796 C.ar    1  UNL1        0.0353
     39 C         -64.1002  -41.9484  -17.8093 C.3     1  UNL1        0.0569
     40 C         -66.8779  -41.2497  -21.4252 C.ar    1  UNL1        0.0074
     41 C         -67.3058  -42.4654  -22.0181 C.ar    1  UNL1       -0.0004
     42 C         -66.8477  -43.7023  -21.5297 C.ar    1  UNL1        0.0167
     43 C         -65.9728  -43.6923  -20.4458 C.ar    1  UNL1        0.0563
     44 N         -65.4439  -44.7560  -19.8163 N.ar    1  UNL1       -0.3523
     45 C         -64.6881  -44.2580  -18.8114 C.ar    1  UNL1        0.0681
     46 C         -64.7332  -42.8668  -18.8145 C.ar    1  UNL1       -0.0017
     47 C         -65.5654  -42.5220  -19.8609 C.ar    1  UNL1        0.0129
     48 C         -66.0034  -41.2793  -20.3167 C.ar    1  UNL1       -0.0007
     49 H         -65.5984  -45.7640  -20.0414 H       1  UNL1        0.1660
     50 C         -67.4093  -39.9385  -21.9262 C.3     1  UNL1        0.1687
     51 C         -66.3036  -39.7507  -23.9366 C.3     1  UNL1        0.1746
     52 O         -66.3795  -39.2636  -22.6159 O.3     1  UNL1       -0.3463
@<TRIPOS>BOND
     1    51    52    1
     2    52    50    1
     3    50    40    1
     4    40    41   ar
     5    41    42   ar
     6    42    43   ar
     7    43    44   ar
     8    44    45   ar
     9    45    46   ar
    10    46    39    1
    11    39    28    1
    12    28     1    1
    13     1     2   am
    14     2     3    2
    15     2     5    1
    16     5     6   ar
    17     6     7   ar
    18     7     8   ar
    19     8    12    1
    20    12    13    1
    21    13    14    1
    22    14    15    1
    23    15    18    1
    24    18    19   ar
    25    19    20   ar
    26    20    21   ar
    27    21    24    1
    28    24    25    1
    29    24    26    1
    30    24    27    1
    31    21    22   ar
    32    22    23   ar
    33    15    16    1
    34    16    17    1
    35     8     9   ar
    36     9    10   ar
    37    10    11    1
    38    28    29    1
    39    29    30    2
    40    29    31   am
    41    31    33    1
    42    33    34   ar
    43    34    35   ar
    44    35    36   ar
    45    36    37   ar
    46    37    38   ar
    47    46    47   ar
    48    47    48   ar
    49    48    40   ar
    50    47    43   ar
    51    10     5   ar
    52    38    33   ar
    53    17    12    1
    54    23    18   ar
    55    44    49    1
    56     1     4    1
    57    31    32    1
@<TRIPOS>MOLECULE
*****
 52 57 0 0 0
SMALL
GASTEIGER

@<TRIPOS>ATOM
      1 N         -61.4232  -48.4003  -23.5543 N.am    1  UNL1       -0.2945
      2 C         -60.4616  -47.3377  -23.4131 C.2     1  UNL1        0.2483
      3 O         -59.2475  -47.5409  -23.6868 O.2     1  UNL1       -0.2701
      4 H         -62.4031  -48.2324  -23.2340 H       1  UNL1        0.1501
      5 C         -60.8721  -46.0091  -22.9111 C.ar    1  UNL1        0.0808
      6 C         -60.0744  -45.3541  -21.9587 C.ar    1  UNL1        0.0080
      7 C         -60.4471  -44.1033  -21.4604 C.ar    1  UNL1        0.0148
      8 C         -61.6186  -43.4779  -21.9150 C.ar    1  UNL1        0.0502
      9 C         -62.4086  -44.1234  -22.8780 C.ar    1  UNL1        0.0443
     10 C         -62.0403  -45.3766  -23.3774 C.ar    1  UNL1        0.1457
     11 F         -62.8027  -45.9434  -24.3465 F       1  UNL1       -0.2040
     12 N         -62.0098  -42.1900  -21.4032 N.pl3   1  UNL1       -0.3040
     13 C         -61.4316  -41.6751  -20.1571 C.3     1  UNL1        0.1123
     14 C         -62.4962  -40.9313  -19.3461 C.3     1  UNL1        0.1136
     15 N         -63.2453  -40.0037  -20.2061 N.pl3   1  UNL1       -0.2897
     16 C         -63.8082  -40.5270  -21.4579 C.3     1  UNL1        0.1136
     17 C         -62.7261  -41.2428  -22.2636 C.3     1  UNL1        0.1123
     18 C         -63.6691  -38.7133  -19.7217 C.ar    1  UNL1        0.1318
     19 C         -64.7320  -38.5872  -18.8122 C.ar    1  UNL1        0.0343
     20 C         -65.1136  -37.3200  -18.3689 C.ar    1  UNL1        0.0083
     21 C         -64.4560  -36.1763  -18.8460 C.ar    1  UNL1        0.0906
     22 C         -63.3878  -36.3462  -19.7402 C.ar    1  UNL1        0.1041
     23 N         -63.0322  -37.5905  -20.1557 N.ar    1  UNL1       -0.2292
     24 C         -64.8254  -34.8061  -18.3374 C.3     1  UNL1        0.4200
     25 F         -65.3370  -34.8836  -17.0535 F       1  UNL1       -0.1658
     26 F         -65.7831  -34.2252  -19.1506 F       1  UNL1       -0.1658
     27 F         -63.6984  -34.0059  -18.3258 F       1  UNL1       -0.1658
     28 C         -61.0933  -49.7669  -23.9893 C.3     1  UNL1        0.1535
     29 C         -61.9710  -50.7960  -23.3158 C.2     1  UNL1        0.2443
     30 O         -62.1887  -50.7306  -22.0748 O.2     1  UNL1       -0.2730
     31 N         -62.4849  -51.8998  -24.0782 N.am    1  UNL1       -0.2825
     32 H         -62.0059  -52.1362  -24.9766 H       1  UNL1        0.1549
     33 C         -63.5505  -52.7569  -23.6343 C.ar    1  UNL1        0.0535
     34 C         -63.2903  -53.7341  -22.6638 C.ar    1  UNL1        0.0353
     35 C         -64.3166  -54.5848  -22.2460 C.ar    1  UNL1        0.1002
     36 N         -65.5571  -54.4754  -22.7905 N.ar    1  UNL1       -0.2422
     37 C         -65.8354  -53.5510  -23.7472 C.ar    1  UNL1        0.1002
     38 C         -64.8381  -52.6797  -24.1928 C.ar    1  UNL1        0.0353
     39 C         -61.1495  -49.8999  -25.5257 C.3     1  UNL1        0.0569
     40 C         -61.0579  -46.1289  -28.1808 C.ar    1  UNL1        0.0074
     41 C         -62.3523  -45.5885  -28.3931 C.ar    1  UNL1       -0.0004
     42 C         -63.4902  -46.2212  -27.8610 C.ar    1  UNL1        0.0167
     43 C         -63.3024  -47.3832  -27.1163 C.ar    1  UNL1        0.0563
     44 N         -64.2462  -48.1194  -26.5038 N.ar    1  UNL1       -0.3523
     45 C         -63.5903  -49.1251  -25.8815 C.ar    1  UNL1        0.0681
     46 C         -62.2212  -49.0273  -26.1127 C.ar    1  UNL1       -0.0017
     47 C         -62.0539  -47.9035  -26.8972 C.ar    1  UNL1        0.0129
     48 C         -60.9047  -47.2996  -27.4060 C.ar    1  UNL1       -0.0007
     49 H         -65.2754  -47.9430  -26.4918 H       1  UNL1        0.1660
     50 C         -59.8478  -45.4198  -28.7152 C.3     1  UNL1        0.1687
     51 C         -59.5468  -44.7531  -30.8980 C.3     1  UNL1        0.1746
     52 O         -60.2582  -44.5033  -29.7068 O.3     1  UNL1       -0.3463
@<TRIPOS>BOND
     1    51    52    1
     2    52    50    1
     3    50    40    1
     4    40    41   ar
     5    41    42   ar
     6    42    43   ar
     7    43    44   ar
     8    44    45   ar
     9    45    46   ar
    10    46    39    1
    11    39    28    1
    12    28     1    1
    13     1     2   am
    14     2     3    2
    15     2     5    1
    16     5     6   ar
    17     6     7   ar
    18     7     8   ar
    19     8    12    1
    20    12    13    1
    21    13    14    1
    22    14    15    1
    23    15    18    1
    24    18    19   ar
    25    19    20   ar
    26    20    21   ar
    27    21    24    1
    28    24    25    1
    29    24    26    1
    30    24    27    1
    31    21    22   ar
    32    22    23   ar
    33    15    16    1
    34    16    17    1
    35     8     9   ar
    36     9    10   ar
    37    10    11    1
    38    28    29    1
    39    29    30    2
    40    29    31   am
    41    31    33    1
    42    33    34   ar
    43    34    35   ar
    44    35    36   ar
    45    36    37   ar
    46    37    38   ar
    47    46    47   ar
    48    47    48   ar
    49    48    40   ar
    50    47    43   ar
    51    10     5   ar
    52    38    33   ar
    53    17    12    1
    54    23    18   ar
    55    44    49    1
    56     1     4    1
    57    31    32    1
@<TRIPOS>MOLECULE
*****
 52 57 0 0 0
SMALL
GASTEIGER

@<TRIPOS>ATOM
      1 N         -65.4546  -54.1319  -22.5594 N.am    1  UNL1       -0.2945
      2 C         -64.0876  -53.7520  -22.8059 C.2     1  UNL1        0.2483
      3 O         -63.1449  -54.5099  -22.4495 O.2     1  UNL1       -0.2701
      4 H         -66.2108  -53.4461  -22.7807 H       1  UNL1        0.1501
      5 C         -63.7665  -52.4569  -23.4425 C.ar    1  UNL1        0.0808
      6 C         -64.6098  -51.9527  -24.4460 C.ar    1  UNL1        0.0080
      7 C         -64.3215  -50.7369  -25.0707 C.ar    1  UNL1        0.0148
      8 C         -63.1905  -49.9956  -24.6943 C.ar    1  UNL1        0.0502
      9 C         -62.3553  -50.4897  -23.6811 C.ar    1  UNL1        0.0443
     10 C         -62.6392  -51.7076  -23.0551 C.ar    1  UNL1        0.1457
     11 F         -61.8367  -52.1247  -22.0434 F       1  UNL1       -0.2040
     12 N         -62.8861  -48.7431  -25.3364 N.pl3   1  UNL1       -0.3040
     13 C         -62.1238  -47.7081  -24.6295 C.3     1  UNL1        0.1123
     14 C         -62.6733  -46.3199  -24.9690 C.3     1  UNL1        0.1136
     15 N         -62.8635  -46.1810  -26.4202 N.pl3   1  UNL1       -0.2897
     16 C         -63.6168  -47.2303  -27.1197 C.3     1  UNL1        0.1136
     17 C         -63.0382  -48.6042  -26.7884 C.3     1  UNL1        0.1123
     18 C         -62.5863  -44.9367  -27.0941 C.ar    1  UNL1        0.1318
     19 C         -62.2820  -43.7686  -26.3758 C.ar    1  UNL1        0.0343
     20 C         -62.0219  -42.5832  -27.0651 C.ar    1  UNL1        0.0083
     21 C         -62.0867  -42.5512  -28.4662 C.ar    1  UNL1        0.0906
     22 C         -62.3768  -43.7435  -29.1472 C.ar    1  UNL1        0.1041
     23 N         -62.6238  -44.8866  -28.4545 N.ar    1  UNL1       -0.2292
     24 C         -61.7593  -41.2901  -29.2244 C.3     1  UNL1        0.4200
     25 F         -61.4518  -41.5792  -30.5427 F       1  UNL1       -0.1658
     26 F         -60.6725  -40.6475  -28.6572 F       1  UNL1       -0.1658
     27 F         -62.8512  -40.4431  -29.1917 F       1  UNL1       -0.1658
     28 C         -65.8627  -55.3718  -21.8801 C.3     1  UNL1        0.1535
     29 C         -66.8116  -55.0975  -20.7367 C.2     1  UNL1        0.2443
     30 O         -67.2169  -53.9233  -20.5155 O.2     1  UNL1       -0.2730
     31 N         -67.1811  -56.1644  -19.8485 N.am    1  UNL1       -0.2825
     32 H         -66.5662  -57.0092  -19.8197 H       1  UNL1        0.1549
     33 C         -68.2843  -56.0994  -18.9286 C.ar    1  UNL1        0.0535
     34 C         -69.5302  -56.6168  -19.3088 C.ar    1  UNL1        0.0353
     35 C         -70.6112  -56.5352  -18.4276 C.ar    1  UNL1        0.1002
     36 N         -70.4586  -55.9422  -17.2142 N.ar    1  UNL1       -0.2422
     37 C         -69.2683  -55.4140  -16.8249 C.ar    1  UNL1        0.1002
     38 C         -68.1613  -55.4754  -17.6752 C.ar    1  UNL1        0.0353
     39 C         -66.4601  -56.3902  -22.8737 C.3     1  UNL1        0.0569
     40 C         -67.9067  -54.8905  -26.9890 C.ar    1  UNL1        0.0074
     41 C         -69.2596  -54.4645  -26.9616 C.ar    1  UNL1       -0.0004
     42 C         -70.0210  -54.5686  -25.7835 C.ar    1  UNL1        0.0167
     43 C         -69.4022  -55.0922  -24.6508 C.ar    1  UNL1        0.0563
     44 N         -69.9399  -55.2502  -23.4287 N.ar    1  UNL1       -0.3523
     45 C         -68.9574  -55.7590  -22.6510 C.ar    1  UNL1        0.0681
     46 C         -67.7926  -55.9327  -23.3930 C.ar    1  UNL1       -0.0017
     47 C         -68.0922  -55.4939  -24.6674 C.ar    1  UNL1        0.0129
     48 C         -67.3078  -55.4005  -25.8163 C.ar    1  UNL1       -0.0007
     49 H         -70.9119  -55.0114  -23.1309 H       1  UNL1        0.1660
     50 C         -67.0916  -54.7321  -28.2393 C.3     1  UNL1        0.1687
     51 C         -65.0067  -53.7695  -28.0768 C.3     1  UNL1        0.1746
     52 O         -65.7347  -54.9679  -27.9310 O.3     1  UNL1       -0.3463
@<TRIPOS>BOND
     1    51    52    1
     2    52    50    1
     3    50    40    1
     4    40    41   ar
     5    41    42   ar
     6    42    43   ar
     7    43    44   ar
     8    44    45   ar
     9    45    46   ar
    10    46    39    1
    11    39    28    1
    12    28     1    1
    13     1     2   am
    14     2     3    2
    15     2     5    1
    16     5     6   ar
    17     6     7   ar
    18     7     8   ar
    19     8    12    1
    20    12    13    1
    21    13    14    1
    22    14    15    1
    23    15    18    1
    24    18    19   ar
    25    19    20   ar
    26    20    21   ar
    27    21    24    1
    28    24    25    1
    29    24    26    1
    30    24    27    1
    31    21    22   ar
    32    22    23   ar
    33    15    16    1
    34    16    17    1
    35     8     9   ar
    36     9    10   ar
    37    10    11    1
    38    28    29    1
    39    29    30    2
    40    29    31   am
    41    31    33    1
    42    33    34   ar
    43    34    35   ar
    44    35    36   ar
    45    36    37   ar
    46    37    38   ar
    47    46    47   ar
    48    47    48   ar
    49    48    40   ar
    50    47    43   ar
    51    10     5   ar
    52    38    33   ar
    53    17    12    1
    54    23    18   ar
    55    44    49    1
    56     1     4    1
    57    31    32    1
@<TRIPOS>MOLECULE
*****
 52 57 0 0 0
SMALL
GASTEIGER

@<TRIPOS>ATOM
      1 N         -61.0909  -46.5041  -25.6025 N.am    1  UNL1       -0.2945
      2 C         -60.5057  -46.0930  -24.3525 C.2     1  UNL1        0.2483
      3 O         -59.5672  -46.7624  -23.8414 O.2     1  UNL1       -0.2701
      4 H         -61.9259  -45.9862  -25.9568 H       1  UNL1        0.1501
      5 C         -61.0180  -44.9082  -23.6320 C.ar    1  UNL1        0.0808
      6 C         -61.5331  -45.0585  -22.3341 C.ar    1  UNL1        0.0080
      7 C         -62.0337  -43.9561  -21.6371 C.ar    1  UNL1        0.0148
      8 C         -62.0169  -42.6796  -22.2204 C.ar    1  UNL1        0.0502
      9 C         -61.4883  -42.5244  -23.5107 C.ar    1  UNL1        0.0443
     10 C         -60.9885  -43.6259  -24.2126 C.ar    1  UNL1        0.1457
     11 F         -60.4374  -43.4254  -25.4364 F       1  UNL1       -0.2040
     12 N         -62.5340  -41.5397  -21.5085 N.pl3   1  UNL1       -0.3040
     13 C         -63.9619  -41.4468  -21.1850 C.3     1  UNL1        0.1123
     14 C         -64.4470  -40.0024  -21.3364 C.3     1  UNL1        0.1136
     15 N         -63.5177  -39.0741  -20.6762 N.pl3   1  UNL1       -0.2897
     16 C         -62.0887  -39.1853  -20.9975 C.3     1  UNL1        0.1136
     17 C         -61.6184  -40.6269  -20.8162 C.3     1  UNL1        0.1123
     18 C         -63.9985  -37.9126  -19.9696 C.ar    1  UNL1        0.1318
     19 C         -65.3628  -37.7461  -19.6803 C.ar    1  UNL1        0.0343
     20 C         -65.7886  -36.6063  -18.9965 C.ar    1  UNL1        0.0083
     21 C         -64.8639  -35.6206  -18.6204 C.ar    1  UNL1        0.0906
     22 C         -63.5078  -35.8330  -18.9127 C.ar    1  UNL1        0.1041
     23 N         -63.1163  -36.9522  -19.5772 N.ar    1  UNL1       -0.2292
     24 C         -65.3036  -34.4094  -17.8380 C.3     1  UNL1        0.4200
     25 F         -66.6074  -34.0700  -18.1558 F       1  UNL1       -0.1658
     26 F         -64.4923  -33.3242  -18.1213 F       1  UNL1       -0.1658
     27 F         -65.2272  -34.6885  -16.4864 F       1  UNL1       -0.1658
     28 C         -60.6843  -47.7006  -26.3565 C.3     1  UNL1        0.1535
     29 C         -61.2601  -48.9624  -25.7572 C.2     1  UNL1        0.2443
     30 O         -62.0680  -49.6692  -26.4203 O.2     1  UNL1       -0.2730
     31 N         -60.9525  -49.3075  -24.3970 N.am    1  UNL1       -0.2825
     32 H         -60.6039  -48.5483  -23.7688 H       1  UNL1        0.1549
     33 C         -61.1881  -50.6048  -23.8234 C.ar    1  UNL1        0.0535
     34 C         -62.4982  -50.9922  -23.5100 C.ar    1  UNL1        0.0353
     35 C         -62.7301  -52.2423  -22.9311 C.ar    1  UNL1        0.1002
     36 N         -61.6882  -53.0714  -22.6584 N.ar    1  UNL1       -0.2422
     37 C         -60.4053  -52.7160  -22.9327 C.ar    1  UNL1        0.1002
     38 C         -60.1292  -51.4753  -23.5128 C.ar    1  UNL1        0.0353
     39 C         -61.0427  -47.5749  -27.8521 C.3     1  UNL1        0.0569
     40 C         -62.0019  -43.0897  -28.3430 C.ar    1  UNL1        0.0074
     41 C         -63.3975  -42.8400  -28.3930 C.ar    1  UNL1       -0.0004
     42 C         -64.3187  -43.9018  -28.3435 C.ar    1  UNL1        0.0167
     43 C         -63.8168  -45.1966  -28.2354 C.ar    1  UNL1        0.0563
     44 N         -64.5213  -46.3383  -28.1470 N.ar    1  UNL1       -0.3523
     45 C         -63.6108  -47.3308  -28.0252 C.ar    1  UNL1        0.0681
     46 C         -62.3201  -46.8102  -28.0474 C.ar    1  UNL1       -0.0017
     47 C         -62.4704  -45.4435  -28.1743 C.ar    1  UNL1        0.0129
     48 C         -61.5303  -44.4147  -28.2162 C.ar    1  UNL1       -0.0007
     49 H         -65.5605  -46.4408  -28.1511 H       1  UNL1        0.1660
     50 C         -61.0305  -41.9455  -28.3507 C.3     1  UNL1        0.1687
     51 C         -61.4803  -40.1234  -29.6838 C.3     1  UNL1        0.1746
     52 O         -61.7522  -40.7363  -28.4438 O.3     1  UNL1       -0.3463
@<TRIPOS>BOND
     1    51    52    1
     2    52    50    1
     3    50    40    1
     4    40    41   ar
     5    41    42   ar
     6    42    43   ar
     7    43    44   ar
     8    44    45   ar
     9    45    46   ar
    10    46    39    1
    11    39    28    1
    12    28     1    1
    13     1     2   am
    14     2     3    2
    15     2     5    1
    16     5     6   ar
    17     6     7   ar
    18     7     8   ar
    19     8    12    1
    20    12    13    1
    21    13    14    1
    22    14    15    1
    23    15    18    1
    24    18    19   ar
    25    19    20   ar
    26    20    21   ar
    27    21    24    1
    28    24    25    1
    29    24    26    1
    30    24    27    1
    31    21    22   ar
    32    22    23   ar
    33    15    16    1
    34    16    17    1
    35     8     9   ar
    36     9    10   ar
    37    10    11    1
    38    28    29    1
    39    29    30    2
    40    29    31   am
    41    31    33    1
    42    33    34   ar
    43    34    35   ar
    44    35    36   ar
    45    36    37   ar
    46    37    38   ar
    47    46    47   ar
    48    47    48   ar
    49    48    40   ar
    50    47    43   ar
    51    10     5   ar
    52    38    33   ar
    53    17    12    1
    54    23    18   ar
    55    44    49    1
    56     1     4    1
    57    31    32    1
