@<TRIPOS>MOLECULE
*****
 42 46 0 0 0
SMALL
GASTEIGER

@<TRIPOS>ATOM
      1 C         -30.3459   50.8123   -9.9053 C.3     1  UNL1        0.0439
      2 C         -29.1461   49.8591   -9.8262 C.3     1  UNL1        0.1375
      3 C         -29.5598   48.4418  -10.2438 C.3     1  UNL1        0.0439
      4 C         -27.9487   50.3800  -10.6897 C.3     1  UNL1        0.0709
      5 C         -26.8949   50.5962   -9.6672 C.ar    1  UNL1        0.0325
      6 C         -27.3558   50.2721   -8.4151 C.ar    1  UNL1        0.1401
      7 C         -26.5354   50.3697   -7.2614 C.ar    1  UNL1        0.0889
      8 C         -25.1878   50.7871   -7.4358 C.ar    1  UNL1        0.0282
      9 C         -24.7529   51.1059   -8.7302 C.ar    1  UNL1        0.0997
     10 N         -23.5308   51.5166   -9.1129 N.ar    1  UNL1       -0.2137
     11 C         -23.6774   51.6670  -10.4586 C.ar    1  UNL1        0.1983
     12 N         -24.9156   51.3626  -10.9196 N.ar    1  UNL1       -0.3255
     13 C         -25.5803   51.0154   -9.8124 C.ar    1  UNL1        0.0755
     14 O         -28.6606   49.8287   -8.4799 O.3     1  UNL1       -0.4824
     15 H         -25.2655   51.3905  -11.9032 H       1  UNL1        0.1686
     16 C         -27.0329   50.0212   -5.9137 C.2     1  UNL1        0.2535
     17 O         -26.5291   50.5985   -4.9123 O.2     1  UNL1       -0.2697
     18 N         -28.0732   49.0415   -5.7386 N.am    1  UNL1       -0.2657
     19 H         -28.4194   48.5150   -6.5702 H       1  UNL1        0.1566
     20 C         -28.6244   48.6669   -4.4668 C.ar    1  UNL1        0.1356
     21 C         -28.0185   47.6946   -3.6595 C.ar    1  UNL1        0.0485
     22 C         -28.5685   47.3755   -2.4102 C.ar    1  UNL1        0.0497
     23 N         -27.9223   46.3740   -1.6103 N.pl3   1  UNL1       -0.3569
     24 C         -29.7318   48.0529   -1.9673 C.ar    1  UNL1        0.1035
     25 C         -30.2819   49.0431   -2.8026 C.ar    1  UNL1        0.1054
     26 N         -29.7204   49.3228   -4.0065 N.ar    1  UNL1       -0.2290
     27 H         -28.2653   46.1007   -0.6647 H       1  UNL1        0.1424
     28 H         -27.0684   45.8864   -1.9627 H       1  UNL1        0.1424
     29 C         -30.3702   47.7456   -0.6283 C.3     1  UNL1        0.4212
     30 F         -30.5992   46.3898   -0.4665 F       1  UNL1       -0.1658
     31 F         -29.5360   48.1640    0.3929 F       1  UNL1       -0.1658
     32 F         -31.5836   48.4022   -0.5298 F       1  UNL1       -0.1658
     33 N         -22.6128   52.0811  -11.3224 N.pl3   1  UNL1       -0.2827
     34 H         -22.6194   51.7471  -12.3123 H       1  UNL1        0.1551
     35 C         -21.4414   52.7440  -10.8269 C.ar    1  UNL1        0.0718
     36 C         -20.2202   52.0498  -10.6945 C.ar    1  UNL1        0.0719
     37 CL        -20.0932   50.3345  -11.0657 Cl      1  UNL1       -0.0809
     38 C         -19.0888   52.7144  -10.2076 C.ar    1  UNL1        0.0127
     39 C         -19.1652   54.0595   -9.8416 C.ar    1  UNL1        0.0018
     40 C         -20.3752   54.7467   -9.9515 C.ar    1  UNL1        0.0127
     41 C         -21.5143   54.0947  -10.4363 C.ar    1  UNL1        0.0719
     42 CL        -23.0161   54.9988  -10.5777 Cl      1  UNL1       -0.0809
@<TRIPOS>BOND
     1     1     2    1
     2     2     3    1
     3     2     4    1
     4     4     5    1
     5     5     6   ar
     6     6     7   ar
     7     7    16    1
     8    16    17    2
     9    16    18   am
    10    18    20    1
    11    20    21   ar
    12    21    22   ar
    13    22    23    1
    14    22    24   ar
    15    24    29    1
    16    29    30    1
    17    29    31    1
    18    29    32    1
    19    24    25   ar
    20    25    26   ar
    21     7     8   ar
    22     8     9   ar
    23     9    10   ar
    24    10    11   ar
    25    11    33    1
    26    33    35    1
    27    35    36   ar
    28    36    37    1
    29    36    38   ar
    30    38    39   ar
    31    39    40   ar
    32    40    41   ar
    33    41    42    1
    34    11    12   ar
    35    12    13   ar
    36     6    14    1
    37    14     2    1
    38    13     5   ar
    39    26    20   ar
    40    13     9   ar
    41    41    35   ar
    42    18    19    1
    43    23    27    1
    44    23    28    1
    45    33    34    1
    46    12    15    1
@<TRIPOS>MOLECULE
*****
 42 46 0 0 0
SMALL
GASTEIGER

@<TRIPOS>ATOM
      1 C         -30.3449   50.7890   -9.9804 C.3     1  UNL1        0.0439
      2 C         -29.1483   49.8383   -9.8431 C.3     1  UNL1        0.1375
      3 C         -29.5544   48.4083  -10.2233 C.3     1  UNL1        0.0439
      4 C         -27.9312   50.3299  -10.6961 C.3     1  UNL1        0.0709
      5 C         -26.9003   50.5789   -9.6577 C.ar    1  UNL1        0.0325
      6 C         -27.3897   50.2963   -8.4064 C.ar    1  UNL1        0.1401
      7 C         -26.5953   50.4311   -7.2384 C.ar    1  UNL1        0.0889
      8 C         -25.2436   50.8418   -7.3959 C.ar    1  UNL1        0.0282
      9 C         -24.7793   51.1177   -8.6899 C.ar    1  UNL1        0.0997
     10 N         -23.5483   51.5150   -9.0583 N.ar    1  UNL1       -0.2137
     11 C         -23.6644   51.6213  -10.4112 C.ar    1  UNL1        0.1983
     12 N         -24.8923   51.3027  -10.8897 N.ar    1  UNL1       -0.3255
     13 C         -25.5822   50.9923   -9.7870 C.ar    1  UNL1        0.0755
     14 O         -28.6933   49.8517   -8.4860 O.3     1  UNL1       -0.4824
     15 H         -25.2200   51.2985  -11.8813 H       1  UNL1        0.1686
     16 C         -27.1235   50.1273   -5.8915 C.2     1  UNL1        0.2535
     17 O         -26.6827   50.7779   -4.9053 O.2     1  UNL1       -0.2697
     18 N         -28.1227   49.1087   -5.7001 N.am    1  UNL1       -0.2657
     19 H         -28.4144   48.5250   -6.5142 H       1  UNL1        0.1566
     20 C         -28.7005   48.7724   -4.4294 C.ar    1  UNL1        0.1356
     21 C         -28.1465   47.7811   -3.6081 C.ar    1  UNL1        0.0485
     22 C         -28.7204   47.5000   -2.3603 C.ar    1  UNL1        0.0497
     23 N         -28.1275   46.4776   -1.5458 N.pl3   1  UNL1       -0.3569
     24 C         -29.8546   48.2348   -1.9335 C.ar    1  UNL1        0.1035
     25 C         -30.3518   49.2411   -2.7826 C.ar    1  UNL1        0.1054
     26 N         -29.7686   49.4827   -3.9844 N.ar    1  UNL1       -0.2290
     27 H         -28.4902   46.2297   -0.6005 H       1  UNL1        0.1424
     28 H         -27.2944   45.9477   -1.8865 H       1  UNL1        0.1424
     29 C         -30.5169   47.9704   -0.5970 C.3     1  UNL1        0.4212
     30 F         -30.9957   46.6744   -0.5073 F       1  UNL1       -0.1658
     31 F         -29.6016   48.1603    0.4227 F       1  UNL1       -0.1658
     32 F         -31.5823   48.8359   -0.4264 F       1  UNL1       -0.1658
     33 N         -22.5801   52.0062  -11.2639 N.pl3   1  UNL1       -0.2827
     34 H         -22.5542   51.6238  -12.2358 H       1  UNL1        0.1551
     35 C         -21.4314   52.7079  -10.7688 C.ar    1  UNL1        0.0718
     36 C         -21.5108   54.0754  -10.4304 C.ar    1  UNL1        0.0719
     37 CL        -22.9936   54.9944  -10.6602 Cl      1  UNL1       -0.0809
     38 C         -20.3780   54.7425   -9.9502 C.ar    1  UNL1        0.0127
     39 C         -19.1657   54.0637   -9.8142 C.ar    1  UNL1        0.0018
     40 C         -19.0755   52.7158  -10.1658 C.ar    1  UNL1        0.0127
     41 C         -20.1998   52.0365  -10.6476 C.ar    1  UNL1        0.0719
     42 CL        -20.0515   50.3340  -11.0628 Cl      1  UNL1       -0.0809
@<TRIPOS>BOND
     1     1     2    1
     2     2     3    1
     3     2     4    1
     4     4     5    1
     5     5     6   ar
     6     6     7   ar
     7     7    16    1
     8    16    17    2
     9    16    18   am
    10    18    20    1
    11    20    21   ar
    12    21    22   ar
    13    22    23    1
    14    22    24   ar
    15    24    29    1
    16    29    30    1
    17    29    31    1
    18    29    32    1
    19    24    25   ar
    20    25    26   ar
    21     7     8   ar
    22     8     9   ar
    23     9    10   ar
    24    10    11   ar
    25    11    33    1
    26    33    35    1
    27    35    36   ar
    28    36    37    1
    29    36    38   ar
    30    38    39   ar
    31    39    40   ar
    32    40    41   ar
    33    41    42    1
    34    11    12   ar
    35    12    13   ar
    36     6    14    1
    37    14     2    1
    38    13     5   ar
    39    26    20   ar
    40    13     9   ar
    41    41    35   ar
    42    18    19    1
    43    23    27    1
    44    23    28    1
    45    33    34    1
    46    12    15    1
@<TRIPOS>MOLECULE
*****
 42 46 0 0 0
SMALL
GASTEIGER

@<TRIPOS>ATOM
      1 C         -29.9724   49.8530  -12.3563 C.3     1  UNL1        0.0439
      2 C         -30.1792   50.9500  -11.3036 C.3     1  UNL1        0.1375
      3 C         -30.8720   52.1680  -11.9286 C.3     1  UNL1        0.0439
      4 C         -30.9793   50.4108  -10.0708 C.3     1  UNL1        0.0709
      5 C         -30.0015   50.5737   -8.9662 C.ar    1  UNL1        0.0325
      6 C         -28.8253   51.1088   -9.4305 C.ar    1  UNL1        0.1401
      7 C         -27.7314   51.3848   -8.5698 C.ar    1  UNL1        0.0889
      8 C         -27.8927   51.1215   -7.1822 C.ar    1  UNL1        0.0282
      9 C         -29.1096   50.5786   -6.7458 C.ar    1  UNL1        0.0997
     10 N         -29.4674   50.2579   -5.4897 N.ar    1  UNL1       -0.2137
     11 C         -30.7353   49.7885   -5.6541 C.ar    1  UNL1        0.1983
     12 N         -31.1745   49.8133   -6.9366 N.ar    1  UNL1       -0.3255
     13 C         -30.1319   50.3109   -7.6101 C.ar    1  UNL1        0.0755
     14 O         -28.9053   51.3487  -10.7867 O.3     1  UNL1       -0.4824
     15 H         -32.1043   49.5172   -7.3087 H       1  UNL1        0.1686
     16 C         -26.4653   51.9602   -9.0709 C.2     1  UNL1        0.2535
     17 O         -26.4770   53.1241   -9.5559 O.2     1  UNL1       -0.2697
     18 N         -25.2366   51.2122   -9.0103 N.am    1  UNL1       -0.2657
     19 H         -25.2613   50.2219   -8.6829 H       1  UNL1        0.1566
     20 C         -23.9650   51.7099   -9.4541 C.ar    1  UNL1        0.1356
     21 C         -23.8124   52.3319  -10.7008 C.ar    1  UNL1        0.0485
     22 C         -22.5617   52.8324  -11.0885 C.ar    1  UNL1        0.0497
     23 N         -22.4415   53.4623  -12.3727 N.pl3   1  UNL1       -0.3569
     24 C         -21.4598   52.7154  -10.2049 C.ar    1  UNL1        0.1035
     25 C         -21.6747   52.1111   -8.9521 C.ar    1  UNL1        0.1054
     26 N         -22.9012   51.6377   -8.6137 N.ar    1  UNL1       -0.2290
     27 H         -21.5475   53.8728  -12.7172 H       1  UNL1        0.1424
     28 H         -23.2687   53.5311  -13.0068 H       1  UNL1        0.1424
     29 C         -20.0856   53.2352  -10.5738 C.3     1  UNL1        0.4212
     30 F         -19.9486   53.4023  -11.9414 F       1  UNL1       -0.1658
     31 F         -19.8730   54.4611   -9.9691 F       1  UNL1       -0.1658
     32 F         -19.1204   52.3395  -10.1505 F       1  UNL1       -0.1658
     33 N         -31.5511   49.3347   -4.5680 N.pl3   1  UNL1       -0.2827
     34 H         -32.5553   49.6220   -4.5486 H       1  UNL1        0.1551
     35 C         -30.9949   48.6959   -3.4105 C.ar    1  UNL1        0.0718
     36 C         -30.9817   49.3504   -2.1606 C.ar    1  UNL1        0.0719
     37 CL        -31.5821   50.9943   -1.9776 Cl      1  UNL1       -0.0809
     38 C         -30.4331   48.7104   -1.0433 C.ar    1  UNL1        0.0127
     39 C         -29.8885   47.4304   -1.1617 C.ar    1  UNL1        0.0018
     40 C         -29.8807   46.7853   -2.3995 C.ar    1  UNL1        0.0127
     41 C         -30.4253   47.4134   -3.5249 C.ar    1  UNL1        0.0719
     42 CL        -30.4137   46.5613   -5.0633 Cl      1  UNL1       -0.0809
@<TRIPOS>BOND
     1     1     2    1
     2     2     3    1
     3     2     4    1
     4     4     5    1
     5     5     6   ar
     6     6     7   ar
     7     7    16    1
     8    16    17    2
     9    16    18   am
    10    18    20    1
    11    20    21   ar
    12    21    22   ar
    13    22    23    1
    14    22    24   ar
    15    24    29    1
    16    29    30    1
    17    29    31    1
    18    29    32    1
    19    24    25   ar
    20    25    26   ar
    21     7     8   ar
    22     8     9   ar
    23     9    10   ar
    24    10    11   ar
    25    11    33    1
    26    33    35    1
    27    35    36   ar
    28    36    37    1
    29    36    38   ar
    30    38    39   ar
    31    39    40   ar
    32    40    41   ar
    33    41    42    1
    34    11    12   ar
    35    12    13   ar
    36     6    14    1
    37    14     2    1
    38    13     5   ar
    39    26    20   ar
    40    13     9   ar
    41    41    35   ar
    42    18    19    1
    43    23    27    1
    44    23    28    1
    45    33    34    1
    46    12    15    1
@<TRIPOS>MOLECULE
*****
 42 46 0 0 0
SMALL
GASTEIGER

@<TRIPOS>ATOM
      1 C         -29.0990   51.8320  -10.2084 C.3     1  UNL1        0.0439
      2 C         -27.9341   50.8545  -10.4133 C.3     1  UNL1        0.1375
      3 C         -28.2874   49.8185  -11.4885 C.3     1  UNL1        0.0439
      4 C         -26.6113   51.6132  -10.7671 C.3     1  UNL1        0.0709
      5 C         -25.7308   51.2579   -9.6264 C.ar    1  UNL1        0.0325
      6 C         -26.3864   50.4392   -8.7403 C.ar    1  UNL1        0.1401
      7 C         -25.7581   49.9376   -7.5711 C.ar    1  UNL1        0.0889
      8 C         -24.3967   50.2801   -7.3474 C.ar    1  UNL1        0.0282
      9 C         -23.7601   51.1153   -8.2766 C.ar    1  UNL1        0.0997
     10 N         -22.4898   51.5563   -8.2560 N.ar    1  UNL1       -0.2137
     11 C         -22.4206   52.3115   -9.3873 C.ar    1  UNL1        0.1983
     12 N         -23.5725   52.3487  -10.1013 N.ar    1  UNL1       -0.3255
     13 C         -24.4066   51.5914   -9.3808 C.ar    1  UNL1        0.0755
     14 O         -27.6679   50.1786   -9.1799 O.3     1  UNL1       -0.4824
     15 H         -23.7623   52.8471  -10.9992 H       1  UNL1        0.1686
     16 C         -26.4652   49.0569   -6.6173 C.2     1  UNL1        0.2535
     17 O         -26.6014   47.8365   -6.9039 O.2     1  UNL1       -0.2697
     18 N         -26.9921   49.5748   -5.3816 N.am    1  UNL1       -0.2657
     19 H         -26.9431   50.6010   -5.1999 H       1  UNL1        0.1566
     20 C         -27.6688   48.7800   -4.3958 C.ar    1  UNL1        0.1356
     21 C         -26.9788   47.8690   -3.5845 C.ar    1  UNL1        0.0485
     22 C         -27.6681   47.1312   -2.6120 C.ar    1  UNL1        0.0497
     23 N         -26.9298   46.2063   -1.7996 N.pl3   1  UNL1       -0.3569
     24 C         -29.0625   47.3247   -2.4489 C.ar    1  UNL1        0.1035
     25 C         -29.7011   48.2748   -3.2675 C.ar    1  UNL1        0.1054
     26 N         -28.9988   48.9690   -4.1990 N.ar    1  UNL1       -0.2290
     27 H         -27.3739   45.6395   -1.0460 H       1  UNL1        0.1424
     28 H         -25.9031   46.0795   -1.9438 H       1  UNL1        0.1424
     29 C         -29.8575   46.5521   -1.4164 C.3     1  UNL1        0.4212
     30 F         -29.6560   45.1868   -1.5279 F       1  UNL1       -0.1658
     31 F         -29.4721   46.9395   -0.1456 F       1  UNL1       -0.1658
     32 F         -31.2071   46.8035   -1.5849 F       1  UNL1       -0.1658
     33 N         -21.2296   52.9860   -9.8087 N.pl3   1  UNL1       -0.2827
     34 H         -21.3146   53.7391  -10.5279 H       1  UNL1        0.1551
     35 C         -19.9211   52.5217   -9.4488 C.ar    1  UNL1        0.0718
     36 C         -19.3720   52.8187   -8.1835 C.ar    1  UNL1        0.0719
     37 CL        -20.2322   53.8207   -7.0206 Cl      1  UNL1       -0.0809
     38 C         -18.0929   52.3574   -7.8520 C.ar    1  UNL1        0.0127
     39 C         -17.3522   51.6132   -8.7721 C.ar    1  UNL1        0.0018
     40 C         -17.8818   51.3326  -10.0329 C.ar    1  UNL1        0.0127
     41 C         -19.1591   51.7878  -10.3778 C.ar    1  UNL1        0.0719
     42 CL        -19.7995   51.3987  -11.9688 Cl      1  UNL1       -0.0809
@<TRIPOS>BOND
     1     1     2    1
     2     2     3    1
     3     2     4    1
     4     4     5    1
     5     5     6   ar
     6     6     7   ar
     7     7    16    1
     8    16    17    2
     9    16    18   am
    10    18    20    1
    11    20    21   ar
    12    21    22   ar
    13    22    23    1
    14    22    24   ar
    15    24    29    1
    16    29    30    1
    17    29    31    1
    18    29    32    1
    19    24    25   ar
    20    25    26   ar
    21     7     8   ar
    22     8     9   ar
    23     9    10   ar
    24    10    11   ar
    25    11    33    1
    26    33    35    1
    27    35    36   ar
    28    36    37    1
    29    36    38   ar
    30    38    39   ar
    31    39    40   ar
    32    40    41   ar
    33    41    42    1
    34    11    12   ar
    35    12    13   ar
    36     6    14    1
    37    14     2    1
    38    13     5   ar
    39    26    20   ar
    40    13     9   ar
    41    41    35   ar
    42    18    19    1
    43    23    27    1
    44    23    28    1
    45    33    34    1
    46    12    15    1
@<TRIPOS>MOLECULE
*****
 42 46 0 0 0
SMALL
GASTEIGER

@<TRIPOS>ATOM
      1 C         -30.3339   51.6309  -10.8801 C.3     1  UNL1        0.0439
      2 C         -29.2479   50.5527  -10.9917 C.3     1  UNL1        0.1375
      3 C         -29.7632   49.3557  -11.8016 C.3     1  UNL1        0.0439
      4 C         -27.9320   51.1335  -11.6095 C.3     1  UNL1        0.0709
      5 C         -26.9572   50.9444  -10.5063 C.ar    1  UNL1        0.0325
      6 C         -27.5583   50.3609   -9.4184 C.ar    1  UNL1        0.1401
      7 C         -26.8385   50.0521   -8.2353 C.ar    1  UNL1        0.0889
      8 C         -25.4455   50.3346   -8.2101 C.ar    1  UNL1        0.0282
      9 C         -24.8670   50.9273   -9.3416 C.ar    1  UNL1        0.0997
     10 N         -23.5806   51.2733   -9.5259 N.ar    1  UNL1       -0.2137
     11 C         -23.5906   51.7885  -10.7866 C.ar    1  UNL1        0.1983
     12 N         -24.8070   51.7679  -11.3850 N.ar    1  UNL1       -0.3255
     13 C         -25.5994   51.2250  -10.4547 C.ar    1  UNL1        0.0755
     14 O         -28.8901   50.1112   -9.6779 O.3     1  UNL1       -0.4824
     15 H         -25.0632   52.0953  -12.3431 H       1  UNL1        0.1686
     16 C         -27.4868   49.4246   -7.0643 C.2     1  UNL1        0.2535
     17 O         -28.6642   49.7646   -6.7672 O.2     1  UNL1       -0.2697
     18 N         -26.7937   48.4426   -6.2717 N.am    1  UNL1       -0.2657
     19 H         -25.7932   48.2351   -6.4823 H       1  UNL1        0.1566
     20 C         -27.3629   47.7727   -5.1364 C.ar    1  UNL1        0.1356
     21 C         -27.4364   46.3748   -5.0671 C.ar    1  UNL1        0.0485
     22 C         -27.9718   45.7544   -3.9297 C.ar    1  UNL1        0.0497
     23 N         -28.0327   44.3207   -3.8934 N.pl3   1  UNL1       -0.3569
     24 C         -28.4242   46.5515   -2.8489 C.ar    1  UNL1        0.1035
     25 C         -28.2981   47.9491   -2.9564 C.ar    1  UNL1        0.1054
     26 N         -27.7749   48.5125   -4.0752 N.ar    1  UNL1       -0.2290
     27 H         -28.4006   43.7932   -3.0731 H       1  UNL1        0.1424
     28 H         -27.6966   43.7570   -4.7059 H       1  UNL1        0.1424
     29 C         -29.0145   45.9343   -1.5977 C.3     1  UNL1        0.4212
     30 F         -30.0817   45.1017   -1.8888 F       1  UNL1       -0.1658
     31 F         -28.0506   45.1839   -0.9486 F       1  UNL1       -0.1658
     32 F         -29.4653   46.9335   -0.7542 F       1  UNL1       -0.1658
     33 N         -22.4169   52.2832  -11.4414 N.pl3   1  UNL1       -0.2827
     34 H         -22.2640   52.0291  -12.4432 H       1  UNL1        0.1551
     35 C         -21.3516   52.9189  -10.7216 C.ar    1  UNL1        0.0718
     36 C         -20.1610   52.2210  -10.4282 C.ar    1  UNL1        0.0719
     37 CL        -19.9540   50.5304  -10.8699 Cl      1  UNL1       -0.0809
     38 C         -19.1336   52.8589   -9.7235 C.ar    1  UNL1        0.0127
     39 C         -19.2855   54.1803   -9.2995 C.ar    1  UNL1        0.0018
     40 C         -20.4687   54.8700   -9.5694 C.ar    1  UNL1        0.0127
     41 C         -21.5041   54.2446  -10.2726 C.ar    1  UNL1        0.0719
     42 CL        -22.9724   55.1520  -10.6096 Cl      1  UNL1       -0.0809
@<TRIPOS>BOND
     1     1     2    1
     2     2     3    1
     3     2     4    1
     4     4     5    1
     5     5     6   ar
     6     6     7   ar
     7     7    16    1
     8    16    17    2
     9    16    18   am
    10    18    20    1
    11    20    21   ar
    12    21    22   ar
    13    22    23    1
    14    22    24   ar
    15    24    29    1
    16    29    30    1
    17    29    31    1
    18    29    32    1
    19    24    25   ar
    20    25    26   ar
    21     7     8   ar
    22     8     9   ar
    23     9    10   ar
    24    10    11   ar
    25    11    33    1
    26    33    35    1
    27    35    36   ar
    28    36    37    1
    29    36    38   ar
    30    38    39   ar
    31    39    40   ar
    32    40    41   ar
    33    41    42    1
    34    11    12   ar
    35    12    13   ar
    36     6    14    1
    37    14     2    1
    38    13     5   ar
    39    26    20   ar
    40    13     9   ar
    41    41    35   ar
    42    18    19    1
    43    23    27    1
    44    23    28    1
    45    33    34    1
    46    12    15    1
@<TRIPOS>MOLECULE
*****
 42 46 0 0 0
SMALL
GASTEIGER

@<TRIPOS>ATOM
      1 C         -29.8521   50.3387  -12.9540 C.3     1  UNL1        0.0439
      2 C         -29.6864   51.0412  -11.6000 C.3     1  UNL1        0.1375
      3 C         -30.1455   52.5022  -11.6952 C.3     1  UNL1        0.0439
      4 C         -30.4497   50.2776  -10.4664 C.3     1  UNL1        0.0709
      5 C         -29.3464   49.8833   -9.5555 C.ar    1  UNL1        0.0325
      6 C         -28.1366   50.3191  -10.0368 C.ar    1  UNL1        0.1401
      7 C         -26.9216   50.0896   -9.3407 C.ar    1  UNL1        0.0889
      8 C         -26.9870   49.4137   -8.0918 C.ar    1  UNL1        0.0282
      9 C         -28.2409   48.9872   -7.6317 C.ar    1  UNL1        0.0997
     10 N         -28.5239   48.3376   -6.4886 N.ar    1  UNL1       -0.2137
     11 C         -29.8758   48.1883   -6.5602 C.ar    1  UNL1        0.1983
     12 N         -30.4344   48.7177   -7.6763 N.ar    1  UNL1       -0.3255
     13 C         -29.3852   49.2127   -8.3414 C.ar    1  UNL1        0.0755
     14 O         -28.3065   51.0068  -11.2207 O.3     1  UNL1       -0.4824
     15 H         -31.4421   48.7364   -7.9499 H       1  UNL1        0.1686
     16 C         -25.6195   50.5586   -9.8602 C.2     1  UNL1        0.2535
     17 O         -25.3852   50.4549  -11.0949 O.2     1  UNL1       -0.2697
     18 N         -24.6311   51.1246   -8.9795 N.am    1  UNL1       -0.2657
     19 H         -24.8091   51.1261   -7.9515 H       1  UNL1        0.1566
     20 C         -23.3553   51.6227   -9.4108 C.ar    1  UNL1        0.1356
     21 C         -22.3245   51.8925   -8.5004 C.ar    1  UNL1        0.0485
     22 C         -21.0818   52.3499   -8.9605 C.ar    1  UNL1        0.0497
     23 N         -20.0492   52.6173   -8.0000 N.pl3   1  UNL1       -0.3569
     24 C         -20.8747   52.5235  -10.3517 C.ar    1  UNL1        0.1035
     25 C         -21.9322   52.2075  -11.2249 C.ar    1  UNL1        0.1054
     26 N         -23.1217   51.7680  -10.7403 N.ar    1  UNL1       -0.2290
     27 H         -19.0967   52.9412   -8.2725 H       1  UNL1        0.1424
     28 H         -20.2299   52.4855   -6.9797 H       1  UNL1        0.1424
     29 C         -19.5535   53.0182  -10.9037 C.3     1  UNL1        0.4212
     30 F         -19.3919   52.6765  -12.2356 F       1  UNL1       -0.1658
     31 F         -19.4940   54.3968  -10.8050 F       1  UNL1       -0.1658
     32 F         -18.5112   52.4598  -10.1862 F       1  UNL1       -0.1658
     33 N         -30.6506   47.5553   -5.5355 N.pl3   1  UNL1       -0.2827
     34 H         -31.6889   47.6684   -5.5580 H       1  UNL1        0.1551
     35 C         -30.0467   46.9676   -4.3748 C.ar    1  UNL1        0.0718
     36 C         -29.9282   47.6987   -3.1738 C.ar    1  UNL1        0.0719
     37 CL        -30.4515   49.3750   -3.0628 Cl      1  UNL1       -0.0809
     38 C         -29.3345   47.1076   -2.0526 C.ar    1  UNL1        0.0127
     39 C         -28.8487   45.8006   -2.1198 C.ar    1  UNL1        0.0018
     40 C         -28.9450   45.0788   -3.3107 C.ar    1  UNL1        0.0127
     41 C         -29.5358   45.6573   -4.4394 C.ar    1  UNL1        0.0719
     42 CL        -29.6556   44.7100   -5.9163 Cl      1  UNL1       -0.0809
@<TRIPOS>BOND
     1     1     2    1
     2     2     3    1
     3     2     4    1
     4     4     5    1
     5     5     6   ar
     6     6     7   ar
     7     7    16    1
     8    16    17    2
     9    16    18   am
    10    18    20    1
    11    20    21   ar
    12    21    22   ar
    13    22    23    1
    14    22    24   ar
    15    24    29    1
    16    29    30    1
    17    29    31    1
    18    29    32    1
    19    24    25   ar
    20    25    26   ar
    21     7     8   ar
    22     8     9   ar
    23     9    10   ar
    24    10    11   ar
    25    11    33    1
    26    33    35    1
    27    35    36   ar
    28    36    37    1
    29    36    38   ar
    30    38    39   ar
    31    39    40   ar
    32    40    41   ar
    33    41    42    1
    34    11    12   ar
    35    12    13   ar
    36     6    14    1
    37    14     2    1
    38    13     5   ar
    39    26    20   ar
    40    13     9   ar
    41    41    35   ar
    42    18    19    1
    43    23    27    1
    44    23    28    1
    45    33    34    1
    46    12    15    1
@<TRIPOS>MOLECULE
*****
 42 46 0 0 0
SMALL
GASTEIGER

@<TRIPOS>ATOM
      1 C         -17.4225   51.5513   -9.3164 C.3     1  UNL1        0.0439
      2 C         -18.2510   52.0539  -10.5061 C.3     1  UNL1        0.1375
      3 C         -17.4019   52.0629  -11.7841 C.3     1  UNL1        0.0439
      4 C         -19.5514   51.2025  -10.6930 C.3     1  UNL1        0.0709
      5 C         -20.6198   52.2106  -10.4807 C.ar    1  UNL1        0.0325
      6 C         -20.0805   53.4446  -10.2131 C.ar    1  UNL1        0.1401
      7 C         -20.8898   54.5889   -9.9920 C.ar    1  UNL1        0.0889
      8 C         -22.2999   54.4360  -10.0878 C.ar    1  UNL1        0.0282
      9 C         -22.8128   53.1611  -10.3662 C.ar    1  UNL1        0.0997
     10 N         -24.1016   52.8005  -10.4990 N.ar    1  UNL1       -0.2137
     11 C         -24.0098   51.4684  -10.7678 C.ar    1  UNL1        0.1983
     12 N         -22.7391   50.9981  -10.8158 N.ar    1  UNL1       -0.3255
     13 C         -21.9992   52.0811  -10.5551 C.ar    1  UNL1        0.0755
     14 O         -18.7023   53.3846  -10.2333 O.3     1  UNL1       -0.4824
     15 H         -22.4157   50.0246  -11.0116 H       1  UNL1        0.1686
     16 C         -20.3081   55.9169   -9.7032 C.2     1  UNL1        0.2535
     17 O         -19.6463   56.4992  -10.6049 O.2     1  UNL1       -0.2697
     18 N         -20.4887   56.5412   -8.4185 N.am    1  UNL1       -0.2657
     19 H         -20.9674   56.0096   -7.6591 H       1  UNL1        0.1566
     20 C         -19.9757   57.8362   -8.0703 C.ar    1  UNL1        0.1356
     21 C         -19.8211   58.2321   -6.7348 C.ar    1  UNL1        0.0485
     22 C         -19.2892   59.4933   -6.4322 C.ar    1  UNL1        0.0497
     23 N         -19.1461   59.8661   -5.0535 N.pl3   1  UNL1       -0.3569
     24 C         -18.8982   60.3559   -7.4865 C.ar    1  UNL1        0.1035
     25 C         -19.0448   59.8969   -8.8089 C.ar    1  UNL1        0.1054
     26 N         -19.5653   58.6688   -9.0612 N.ar    1  UNL1       -0.2290
     27 H         -18.7412   60.7794   -4.7561 H       1  UNL1        0.1424
     28 H         -19.4466   59.2130   -4.2958 H       1  UNL1        0.1424
     29 C         -18.3211   61.7304   -7.2173 C.3     1  UNL1        0.4212
     30 F         -18.4066   62.0711   -5.8780 F       1  UNL1       -0.1658
     31 F         -16.9867   61.7553   -7.5812 F       1  UNL1       -0.1658
     32 F         -19.0153   62.6777   -7.9479 F       1  UNL1       -0.1658
     33 N         -25.1500   50.6364  -11.0097 N.pl3   1  UNL1       -0.2827
     34 H         -25.1373   50.0086  -11.8447 H       1  UNL1        0.1551
     35 C         -26.3776   50.7938  -10.2848 C.ar    1  UNL1        0.0718
     36 C         -27.5734   51.1302  -10.9540 C.ar    1  UNL1        0.0719
     37 CL        -27.6024   51.4351  -12.6867 Cl      1  UNL1       -0.0809
     38 C         -28.7607   51.2806  -10.2283 C.ar    1  UNL1        0.0127
     39 C         -28.7657   51.1099   -8.8427 C.ar    1  UNL1        0.0018
     40 C         -27.5822   50.7964   -8.1723 C.ar    1  UNL1        0.0127
     41 C         -26.3879   50.6434   -8.8850 C.ar    1  UNL1        0.0719
     42 CL        -24.9210   50.2302   -8.0075 Cl      1  UNL1       -0.0809
@<TRIPOS>BOND
     1     1     2    1
     2     2     3    1
     3     2     4    1
     4     4     5    1
     5     5     6   ar
     6     6     7   ar
     7     7    16    1
     8    16    17    2
     9    16    18   am
    10    18    20    1
    11    20    21   ar
    12    21    22   ar
    13    22    23    1
    14    22    24   ar
    15    24    29    1
    16    29    30    1
    17    29    31    1
    18    29    32    1
    19    24    25   ar
    20    25    26   ar
    21     7     8   ar
    22     8     9   ar
    23     9    10   ar
    24    10    11   ar
    25    11    33    1
    26    33    35    1
    27    35    36   ar
    28    36    37    1
    29    36    38   ar
    30    38    39   ar
    31    39    40   ar
    32    40    41   ar
    33    41    42    1
    34    11    12   ar
    35    12    13   ar
    36     6    14    1
    37    14     2    1
    38    13     5   ar
    39    26    20   ar
    40    13     9   ar
    41    41    35   ar
    42    18    19    1
    43    23    27    1
    44    23    28    1
    45    33    34    1
    46    12    15    1
@<TRIPOS>MOLECULE
*****
 42 46 0 0 0
SMALL
GASTEIGER

@<TRIPOS>ATOM
      1 C         -17.3856   51.5760   -9.3091 C.3     1  UNL1        0.0439
      2 C         -18.2133   52.0725  -10.5019 C.3     1  UNL1        0.1375
      3 C         -17.3602   52.0855  -11.7771 C.3     1  UNL1        0.0439
      4 C         -19.5079   51.2132  -10.6922 C.3     1  UNL1        0.0709
      5 C         -20.5831   52.2150  -10.4842 C.ar    1  UNL1        0.0325
      6 C         -20.0520   53.4524  -10.2160 C.ar    1  UNL1        0.1401
      7 C         -20.8690   54.5920   -9.9986 C.ar    1  UNL1        0.0889
      8 C         -22.2778   54.4306  -10.0987 C.ar    1  UNL1        0.0282
      9 C         -22.7821   53.1523  -10.3776 C.ar    1  UNL1        0.0997
     10 N         -24.0683   52.7839  -10.5142 N.ar    1  UNL1       -0.2137
     11 C         -23.9676   51.4522  -10.7815 C.ar    1  UNL1        0.1983
     12 N         -22.6939   50.9895  -10.8250 N.ar    1  UNL1       -0.3255
     13 C         -21.9615   52.0771  -10.5629 C.ar    1  UNL1        0.0755
     14 O         -18.6735   53.4007  -10.2317 O.3     1  UNL1       -0.4824
     15 H         -22.3641   50.0177  -11.0189 H       1  UNL1        0.1686
     16 C         -20.2962   55.9238   -9.7091 C.2     1  UNL1        0.2535
     17 O         -19.6442   56.5139  -10.6128 O.2     1  UNL1       -0.2697
     18 N         -20.4744   56.5428   -8.4215 N.am    1  UNL1       -0.2657
     19 H         -20.9446   56.0052   -7.6610 H       1  UNL1        0.1566
     20 C         -19.9697   57.8408   -8.0724 C.ar    1  UNL1        0.1356
     21 C         -19.8084   58.2331   -6.7366 C.ar    1  UNL1        0.0485
     22 C         -19.2848   59.4976   -6.4333 C.ar    1  UNL1        0.0497
     23 N         -19.1344   59.8666   -5.0544 N.pl3   1  UNL1       -0.3569
     24 C         -18.9091   60.3674   -7.4873 C.ar    1  UNL1        0.1035
     25 C         -19.0618   59.9120   -8.8102 C.ar    1  UNL1        0.1054
     26 N         -19.5739   58.6805   -9.0632 N.ar    1  UNL1       -0.2290
     27 H         -18.7351   60.7822   -4.7566 H       1  UNL1        0.1424
     28 H         -19.4237   59.2082   -4.2968 H       1  UNL1        0.1424
     29 C         -18.3416   61.7458   -7.2173 C.3     1  UNL1        0.4212
     30 F         -18.4490   62.0939   -5.8815 F       1  UNL1       -0.1658
     31 F         -17.0019   61.7739   -7.5608 F       1  UNL1       -0.1658
     32 F         -19.0282   62.6860   -7.9640 F       1  UNL1       -0.1658
     33 N         -25.1020   50.6130  -11.0263 N.pl3   1  UNL1       -0.2827
     34 H         -25.0645   49.9523  -11.8347 H       1  UNL1        0.1551
     35 C         -26.3517   50.8015  -10.3481 C.ar    1  UNL1        0.0718
     36 C         -26.4557   50.5979   -8.9558 C.ar    1  UNL1        0.0719
     37 CL        -25.0842   50.0433   -8.0031 Cl      1  UNL1       -0.0809
     38 C         -27.6846   50.7857   -8.3128 C.ar    1  UNL1        0.0127
     39 C         -28.8119   51.1636   -9.0446 C.ar    1  UNL1        0.0018
     40 C         -28.7202   51.3476  -10.4253 C.ar    1  UNL1        0.0127
     41 C         -27.4981   51.1628  -11.0811 C.ar    1  UNL1        0.0719
     42 CL        -27.4180   51.4218  -12.8188 Cl      1  UNL1       -0.0809
@<TRIPOS>BOND
     1     1     2    1
     2     2     3    1
     3     2     4    1
     4     4     5    1
     5     5     6   ar
     6     6     7   ar
     7     7    16    1
     8    16    17    2
     9    16    18   am
    10    18    20    1
    11    20    21   ar
    12    21    22   ar
    13    22    23    1
    14    22    24   ar
    15    24    29    1
    16    29    30    1
    17    29    31    1
    18    29    32    1
    19    24    25   ar
    20    25    26   ar
    21     7     8   ar
    22     8     9   ar
    23     9    10   ar
    24    10    11   ar
    25    11    33    1
    26    33    35    1
    27    35    36   ar
    28    36    37    1
    29    36    38   ar
    30    38    39   ar
    31    39    40   ar
    32    40    41   ar
    33    41    42    1
    34    11    12   ar
    35    12    13   ar
    36     6    14    1
    37    14     2    1
    38    13     5   ar
    39    26    20   ar
    40    13     9   ar
    41    41    35   ar
    42    18    19    1
    43    23    27    1
    44    23    28    1
    45    33    34    1
    46    12    15    1
@<TRIPOS>MOLECULE
*****
 42 46 0 0 0
SMALL
GASTEIGER

@<TRIPOS>ATOM
      1 C         -17.0555   51.0784   -9.1642 C.3     1  UNL1        0.0439
      2 C         -17.8063   51.8337  -10.2688 C.3     1  UNL1        0.1375
      3 C         -16.8797   52.0948  -11.4636 C.3     1  UNL1        0.0439
      4 C         -19.0969   51.0639  -10.7072 C.3     1  UNL1        0.0709
      5 C         -20.1712   52.0243  -10.3517 C.ar    1  UNL1        0.0325
      6 C         -19.6431   53.1650   -9.7993 C.ar    1  UNL1        0.1401
      7 C         -20.4587   54.2520   -9.3912 C.ar    1  UNL1        0.0889
      8 C         -21.8609   54.1480   -9.6005 C.ar    1  UNL1        0.0282
      9 C         -22.3622   52.9691  -10.1705 C.ar    1  UNL1        0.0997
     10 N         -23.6422   52.6675  -10.4524 N.ar    1  UNL1       -0.2137
     11 C         -23.5408   51.4199  -10.9891 C.ar    1  UNL1        0.1983
     12 N         -22.2720   50.9472  -11.0593 N.ar    1  UNL1       -0.3255
     13 C         -21.5441   51.9381  -10.5334 C.ar    1  UNL1        0.0755
     14 O         -18.2667   53.0857   -9.7497 O.3     1  UNL1       -0.4824
     15 H         -21.9421   50.0306  -11.4357 H       1  UNL1        0.1686
     16 C         -19.8892   55.4794   -8.7959 C.2     1  UNL1        0.2535
     17 O         -18.8700   55.3810   -8.0598 O.2     1  UNL1       -0.2697
     18 N         -20.4811   56.7677   -9.0463 N.am    1  UNL1       -0.2657
     19 H         -21.3707   56.8203   -9.5889 H       1  UNL1        0.1566
     20 C         -19.9735   58.0052   -8.5244 C.ar    1  UNL1        0.1356
     21 C         -19.6654   58.1600   -7.1660 C.ar    1  UNL1        0.0485
     22 C         -19.1436   59.3737   -6.6970 C.ar    1  UNL1        0.0497
     23 N         -18.8407   59.4973   -5.2994 N.pl3   1  UNL1       -0.3569
     24 C         -18.9191   60.4346   -7.6095 C.ar    1  UNL1        0.1035
     25 C         -19.2154   60.2159   -8.9678 C.ar    1  UNL1        0.1054
     26 N         -19.7207   59.0262   -9.3829 N.ar    1  UNL1       -0.2290
     27 H         -18.4335   60.3631   -4.8859 H       1  UNL1        0.1424
     28 H         -19.0203   58.7012   -4.6476 H       1  UNL1        0.1424
     29 C         -18.3606   61.7681   -7.1571 C.3     1  UNL1        0.4212
     30 F         -18.9602   62.8275   -7.8168 F       1  UNL1       -0.1658
     31 F         -18.5794   61.9293   -5.8007 F       1  UNL1       -0.1658
     32 F         -17.0022   61.8146   -7.4131 F       1  UNL1       -0.1658
     33 N         -24.6681   50.6775  -11.4677 N.pl3   1  UNL1       -0.2827
     34 H         -24.5350   50.0514  -12.2933 H       1  UNL1        0.1551
     35 C         -26.0010   50.9277  -11.0007 C.ar    1  UNL1        0.0718
     36 C         -26.3256   50.7894   -9.6346 C.ar    1  UNL1        0.0719
     37 CL        -25.1364   50.2436   -8.4581 Cl      1  UNL1       -0.0809
     38 C         -27.6325   51.0368   -9.1992 C.ar    1  UNL1        0.0127
     39 C         -28.6204   51.4099  -10.1124 C.ar    1  UNL1        0.0018
     40 C         -28.3104   51.5294  -11.4682 C.ar    1  UNL1        0.0127
     41 C         -27.0081   51.2846  -11.9175 C.ar    1  UNL1        0.0719
     42 CL        -26.6519   51.4634  -13.6304 Cl      1  UNL1       -0.0809
@<TRIPOS>BOND
     1     1     2    1
     2     2     3    1
     3     2     4    1
     4     4     5    1
     5     5     6   ar
     6     6     7   ar
     7     7    16    1
     8    16    17    2
     9    16    18   am
    10    18    20    1
    11    20    21   ar
    12    21    22   ar
    13    22    23    1
    14    22    24   ar
    15    24    29    1
    16    29    30    1
    17    29    31    1
    18    29    32    1
    19    24    25   ar
    20    25    26   ar
    21     7     8   ar
    22     8     9   ar
    23     9    10   ar
    24    10    11   ar
    25    11    33    1
    26    33    35    1
    27    35    36   ar
    28    36    37    1
    29    36    38   ar
    30    38    39   ar
    31    39    40   ar
    32    40    41   ar
    33    41    42    1
    34    11    12   ar
    35    12    13   ar
    36     6    14    1
    37    14     2    1
    38    13     5   ar
    39    26    20   ar
    40    13     9   ar
    41    41    35   ar
    42    18    19    1
    43    23    27    1
    44    23    28    1
    45    33    34    1
    46    12    15    1
