@<TRIPOS>MOLECULE
*****
 45 50 0 0 0
SMALL
GASTEIGER

@<TRIPOS>ATOM
      1 C          60.1195   89.8601    5.2605 C.ar    1  UNL1        0.0702
      2 C          58.8264   90.2830    4.9157 C.ar    1  UNL1        0.0191
      3 C          58.5909   90.8781    3.6753 C.ar    1  UNL1        0.0356
      4 C          59.6587   91.0676    2.7822 C.ar    1  UNL1        0.1318
      5 N          60.9069   90.6624    3.1467 N.ar    1  UNL1       -0.2279
      6 C          61.1592   90.0806    4.3487 C.ar    1  UNL1        0.1149
      7 N          59.4570   91.6757    1.4900 N.pl3   1  UNL1       -0.2932
      8 C          58.9147   90.8985    0.3663 C.3     1  UNL1        0.0923
      9 C          57.9822   91.7634   -0.4911 C.3     1  UNL1        0.0252
     10 C          58.6239   93.1081   -0.8899 C.3     1  UNL1        0.0472
     11 C          59.1338   93.8478    0.3621 C.3     1  UNL1        0.0252
     12 C          60.0727   92.9790    1.2058 C.3     1  UNL1        0.0923
     13 C          59.7272   92.9452   -1.9526 C.3     1  UNL1        0.2054
     14 O          60.9110   93.6181   -1.5290 O.3     1  UNL1       -0.4755
     15 C          62.0792   92.9738   -1.0961 C.ar    1  UNL1        0.1388
     16 C          62.8521   92.1617   -1.9465 C.ar    1  UNL1        0.0369
     17 C          64.0081   91.5430   -1.4662 C.ar    1  UNL1        0.0033
     18 C          64.4050   91.7258   -0.1398 C.ar    1  UNL1        0.0066
     19 C          63.6451   92.5334    0.7246 C.ar    1  UNL1        0.0785
     20 C          62.4820   93.1528    0.2333 C.ar    1  UNL1        0.0433
     21 C          64.0598   92.7315    2.1311 C.2     1  UNL1        0.3381
     22 O          64.8052   93.6980    2.4474 O.2     1  UNL1       -0.2451
     23 O          63.6299   91.8507    3.1205 O.3     1  UNL1       -0.4771
     24 H          63.9079   91.9773    4.0864 H       1  UNL1        0.2954
     25 C          60.0384   87.9259    6.9030 C.2     1  UNL1        0.2839
     26 O          59.6636   87.1080    6.0204 O.2     1  UNL1       -0.2665
     27 N          60.4072   89.2658    6.5380 N.am    1  UNL1       -0.2766
     28 H          60.9926   89.8133    7.2089 H       1  UNL1        0.1553
     29 C          60.7447   86.3993   12.6756 C.ar    1  UNL1        0.0002
     30 C          59.6152   85.6025   12.3451 C.ar    1  UNL1        0.0031
     31 C          59.0689   85.6290   11.0502 C.ar    1  UNL1        0.0375
     32 C          59.6664   86.4566   10.1062 C.ar    1  UNL1        0.1452
     33 O          59.3105   86.6235    8.8558 O.2     1  UNL1       -0.4492
     34 C          60.1393   87.4963    8.3108 C.ar    1  UNL1        0.1946
     35 C          61.0821   87.9161    9.2559 C.ar    1  UNL1        0.0202
     36 C          62.2012   88.8945    9.0612 C.3     1  UNL1        0.0345
     37 C          60.7552   87.2291   10.4095 C.ar    1  UNL1        0.0337
     38 C          61.3233   87.2278   11.6844 C.ar    1  UNL1        0.0028
     39 C          62.9517   86.2778   18.0433 C.3     1  UNL1        0.0310
     40 C          62.4011   86.2840   16.6479 C.ar    1  UNL1       -0.0218
     41 C          61.2609   85.5308   16.3346 C.ar    1  UNL1       -0.0043
     42 C          60.7254   85.5641   15.0439 C.ar    1  UNL1       -0.0003
     43 C          61.3135   86.3634   14.0468 C.ar    1  UNL1       -0.0000
     44 C          62.4464   87.1312   14.3719 C.ar    1  UNL1       -0.0003
     45 C          62.9812   87.0959   15.6630 C.ar    1  UNL1       -0.0043
@<TRIPOS>BOND
     1    39    40    1
     2    40    41   ar
     3    41    42   ar
     4    42    43   ar
     5    43    29    1
     6    29    30   ar
     7    30    31   ar
     8    31    32   ar
     9    32    33   ar
    10    33    34   ar
    11    34    25    1
    12    25    26    2
    13    25    27   am
    14    27     1    1
    15     1     2   ar
    16     2     3   ar
    17     3     4   ar
    18     4     7    1
    19     7     8    1
    20     8     9    1
    21     9    10    1
    22    10    13    1
    23    13    14    1
    24    14    15    1
    25    15    16   ar
    26    16    17   ar
    27    17    18   ar
    28    18    19   ar
    29    19    21    1
    30    21    22    2
    31    21    23    1
    32    19    20   ar
    33    10    11    1
    34    11    12    1
    35     4     5   ar
    36     5     6   ar
    37    34    35   ar
    38    35    36    1
    39    35    37   ar
    40    37    38   ar
    41    43    44   ar
    42    44    45   ar
    43    45    40   ar
    44    38    29   ar
    45    37    32   ar
    46     6     1   ar
    47    12     7    1
    48    20    15   ar
    49    27    28    1
    50    23    24    1
@<TRIPOS>MOLECULE
*****
 45 50 0 0 0
SMALL
GASTEIGER

@<TRIPOS>ATOM
      1 C          61.6246   86.6212    9.2226 C.ar    1  UNL1        0.0702
      2 C          61.3468   85.2605    9.0199 C.ar    1  UNL1        0.0191
      3 C          61.5039   84.3495   10.0657 C.ar    1  UNL1        0.0356
      4 C          61.9587   84.7998   11.3164 C.ar    1  UNL1        0.1318
      5 N          62.2360   86.1229   11.4831 N.ar    1  UNL1       -0.2279
      6 C          62.0901   87.0274   10.4794 C.ar    1  UNL1        0.1149
      7 N          62.1313   83.8916   12.4234 N.pl3   1  UNL1       -0.2932
      8 C          63.1919   82.8738   12.4064 C.3     1  UNL1        0.0923
      9 C          63.7882   82.6888   13.8075 C.3     1  UNL1        0.0252
     10 C          62.7070   82.4728   14.8861 C.3     1  UNL1        0.0472
     11 C          61.6643   83.6061   14.8306 C.3     1  UNL1        0.0252
     12 C          61.0672   83.7755   13.4295 C.3     1  UNL1        0.0923
     13 C          62.0516   81.0815   14.7968 C.3     1  UNL1        0.2054
     14 O          61.9407   80.6850   13.4315 O.3     1  UNL1       -0.4755
     15 C          60.7410   80.3136   12.8071 C.ar    1  UNL1        0.1388
     16 C          59.8078   79.4546   13.4166 C.ar    1  UNL1        0.0369
     17 C          58.6272   79.1163   12.7524 C.ar    1  UNL1        0.0033
     18 C          58.3643   79.6276   11.4796 C.ar    1  UNL1        0.0066
     19 C          59.2851   80.4870   10.8548 C.ar    1  UNL1        0.0785
     20 C          60.4720   80.8227   11.5303 C.ar    1  UNL1        0.0433
     21 C          59.0131   81.0324    9.5064 C.2     1  UNL1        0.3381
     22 O          59.9242   81.0665    8.6354 O.2     1  UNL1       -0.2451
     23 O          57.7462   81.5139    9.1863 O.3     1  UNL1       -0.4771
     24 H          57.5495   81.8893    8.2662 H       1  UNL1        0.2954
     25 C          60.2431   88.0409    7.6348 C.2     1  UNL1        0.2839
     26 O          59.1707   87.8029    8.2526 O.2     1  UNL1       -0.2665
     27 N          61.4992   87.5863    8.1640 N.am    1  UNL1       -0.2766
     28 H          62.3722   88.0453    7.8177 H       1  UNL1        0.1553
     29 C          59.7594   91.1981    2.5406 C.ar    1  UNL1        0.0002
     30 C          61.1697   91.2228    2.7144 C.ar    1  UNL1        0.0031
     31 C          61.7714   90.5874    3.8144 C.ar    1  UNL1        0.0375
     32 C          60.9459   89.9362    4.7241 C.ar    1  UNL1        0.1452
     33 O          61.3076   89.2910    5.8062 O.2     1  UNL1       -0.4492
     34 C          60.2154   88.8246    6.3851 C.ar    1  UNL1        0.1946
     35 C          59.0872   89.1846    5.6395 C.ar    1  UNL1        0.0202
     36 C          57.6532   88.8619    5.9343 C.3     1  UNL1        0.0345
     37 C          59.5860   89.9030    4.5696 C.ar    1  UNL1        0.0337
     38 C          58.9551   90.5231    3.4899 C.ar    1  UNL1        0.0028
     39 C          57.3001   93.8476   -2.0013 C.3     1  UNL1        0.0310
     40 C          57.9581   93.1498   -0.8479 C.ar    1  UNL1       -0.0218
     41 C          58.9582   93.7965   -0.1081 C.ar    1  UNL1       -0.0043
     42 C          59.5467   93.1615    0.9893 C.ar    1  UNL1       -0.0003
     43 C          59.1346   91.8728    1.3747 C.ar    1  UNL1       -0.0000
     44 C          58.1179   91.2365    0.6398 C.ar    1  UNL1       -0.0003
     45 C          57.5312   91.8726   -0.4580 C.ar    1  UNL1       -0.0043
@<TRIPOS>BOND
     1    39    40    1
     2    40    41   ar
     3    41    42   ar
     4    42    43   ar
     5    43    29    1
     6    29    30   ar
     7    30    31   ar
     8    31    32   ar
     9    32    33   ar
    10    33    34   ar
    11    34    25    1
    12    25    26    2
    13    25    27   am
    14    27     1    1
    15     1     2   ar
    16     2     3   ar
    17     3     4   ar
    18     4     7    1
    19     7     8    1
    20     8     9    1
    21     9    10    1
    22    10    13    1
    23    13    14    1
    24    14    15    1
    25    15    16   ar
    26    16    17   ar
    27    17    18   ar
    28    18    19   ar
    29    19    21    1
    30    21    22    2
    31    21    23    1
    32    19    20   ar
    33    10    11    1
    34    11    12    1
    35     4     5   ar
    36     5     6   ar
    37    34    35   ar
    38    35    36    1
    39    35    37   ar
    40    37    38   ar
    41    43    44   ar
    42    44    45   ar
    43    45    40   ar
    44    38    29   ar
    45    37    32   ar
    46     6     1   ar
    47    12     7    1
    48    20    15   ar
    49    27    28    1
    50    23    24    1
@<TRIPOS>MOLECULE
*****
 45 50 0 0 0
SMALL
GASTEIGER

@<TRIPOS>ATOM
      1 C          58.9961   89.3606    5.5206 C.ar    1  UNL1        0.0702
      2 C          57.8897   90.1222    5.1134 C.ar    1  UNL1        0.0191
      3 C          57.9546   90.8838    3.9455 C.ar    1  UNL1        0.0356
      4 C          59.1393   90.8977    3.1905 C.ar    1  UNL1        0.1318
      5 N          60.2039   90.1621    3.6152 N.ar    1  UNL1       -0.2279
      6 C          60.1632   89.4132    4.7486 C.ar    1  UNL1        0.1149
      7 N          59.2461   91.6690    1.9764 N.pl3   1  UNL1       -0.2932
      8 C          58.3947   91.3714    0.8156 C.3     1  UNL1        0.0923
      9 C          57.9828   92.6639    0.0998 C.3     1  UNL1        0.0252
     10 C          59.1856   93.5806   -0.2034 C.3     1  UNL1        0.0472
     11 C          59.9913   93.8464    1.0831 C.3     1  UNL1        0.0252
     12 C          60.4068   92.5489    1.7846 C.3     1  UNL1        0.0923
     13 C          60.0741   93.0355   -1.3377 C.3     1  UNL1        0.2054
     14 O          61.3729   93.6190   -1.2587 O.3     1  UNL1       -0.4755
     15 C          62.5513   92.9028   -1.0023 C.ar    1  UNL1        0.1388
     16 C          63.0150   91.8835   -1.8544 C.ar    1  UNL1        0.0369
     17 C          64.1956   91.2010   -1.5543 C.ar    1  UNL1        0.0033
     18 C          64.9237   91.5248   -0.4073 C.ar    1  UNL1        0.0066
     19 C          64.4755   92.5400    0.4560 C.ar    1  UNL1        0.0785
     20 C          63.2855   93.2226    0.1468 C.ar    1  UNL1        0.0433
     21 C          65.2420   92.8882    1.6728 C.2     1  UNL1        0.3381
     22 O          64.7504   93.6634    2.5374 O.2     1  UNL1       -0.2451
     23 O          66.5155   92.3623    1.8750 O.3     1  UNL1       -0.4771
     24 H          67.0486   92.5943    2.7046 H       1  UNL1        0.2954
     25 C          60.1413   88.3027    7.5243 C.2     1  UNL1        0.2839
     26 O          61.2088   88.9454    7.3347 O.2     1  UNL1       -0.2665
     27 N          58.9772   88.5831    6.7301 N.am    1  UNL1       -0.2766
     28 H          58.0479   88.2750    7.0964 H       1  UNL1        0.1553
     29 C          59.7898   83.9102   11.6150 C.ar    1  UNL1        0.0002
     30 C          60.0566   85.0184   12.4638 C.ar    1  UNL1        0.0031
     31 C          60.2227   86.3092   11.9328 C.ar    1  UNL1        0.0375
     32 C          60.1181   86.4670   10.5553 C.ar    1  UNL1        0.1452
     33 O          60.2408   87.5777    9.8703 O.2     1  UNL1       -0.4492
     34 C          60.0721   87.2875    8.5925 C.ar    1  UNL1        0.1946
     35 C          59.8260   85.9182    8.4408 C.ar    1  UNL1        0.0202
     36 C          59.5783   85.1677    7.1670 C.3     1  UNL1        0.0345
     37 C          59.8606   85.4093    9.7251 C.ar    1  UNL1        0.0337
     38 C          59.6904   84.1145   10.2178 C.ar    1  UNL1        0.0028
     39 C          59.0988   78.6067   13.8717 C.3     1  UNL1        0.0310
     40 C          59.2914   79.9636   13.2619 C.ar    1  UNL1       -0.0218
     41 C          58.2803   80.5356   12.4769 C.ar    1  UNL1       -0.0043
     42 C          58.4435   81.8150   11.9380 C.ar    1  UNL1       -0.0003
     43 C          59.6162   82.5509   12.1871 C.ar    1  UNL1       -0.0000
     44 C          60.6193   81.9792   12.9907 C.ar    1  UNL1       -0.0003
     45 C          60.4549   80.6993   13.5279 C.ar    1  UNL1       -0.0043
@<TRIPOS>BOND
     1    39    40    1
     2    40    41   ar
     3    41    42   ar
     4    42    43   ar
     5    43    29    1
     6    29    30   ar
     7    30    31   ar
     8    31    32   ar
     9    32    33   ar
    10    33    34   ar
    11    34    25    1
    12    25    26    2
    13    25    27   am
    14    27     1    1
    15     1     2   ar
    16     2     3   ar
    17     3     4   ar
    18     4     7    1
    19     7     8    1
    20     8     9    1
    21     9    10    1
    22    10    13    1
    23    13    14    1
    24    14    15    1
    25    15    16   ar
    26    16    17   ar
    27    17    18   ar
    28    18    19   ar
    29    19    21    1
    30    21    22    2
    31    21    23    1
    32    19    20   ar
    33    10    11    1
    34    11    12    1
    35     4     5   ar
    36     5     6   ar
    37    34    35   ar
    38    35    36    1
    39    35    37   ar
    40    37    38   ar
    41    43    44   ar
    42    44    45   ar
    43    45    40   ar
    44    38    29   ar
    45    37    32   ar
    46     6     1   ar
    47    12     7    1
    48    20    15   ar
    49    27    28    1
    50    23    24    1
