@<TRIPOS>MOLECULE
*****
 41 43 0 0 0
SMALL
GASTEIGER

@<TRIPOS>ATOM
      1 N          48.8760   14.4513  -23.8189 N.pl3   1  UNL1       -0.2847
      2 C          49.3510   15.1794  -25.0057 C.3     1  UNL1        0.1049
      3 C          48.2877   16.1706  -25.5023 C.3     1  UNL1        0.0839
      4 S          48.8182   16.9390  -27.0724 S.3     1  UNL1       -0.1654
      5 C          46.9025   15.5098  -25.6602 C.3     1  UNL1        0.1119
      6 C          46.4821   14.8224  -24.3422 C.3     1  UNL1        0.1537
      7 C          47.5486   13.8191  -23.8796 C.3     1  UNL1        0.1238
      8 H          49.9099   17.5994  -26.4768 H       1  UNL1        0.1024
      9 C          50.5538   13.0868  -20.8975 C.ar    1  UNL1        0.1486
     10 N          49.4940   13.3278  -21.7182 N.ar    1  UNL1       -0.2193
     11 C          49.8246   14.0685  -22.7992 C.ar    1  UNL1        0.1635
     12 S          51.4626   14.4581  -22.7820 S.2     1  UNL1       -0.0449
     13 C          51.7629   13.6579  -21.3307 C.ar    1  UNL1        0.1295
     14 N          50.3207   12.8092  -18.4039 N.am    1  UNL1       -0.2988
     15 C          50.3874   12.2224  -19.7128 C.2     1  UNL1        0.2644
     16 O          50.2497   10.9774  -19.8522 O.2     1  UNL1       -0.2685
     17 H          50.5267   13.8298  -18.3046 H       1  UNL1        0.1498
     18 C          50.0023   12.0236  -17.2064 C.3     1  UNL1        0.1015
     19 C          50.9363   12.4078  -16.0520 C.3     1  UNL1        0.0239
     20 C          48.5307   12.2242  -16.8135 C.3     1  UNL1        0.1617
     21 C          47.0186   11.6693  -18.4607 C.3     1  UNL1        0.1742
     22 O          47.7423   11.1827  -17.3532 O.3     1  UNL1       -0.3494
     23 C          53.0667   13.6883  -20.6446 C.2     1  UNL1        0.3459
     24 O          54.0406   13.0535  -21.1307 O.2     1  UNL1       -0.2445
     25 O          53.2535   14.4530  -19.4980 O.3     1  UNL1       -0.4767
     26 H          54.1547   14.4879  -19.0368 H       1  UNL1        0.2954
     27 N          46.8879   14.5532  -26.7773 N.am    1  UNL1       -0.2980
     28 C          45.9573   14.6518  -27.8677 C.2     1  UNL1        0.2624
     29 O          45.0554   15.5324  -27.8464 O.2     1  UNL1       -0.2685
     30 H          47.4820   13.6987  -26.7092 H       1  UNL1        0.1498
     31 C          46.0427   13.7247  -29.0166 C.ar    1  UNL1        0.1220
     32 N          45.7839   14.0781  -30.2943 N.ar    1  UNL1       -0.3515
     33 C          45.9490   12.9750  -31.0499 C.ar    1  UNL1        0.0456
     34 C          45.6952   12.9272  -32.5225 C.3     1  UNL1        0.0507
     35 C          46.2993   11.9010  -30.2552 C.ar    1  UNL1        0.0811
     36 CL         46.5852   10.2506  -30.7809 Cl      1  UNL1       -0.0802
     37 C          46.3624   12.3742  -28.9605 C.ar    1  UNL1        0.0893
     38 CL         46.7799   11.4255  -27.5413 Cl      1  UNL1       -0.0797
     39 H          45.4795   15.0145  -30.6412 H       1  UNL1        0.1658
     40 O          45.2583   14.1271  -24.5207 O.3     1  UNL1       -0.3501
     41 C          45.4190   12.7526  -24.2459 C.3     1  UNL1        0.1741
@<TRIPOS>BOND
     1    21    22    1
     2    22    20    1
     3    20    18    1
     4    18    19    1
     5    18    14    1
     6    14    15   am
     7    15    16    2
     8    15     9    1
     9     9    10   ar
    10    10    11   ar
    11    11     1    1
    12     1     2    1
    13     2     3    1
    14     3     4    1
    15     3     5    1
    16     5    27    1
    17    27    28   am
    18    28    29    2
    19    28    31    1
    20    31    32   ar
    21    32    33   ar
    22    33    34    1
    23    33    35   ar
    24    35    36    1
    25    35    37   ar
    26    37    38    1
    27     5     6    1
    28     6    40    1
    29    40    41    1
    30     6     7    1
    31    11    12   ar
    32    12    13   ar
    33    13    23    1
    34    23    24    2
    35    23    25    1
    36    13     9   ar
    37     7     1    1
    38    37    31   ar
    39    14    17    1
    40     4     8    1
    41    27    30    1
    42    32    39    1
    43    25    26    1
@<TRIPOS>MOLECULE
*****
 41 43 0 0 0
SMALL
GASTEIGER

@<TRIPOS>ATOM
      1 N          47.7471   13.2137  -23.4046 N.pl3   1  UNL1       -0.2847
      2 C          48.7269   13.7637  -24.3540 C.3     1  UNL1        0.1049
      3 C          48.2121   15.0697  -24.9779 C.3     1  UNL1        0.0839
      4 S          49.3565   15.6476  -26.2792 S.3     1  UNL1       -0.1654
      5 C          46.7811   14.9252  -25.5361 C.3     1  UNL1        0.1119
      6 C          45.8294   14.3918  -24.4424 C.3     1  UNL1        0.1537
      7 C          46.3522   13.0741  -23.8520 C.3     1  UNL1        0.1238
      8 H          50.4054   15.8816  -25.3693 H       1  UNL1        0.1024
      9 C          48.8131   12.2237  -20.0737 C.ar    1  UNL1        0.1486
     10 N          48.3623   13.0878  -21.0250 N.ar    1  UNL1       -0.2193
     11 C          48.2166   12.5063  -22.2362 C.ar    1  UNL1        0.1635
     12 S          48.6443   10.8788  -22.1762 S.2     1  UNL1       -0.0449
     13 C          49.0417   10.9175  -20.5400 C.ar    1  UNL1        0.1295
     14 N          49.7855   11.9392  -17.7666 N.am    1  UNL1       -0.2988
     15 C          48.9489   12.6728  -18.6744 C.2     1  UNL1        0.2644
     16 O          48.3763   13.7276  -18.2898 O.2     1  UNL1       -0.2685
     17 H          50.1769   11.0216  -18.0809 H       1  UNL1        0.1498
     18 C          50.0843   12.4184  -16.4124 C.3     1  UNL1        0.1015
     19 C          49.6363   11.3862  -15.3700 C.3     1  UNL1        0.0239
     20 C          51.5834   12.7248  -16.2745 C.3     1  UNL1        0.1617
     21 C          52.4411   12.9138  -18.4043 C.3     1  UNL1        0.1742
     22 O          52.3060   12.0599  -17.2910 O.3     1  UNL1       -0.3494
     23 C          49.6229    9.7699  -19.8210 C.2     1  UNL1        0.3459
     24 O          50.8305    9.8065  -19.4633 O.2     1  UNL1       -0.2445
     25 O          48.8428    8.6695  -19.4818 O.3     1  UNL1       -0.4767
     26 H          49.2382    7.8887  -18.9718 H       1  UNL1        0.2954
     27 N          46.7527   14.0576  -26.7233 N.am    1  UNL1       -0.2980
     28 C          46.0219   14.3982  -27.9127 C.2     1  UNL1        0.2624
     29 O          45.3022   15.4329  -27.9332 O.2     1  UNL1       -0.2685
     30 H          47.1651   13.1023  -26.6522 H       1  UNL1        0.1498
     31 C          46.1008   13.5421  -29.1159 C.ar    1  UNL1        0.1220
     32 N          45.7967   13.9612  -30.3634 N.ar    1  UNL1       -0.3515
     33 C          45.9711   12.9090  -31.1866 C.ar    1  UNL1        0.0456
     34 C          45.6777   12.9392  -32.6522 C.3     1  UNL1        0.0507
     35 C          46.3729   11.8015  -30.4657 C.ar    1  UNL1        0.0811
     36 CL         46.6895   10.1933  -31.0948 Cl      1  UNL1       -0.0802
     37 C          46.4591   12.2005  -29.1477 C.ar    1  UNL1        0.0893
     38 CL         46.9420   11.1838  -27.7980 Cl      1  UNL1       -0.0797
     39 H          45.4570   14.9069  -30.6467 H       1  UNL1        0.1658
     40 O          44.5393   14.1602  -24.9857 O.3     1  UNL1       -0.3501
     41 C          44.1394   12.8240  -24.7733 C.3     1  UNL1        0.1741
@<TRIPOS>BOND
     1    21    22    1
     2    22    20    1
     3    20    18    1
     4    18    19    1
     5    18    14    1
     6    14    15   am
     7    15    16    2
     8    15     9    1
     9     9    10   ar
    10    10    11   ar
    11    11     1    1
    12     1     2    1
    13     2     3    1
    14     3     4    1
    15     3     5    1
    16     5    27    1
    17    27    28   am
    18    28    29    2
    19    28    31    1
    20    31    32   ar
    21    32    33   ar
    22    33    34    1
    23    33    35   ar
    24    35    36    1
    25    35    37   ar
    26    37    38    1
    27     5     6    1
    28     6    40    1
    29    40    41    1
    30     6     7    1
    31    11    12   ar
    32    12    13   ar
    33    13    23    1
    34    23    24    2
    35    23    25    1
    36    13     9   ar
    37     7     1    1
    38    37    31   ar
    39    14    17    1
    40     4     8    1
    41    27    30    1
    42    32    39    1
    43    25    26    1
@<TRIPOS>MOLECULE
*****
 41 43 0 0 0
SMALL
GASTEIGER

@<TRIPOS>ATOM
      1 N          50.3425   11.6138  -25.7551 N.pl3   1  UNL1       -0.2847
      2 C          49.1425   11.1670  -25.0310 C.3     1  UNL1        0.1049
      3 C          48.2624   12.3631  -24.6381 C.3     1  UNL1        0.0839
      4 S          46.8701   11.8122  -23.5917 S.3     1  UNL1       -0.1654
      5 C          49.0681   13.4733  -23.9319 C.3     1  UNL1        0.1119
      6 C          50.2705   13.9008  -24.8027 C.3     1  UNL1        0.1537
      7 C          51.1480   12.6927  -25.1613 C.3     1  UNL1        0.1238
      8 H          46.2870   11.0515  -24.6234 H       1  UNL1        0.1024
      9 C          50.9300    9.1108  -28.3244 C.ar    1  UNL1        0.1486
     10 N          50.2122    9.7549  -27.3627 N.ar    1  UNL1       -0.2193
     11 C          50.8919   10.7760  -26.7954 C.ar    1  UNL1        0.1635
     12 S          52.4270   10.9243  -27.4712 S.2     1  UNL1       -0.0449
     13 C          52.2221    9.6265  -28.5250 C.ar    1  UNL1        0.1295
     14 N          50.5912    7.8972  -30.5066 N.am    1  UNL1       -0.2988
     15 C          50.3081    8.0231  -29.1044 C.2     1  UNL1        0.2644
     16 O          49.5734    7.1740  -28.5320 O.2     1  UNL1       -0.2685
     17 H          51.1285    8.6615  -30.9768 H       1  UNL1        0.1498
     18 C          50.1308    6.7529  -31.3010 C.3     1  UNL1        0.1015
     19 C          48.6772    6.9611  -31.7442 C.3     1  UNL1        0.0239
     20 C          51.0507    6.5414  -32.5132 C.3     1  UNL1        0.1617
     21 C          53.3355    6.2637  -32.6128 C.3     1  UNL1        0.1742
     22 O          52.2999    7.1613  -32.2833 O.3     1  UNL1       -0.3494
     23 C          53.2944    9.1149  -29.3968 C.2     1  UNL1        0.3459
     24 O          53.4839    7.8724  -29.4864 O.2     1  UNL1       -0.2445
     25 O          54.0646    9.9808  -30.1659 O.3     1  UNL1       -0.4767
     26 H          54.7897    9.6274  -30.7787 H       1  UNL1        0.2954
     27 N          49.5140   13.0470  -22.5969 N.am    1  UNL1       -0.2980
     28 C          49.3237   13.8544  -21.4236 C.2     1  UNL1        0.2624
     29 O          48.8349   15.0116  -21.5297 O.2     1  UNL1       -0.2685
     30 H          50.1071   12.1926  -22.5190 H       1  UNL1        0.1498
     31 C          49.7012   13.3431  -20.0884 C.ar    1  UNL1        0.1220
     32 N          48.8262   12.8132  -19.2064 N.ar    1  UNL1       -0.3515
     33 C          49.5287   12.4774  -18.1069 C.ar    1  UNL1        0.0456
     34 C          48.9156   11.9134  -16.8655 C.3     1  UNL1        0.0507
     35 C          50.8597   12.8070  -18.2728 C.ar    1  UNL1        0.0811
     36 CL         52.1513   12.5937  -17.1030 Cl      1  UNL1       -0.0802
     37 C          50.9745   13.3561  -19.5334 C.ar    1  UNL1        0.0893
     38 CL         52.4615   13.9392  -20.2664 Cl      1  UNL1       -0.0797
     39 H          47.7943   12.7089  -19.3257 H       1  UNL1        0.1658
     40 O          51.0685   14.8451  -24.1066 O.3     1  UNL1       -0.3501
     41 C          50.5836   16.1547  -24.3073 C.3     1  UNL1        0.1741
@<TRIPOS>BOND
     1    21    22    1
     2    22    20    1
     3    20    18    1
     4    18    19    1
     5    18    14    1
     6    14    15   am
     7    15    16    2
     8    15     9    1
     9     9    10   ar
    10    10    11   ar
    11    11     1    1
    12     1     2    1
    13     2     3    1
    14     3     4    1
    15     3     5    1
    16     5    27    1
    17    27    28   am
    18    28    29    2
    19    28    31    1
    20    31    32   ar
    21    32    33   ar
    22    33    34    1
    23    33    35   ar
    24    35    36    1
    25    35    37   ar
    26    37    38    1
    27     5     6    1
    28     6    40    1
    29    40    41    1
    30     6     7    1
    31    11    12   ar
    32    12    13   ar
    33    13    23    1
    34    23    24    2
    35    23    25    1
    36    13     9   ar
    37     7     1    1
    38    37    31   ar
    39    14    17    1
    40     4     8    1
    41    27    30    1
    42    32    39    1
    43    25    26    1
@<TRIPOS>MOLECULE
*****
 41 43 0 0 0
SMALL
GASTEIGER

@<TRIPOS>ATOM
      1 N          48.5312   13.0747  -23.1220 N.pl3   1  UNL1       -0.2847
      2 C          49.5861   13.8781  -22.4850 C.3     1  UNL1        0.1049
      3 C          50.5721   12.9814  -21.7212 C.3     1  UNL1        0.0839
      4 S          51.7716   14.0002  -20.7938 S.3     1  UNL1       -0.1654
      5 C          49.8530   11.9939  -20.7788 C.3     1  UNL1        0.1119
      6 C          48.8076   11.1689  -21.5618 C.3     1  UNL1        0.1537
      7 C          47.8192   12.0867  -22.2960 C.3     1  UNL1        0.1238
      8 H          52.3485   14.5334  -21.9625 H       1  UNL1        0.1024
      9 C          46.9819   13.2931  -26.4028 C.ar    1  UNL1        0.1486
     10 N          47.4406   12.6582  -25.2886 N.ar    1  UNL1       -0.2193
     11 C          47.9815   13.5063  -24.3860 C.ar    1  UNL1        0.1635
     12 S          47.9113   15.0955  -24.9380 S.2     1  UNL1       -0.0449
     13 C          47.1692   14.6862  -26.3935 C.ar    1  UNL1        0.1295
     14 N          46.4478   12.8943  -28.8328 N.am    1  UNL1       -0.2988
     15 C          46.2854   12.5266  -27.4542 C.2     1  UNL1        0.2644
     16 O          45.5931   11.5186  -27.1491 O.2     1  UNL1       -0.2685
     17 H          46.9512   13.7838  -29.0551 H       1  UNL1        0.1498
     18 C          45.9104   12.0827  -29.9306 C.3     1  UNL1        0.1015
     19 C          45.5990   12.9665  -31.1450 C.3     1  UNL1        0.0239
     20 C          46.8989   10.9666  -30.3014 C.3     1  UNL1        0.1617
     21 C          47.9029    9.1634  -29.2777 C.3     1  UNL1        0.1742
     22 O          46.6819    9.8386  -29.4781 O.3     1  UNL1       -0.3494
     23 C          46.8947   15.6610  -27.4641 C.2     1  UNL1        0.3459
     24 O          45.7244   15.7747  -27.9169 O.2     1  UNL1       -0.2445
     25 O          47.8972   16.4973  -27.9436 O.3     1  UNL1       -0.4767
     26 H          47.7039   17.1797  -28.6669 H       1  UNL1        0.2954
     27 N          49.2269   12.6920  -19.6458 N.am    1  UNL1       -0.2980
     28 C          49.3618   12.2394  -18.2887 C.2     1  UNL1        0.2624
     29 O          49.9636   11.1592  -18.0435 O.2     1  UNL1       -0.2685
     30 H          48.5528   13.4622  -19.8461 H       1  UNL1        0.1498
     31 C          48.7956   13.0271  -17.1725 C.ar    1  UNL1        0.1220
     32 N          47.9107   14.0352  -17.3310 N.ar    1  UNL1       -0.3515
     33 C          47.6397   14.5188  -16.1031 C.ar    1  UNL1        0.0456
     34 C          46.7471   15.6905  -15.8466 C.3     1  UNL1        0.0507
     35 C          48.3651   13.8318  -15.1495 C.ar    1  UNL1        0.0811
     36 CL         48.3723   14.1245  -13.4184 Cl      1  UNL1       -0.0802
     37 C          49.1004   12.8798  -15.8254 C.ar    1  UNL1        0.0893
     38 CL         50.1932   11.7160  -15.0908 Cl      1  UNL1       -0.0797
     39 H          47.5271   14.4035  -18.2294 H       1  UNL1        0.1658
     40 O          48.0754   10.3376  -20.6753 O.3     1  UNL1       -0.3501
     41 C          48.4575    8.9877  -20.8247 C.3     1  UNL1        0.1741
@<TRIPOS>BOND
     1    21    22    1
     2    22    20    1
     3    20    18    1
     4    18    19    1
     5    18    14    1
     6    14    15   am
     7    15    16    2
     8    15     9    1
     9     9    10   ar
    10    10    11   ar
    11    11     1    1
    12     1     2    1
    13     2     3    1
    14     3     4    1
    15     3     5    1
    16     5    27    1
    17    27    28   am
    18    28    29    2
    19    28    31    1
    20    31    32   ar
    21    32    33   ar
    22    33    34    1
    23    33    35   ar
    24    35    36    1
    25    35    37   ar
    26    37    38    1
    27     5     6    1
    28     6    40    1
    29    40    41    1
    30     6     7    1
    31    11    12   ar
    32    12    13   ar
    33    13    23    1
    34    23    24    2
    35    23    25    1
    36    13     9   ar
    37     7     1    1
    38    37    31   ar
    39    14    17    1
    40     4     8    1
    41    27    30    1
    42    32    39    1
    43    25    26    1
@<TRIPOS>MOLECULE
*****
 41 43 0 0 0
SMALL
GASTEIGER

@<TRIPOS>ATOM
      1 N          48.8192   11.3126  -22.7120 N.pl3   1  UNL1       -0.2847
      2 C          49.2694    9.9511  -23.0399 C.3     1  UNL1        0.1049
      3 C          50.6764    9.9726  -23.6561 C.3     1  UNL1        0.0839
      4 S          51.1508    8.3003  -24.2175 S.3     1  UNL1       -0.1654
      5 C          50.7918   10.9881  -24.8119 C.3     1  UNL1        0.1119
      6 C          50.3444   12.3900  -24.3416 C.3     1  UNL1        0.1537
      7 C          48.9267   12.3471  -23.7529 C.3     1  UNL1        0.1238
      8 H          51.1607    7.7740  -22.9114 H       1  UNL1        0.1024
      9 C          47.4392   11.6350  -19.3649 C.ar    1  UNL1        0.1486
     10 N          48.4112   11.3869  -20.2861 N.ar    1  UNL1       -0.2193
     11 C          47.9747   11.5181  -21.5584 C.ar    1  UNL1        0.1635
     12 S          46.3485   11.9531  -21.5935 S.2     1  UNL1       -0.0449
     13 C          46.1894   11.9656  -19.9169 C.ar    1  UNL1        0.1295
     14 N          48.6422   12.6163  -17.3801 N.am    1  UNL1       -0.2988
     15 C          47.7657   11.6181  -17.9256 C.2     1  UNL1        0.2644
     16 O          47.2349   10.7637  -17.1663 O.2     1  UNL1       -0.2685
     17 H          49.1397   13.2569  -18.0404 H       1  UNL1        0.1498
     18 C          48.8820   12.7475  -15.9386 C.3     1  UNL1        0.1015
     19 C          50.3799   12.6229  -15.6331 C.3     1  UNL1        0.0239
     20 C          48.3252   14.0844  -15.4255 C.3     1  UNL1        0.1617
     21 C          46.7610   15.7362  -15.7893 C.3     1  UNL1        0.1742
     22 O          47.1759   14.4428  -16.1659 O.3     1  UNL1       -0.3494
     23 C          44.9061   12.1875  -19.2273 C.2     1  UNL1        0.3459
     24 O          44.8595   12.9602  -18.2332 O.2     1  UNL1       -0.2445
     25 O          43.7341   11.6002  -19.6919 O.3     1  UNL1       -0.4767
     26 H          42.8490   11.7673  -19.2284 H       1  UNL1        0.2954
     27 N          50.0162   10.5572  -25.9848 N.am    1  UNL1       -0.2980
     28 C          50.6322    9.9979  -27.1563 C.2     1  UNL1        0.2624
     29 O          51.8888    9.9422  -27.2396 O.2     1  UNL1       -0.2685
     30 H          48.9999   10.7887  -26.0225 H       1  UNL1        0.1498
     31 C          49.8053    9.4897  -28.2720 C.ar    1  UNL1        0.1220
     32 N          48.5726    9.9533  -28.5719 N.ar    1  UNL1       -0.3515
     33 C          48.1309    9.2445  -29.6290 C.ar    1  UNL1        0.0456
     34 C          46.7735    9.4076  -30.2340 C.3     1  UNL1        0.0507
     35 C          49.0748    8.3080  -30.0028 C.ar    1  UNL1        0.0811
     36 CL         48.9370    7.1335  -31.3005 Cl      1  UNL1       -0.0802
     37 C          50.1432    8.4621  -29.1433 C.ar    1  UNL1        0.0893
     38 CL         51.6315    7.5282  -29.1797 Cl      1  UNL1       -0.0797
     39 H          48.0371   10.6949  -28.0687 H       1  UNL1        0.1658
     40 O          50.3511   13.2979  -25.4319 O.3     1  UNL1       -0.3501
     41 C          49.2253   14.1469  -25.3829 C.3     1  UNL1        0.1741
@<TRIPOS>BOND
     1    21    22    1
     2    22    20    1
     3    20    18    1
     4    18    19    1
     5    18    14    1
     6    14    15   am
     7    15    16    2
     8    15     9    1
     9     9    10   ar
    10    10    11   ar
    11    11     1    1
    12     1     2    1
    13     2     3    1
    14     3     4    1
    15     3     5    1
    16     5    27    1
    17    27    28   am
    18    28    29    2
    19    28    31    1
    20    31    32   ar
    21    32    33   ar
    22    33    34    1
    23    33    35   ar
    24    35    36    1
    25    35    37   ar
    26    37    38    1
    27     5     6    1
    28     6    40    1
    29    40    41    1
    30     6     7    1
    31    11    12   ar
    32    12    13   ar
    33    13    23    1
    34    23    24    2
    35    23    25    1
    36    13     9   ar
    37     7     1    1
    38    37    31   ar
    39    14    17    1
    40     4     8    1
    41    27    30    1
    42    32    39    1
    43    25    26    1
@<TRIPOS>MOLECULE
*****
 41 43 0 0 0
SMALL
GASTEIGER

@<TRIPOS>ATOM
      1 N          50.3505   10.0017  -27.5112 N.pl3   1  UNL1       -0.2847
      2 C          51.5805   10.4730  -26.8561 C.3     1  UNL1        0.1049
      3 C          51.3480   10.7039  -25.3553 C.3     1  UNL1        0.0839
      4 S          52.8281   11.4525  -24.5899 S.3     1  UNL1       -0.1654
      5 C          50.0989   11.5681  -25.0845 C.3     1  UNL1        0.1119
      6 C          48.8608   10.9532  -25.7740 C.3     1  UNL1        0.1537
      7 C          49.1086   10.7553  -27.2765 C.3     1  UNL1        0.1238
      8 H          53.6268   10.3170  -24.8259 H       1  UNL1        0.1024
      9 C          51.4718    7.7918  -30.1702 C.ar    1  UNL1        0.1486
     10 N          51.6264    8.6693  -29.1402 N.ar    1  UNL1       -0.2193
     11 C          50.4492    9.0765  -28.6159 C.ar    1  UNL1        0.1635
     12 S          49.1544    8.3564  -29.4160 S.2     1  UNL1       -0.0449
     13 C          50.1335    7.4963  -30.4828 C.ar    1  UNL1        0.1295
     14 N          53.9496    7.3348  -30.1970 N.am    1  UNL1       -0.2988
     15 C          52.6571    7.1821  -30.8038 C.2     1  UNL1        0.2644
     16 O          52.5292    6.4835  -31.8449 O.2     1  UNL1       -0.2685
     17 H          54.0456    7.9904  -29.3877 H       1  UNL1        0.1498
     18 C          55.1369    6.6273  -30.6894 C.3     1  UNL1        0.1015
     19 C          55.3285    6.8857  -32.1892 C.3     1  UNL1        0.0239
     20 C          56.3799    7.0550  -29.8942 C.3     1  UNL1        0.1617
     21 C          58.5430    6.3921  -30.3289 C.3     1  UNL1        0.1742
     22 O          57.2953    5.9810  -29.8178 O.3     1  UNL1       -0.3494
     23 C          49.6032    6.6826  -31.5910 C.2     1  UNL1        0.3459
     24 O          48.6026    5.9420  -31.3958 O.2     1  UNL1       -0.2445
     25 O          50.1564    6.7621  -32.8647 O.3     1  UNL1       -0.4767
     26 H          49.7802    6.2160  -33.6304 H       1  UNL1        0.2954
     27 N          50.3033   12.9584  -25.5185 N.am    1  UNL1       -0.2980
     28 C          49.8350   14.0831  -24.7567 C.2     1  UNL1        0.2624
     29 O          49.1470   13.8952  -23.7172 O.2     1  UNL1       -0.2685
     30 H          50.6810   13.1312  -26.4752 H       1  UNL1        0.1498
     31 C          50.1478   15.4641  -25.1831 C.ar    1  UNL1        0.1220
     32 N          51.1160   16.2256  -24.6291 N.ar    1  UNL1       -0.3515
     33 C          51.0928   17.4150  -25.2616 C.ar    1  UNL1        0.0456
     34 C          51.9725   18.5687  -24.9006 C.3     1  UNL1        0.0507
     35 C          50.0948   17.4277  -26.2162 C.ar    1  UNL1        0.0811
     36 CL         49.6584   18.7654  -27.2661 Cl      1  UNL1       -0.0802
     37 C          49.4922   16.1872  -26.1714 C.ar    1  UNL1        0.0893
     38 CL         48.1620   15.6560  -27.1896 Cl      1  UNL1       -0.0797
     39 H          51.7469   15.9682  -23.8381 H       1  UNL1        0.1658
     40 O          47.7368   11.8038  -25.6121 O.3     1  UNL1       -0.3501
     41 C          47.0552   11.9707  -26.8361 C.3     1  UNL1        0.1741
@<TRIPOS>BOND
     1    21    22    1
     2    22    20    1
     3    20    18    1
     4    18    19    1
     5    18    14    1
     6    14    15   am
     7    15    16    2
     8    15     9    1
     9     9    10   ar
    10    10    11   ar
    11    11     1    1
    12     1     2    1
    13     2     3    1
    14     3     4    1
    15     3     5    1
    16     5    27    1
    17    27    28   am
    18    28    29    2
    19    28    31    1
    20    31    32   ar
    21    32    33   ar
    22    33    34    1
    23    33    35   ar
    24    35    36    1
    25    35    37   ar
    26    37    38    1
    27     5     6    1
    28     6    40    1
    29    40    41    1
    30     6     7    1
    31    11    12   ar
    32    12    13   ar
    33    13    23    1
    34    23    24    2
    35    23    25    1
    36    13     9   ar
    37     7     1    1
    38    37    31   ar
    39    14    17    1
    40     4     8    1
    41    27    30    1
    42    32    39    1
    43    25    26    1
@<TRIPOS>MOLECULE
*****
 41 43 0 0 0
SMALL
GASTEIGER

@<TRIPOS>ATOM
      1 N          50.0725   11.5398  -26.1934 N.pl3   1  UNL1       -0.2847
      2 C          50.9163   12.5053  -25.4724 C.3     1  UNL1        0.1049
      3 C          50.3425   12.8007  -24.0783 C.3     1  UNL1        0.0839
      4 S          51.2991   14.1272  -23.2646 S.3     1  UNL1       -0.1654
      5 C          48.8436   13.1628  -24.1291 C.3     1  UNL1        0.1119
      6 C          48.0487   12.0580  -24.8599 C.3     1  UNL1        0.1537
      7 C          48.6254   11.7985  -26.2593 C.3     1  UNL1        0.1238
      8 H          52.4721   13.3514  -23.1927 H       1  UNL1        0.1024
      9 C          50.8100    8.8309  -28.5019 C.ar    1  UNL1        0.1486
     10 N          50.0215    9.5824  -27.6844 N.ar    1  UNL1       -0.2193
     11 C          50.6913   10.5996  -27.0985 C.ar    1  UNL1        0.1635
     12 S          52.3058   10.6095  -27.5764 S.2     1  UNL1       -0.0449
     13 C          52.1488    9.2546  -28.5644 C.ar    1  UNL1        0.1295
     14 N          50.3893    7.6962  -30.7121 N.am    1  UNL1       -0.2988
     15 C          50.2198    7.7289  -29.2865 C.2     1  UNL1        0.2644
     16 O          49.6149    6.7898  -28.7030 O.2     1  UNL1       -0.2685
     17 H          50.8145    8.5280  -31.1823 H       1  UNL1        0.1498
     18 C          49.9630    6.5534  -31.5276 C.3     1  UNL1        0.1015
     19 C          48.5258    6.7577  -32.0230 C.3     1  UNL1        0.0239
     20 C          50.9276    6.3507  -32.7061 C.3     1  UNL1        0.1617
     21 C          53.2304    6.2941  -32.6673 C.3     1  UNL1        0.1742
     22 O          52.0978    7.1179  -32.5075 O.3     1  UNL1       -0.3494
     23 C          53.2857    8.6205  -29.2551 C.2     1  UNL1        0.3459
     24 O          53.2261    7.3993  -29.5597 O.2     1  UNL1       -0.2445
     25 O          54.4013    9.3637  -29.6261 O.3     1  UNL1       -0.4767
     26 H          55.1749    8.9314  -30.1168 H       1  UNL1        0.2954
     27 N          48.6284   14.4709  -24.7659 N.am    1  UNL1       -0.2980
     28 C          48.3402   15.6598  -24.0122 C.2     1  UNL1        0.2624
     29 O          48.1774   15.5885  -22.7641 O.2     1  UNL1       -0.2685
     30 H          48.5488   14.5121  -25.8050 H       1  UNL1        0.1498
     31 C          48.2270   16.9705  -24.6875 C.ar    1  UNL1        0.1220
     32 N          48.9534   17.3296  -25.7682 N.ar    1  UNL1       -0.3515
     33 C          48.5901   18.5871  -26.0876 C.ar    1  UNL1        0.0456
     34 C          49.2100   19.3786  -27.1941 C.3     1  UNL1        0.0507
     35 C          47.6378   19.0481  -25.1998 C.ar    1  UNL1        0.0811
     36 CL         46.8893   20.6361  -25.1886 Cl      1  UNL1       -0.0802
     37 C          47.4019   18.0216  -24.3083 C.ar    1  UNL1        0.0893
     38 CL         46.2633   18.0667  -22.9704 Cl      1  UNL1       -0.0797
     39 H          49.6850   16.7648  -26.2535 H       1  UNL1        0.1658
     40 O          46.6898   12.4418  -24.9980 O.3     1  UNL1       -0.3501
     41 C          46.2109   12.1319  -26.2884 C.3     1  UNL1        0.1741
@<TRIPOS>BOND
     1    21    22    1
     2    22    20    1
     3    20    18    1
     4    18    19    1
     5    18    14    1
     6    14    15   am
     7    15    16    2
     8    15     9    1
     9     9    10   ar
    10    10    11   ar
    11    11     1    1
    12     1     2    1
    13     2     3    1
    14     3     4    1
    15     3     5    1
    16     5    27    1
    17    27    28   am
    18    28    29    2
    19    28    31    1
    20    31    32   ar
    21    32    33   ar
    22    33    34    1
    23    33    35   ar
    24    35    36    1
    25    35    37   ar
    26    37    38    1
    27     5     6    1
    28     6    40    1
    29    40    41    1
    30     6     7    1
    31    11    12   ar
    32    12    13   ar
    33    13    23    1
    34    23    24    2
    35    23    25    1
    36    13     9   ar
    37     7     1    1
    38    37    31   ar
    39    14    17    1
    40     4     8    1
    41    27    30    1
    42    32    39    1
    43    25    26    1
@<TRIPOS>MOLECULE
*****
 41 43 0 0 0
SMALL
GASTEIGER

@<TRIPOS>ATOM
      1 N          48.7368   11.2771  -22.3666 N.pl3   1  UNL1       -0.2847
      2 C          48.9909    9.8597  -22.6673 C.3     1  UNL1        0.1049
      3 C          50.4115    9.6624  -23.2176 C.3     1  UNL1        0.0839
      4 S          50.6532    7.9315  -23.7490 S.3     1  UNL1       -0.1654
      5 C          50.7306   10.6358  -24.3713 C.3     1  UNL1        0.1119
      6 C          50.4789   12.0943  -23.9285 C.3     1  UNL1        0.1537
      7 C          49.0459   12.2718  -23.4060 C.3     1  UNL1        0.1238
      8 H          50.5248    7.4246  -22.4416 H       1  UNL1        0.1024
      9 C          47.3588   12.2115  -19.1356 C.ar    1  UNL1        0.1486
     10 N          48.3499   11.9129  -20.0207 N.ar    1  UNL1       -0.2193
     11 C          47.8817   11.6203  -21.2543 C.ar    1  UNL1        0.1635
     12 S          46.2016   11.7223  -21.2987 S.2     1  UNL1       -0.0449
     13 C          46.0624   12.1476  -19.6750 C.ar    1  UNL1        0.1295
     14 N          48.6253   11.8627  -16.9852 N.am    1  UNL1       -0.2988
     15 C          47.6988   12.6361  -17.7635 C.2     1  UNL1        0.2644
     16 O          47.2202   13.7034  -17.2945 O.2     1  UNL1       -0.2685
     17 H          48.9386   10.9374  -17.3587 H       1  UNL1        0.1498
     18 C          49.1214   12.3127  -15.6799 C.3     1  UNL1        0.1015
     19 C          48.6922   11.3342  -14.5794 C.3     1  UNL1        0.0239
     20 C          50.6497   12.4656  -15.7148 C.3     1  UNL1        0.1617
     21 C          51.9075   12.6916  -17.6317 C.3     1  UNL1        0.1742
     22 O          51.1758   11.7862  -16.8369 O.3     1  UNL1       -0.3494
     23 C          44.7684   12.3027  -18.9872 C.2     1  UNL1        0.3459
     24 O          43.8279   11.5044  -19.2434 O.2     1  UNL1       -0.2445
     25 O          44.5873   13.2833  -18.0176 O.3     1  UNL1       -0.4767
     26 H          43.7033   13.3782  -17.5321 H       1  UNL1        0.2954
     27 N          49.9527   10.3132  -25.5770 N.am    1  UNL1       -0.2980
     28 C          50.5605    9.8089  -26.7775 C.2     1  UNL1        0.2624
     29 O          51.8150    9.7106  -26.8531 O.2     1  UNL1       -0.2685
     30 H          48.9464   10.5855  -25.6083 H       1  UNL1        0.1498
     31 C          49.7278    9.4073  -27.9316 C.ar    1  UNL1        0.1220
     32 N          50.0652    8.4342  -28.8054 N.ar    1  UNL1       -0.3515
     33 C          49.0786    8.3660  -29.7204 C.ar    1  UNL1        0.0456
     34 C          49.1000    7.4519  -30.9032 C.3     1  UNL1        0.0507
     35 C          48.1085    9.3101  -29.4463 C.ar    1  UNL1        0.0811
     36 CL         46.6525    9.6246  -30.3756 Cl      1  UNL1       -0.0802
     37 C          48.5163    9.9736  -28.3073 C.ar    1  UNL1        0.0893
     38 CL         47.6420   11.2719  -27.5083 Cl      1  UNL1       -0.0797
     39 H          50.9368    7.8595  -28.8050 H       1  UNL1        0.1658
     40 O          50.6716   12.9784  -25.0213 O.3     1  UNL1       -0.3501
     41 C          50.1666   14.2614  -24.7220 C.3     1  UNL1        0.1741
@<TRIPOS>BOND
     1    21    22    1
     2    22    20    1
     3    20    18    1
     4    18    19    1
     5    18    14    1
     6    14    15   am
     7    15    16    2
     8    15     9    1
     9     9    10   ar
    10    10    11   ar
    11    11     1    1
    12     1     2    1
    13     2     3    1
    14     3     4    1
    15     3     5    1
    16     5    27    1
    17    27    28   am
    18    28    29    2
    19    28    31    1
    20    31    32   ar
    21    32    33   ar
    22    33    34    1
    23    33    35   ar
    24    35    36    1
    25    35    37   ar
    26    37    38    1
    27     5     6    1
    28     6    40    1
    29    40    41    1
    30     6     7    1
    31    11    12   ar
    32    12    13   ar
    33    13    23    1
    34    23    24    2
    35    23    25    1
    36    13     9   ar
    37     7     1    1
    38    37    31   ar
    39    14    17    1
    40     4     8    1
    41    27    30    1
    42    32    39    1
    43    25    26    1
@<TRIPOS>MOLECULE
*****
 41 43 0 0 0
SMALL
GASTEIGER

@<TRIPOS>ATOM
      1 N          50.3167   11.6099  -25.7561 N.pl3   1  UNL1       -0.2847
      2 C          49.1026   11.1721  -25.0501 C.3     1  UNL1        0.1049
      3 C          48.2269   12.3750  -24.6682 C.3     1  UNL1        0.0839
      4 S          46.8150   11.8342  -23.6431 S.3     1  UNL1       -0.1654
      5 C          49.0315   13.4774  -23.9487 C.3     1  UNL1        0.1119
      6 C          50.2499   13.8961  -24.8012 C.3     1  UNL1        0.1537
      7 C          51.1224   12.6812  -25.1490 C.3     1  UNL1        0.1238
      8 H          46.2406   11.0800  -24.6843 H       1  UNL1        0.1024
      9 C          50.9202    9.1065  -28.3212 C.ar    1  UNL1        0.1486
     10 N          50.1938    9.7554  -27.3693 N.ar    1  UNL1       -0.2193
     11 C          50.8742   10.7690  -26.7896 C.ar    1  UNL1        0.1635
     12 S          52.4208   10.9043  -27.4415 S.2     1  UNL1       -0.0449
     13 C          52.2200    9.6106  -28.5010 C.ar    1  UNL1        0.1295
     14 N          50.6163    7.8904  -30.5071 N.am    1  UNL1       -0.2988
     15 C          50.3003    8.0261  -29.1129 C.2     1  UNL1        0.2644
     16 O          49.5377    7.1913  -28.5562 O.2     1  UNL1       -0.2685
     17 H          51.1776    8.6440  -30.9662 H       1  UNL1        0.1498
     18 C          50.1572    6.7507  -31.3090 C.3     1  UNL1        0.1015
     19 C          48.7055    6.9631  -31.7563 C.3     1  UNL1        0.0239
     20 C          51.0811    6.5441  -32.5189 C.3     1  UNL1        0.1617
     21 C          53.3719    6.3063  -32.5767 C.3     1  UNL1        0.1742
     22 O          52.3152    7.1969  -32.2990 O.3     1  UNL1       -0.3494
     23 C          53.3008    9.0906  -29.3573 C.2     1  UNL1        0.3459
     24 O          53.4930    7.8476  -29.4306 O.2     1  UNL1       -0.2445
     25 O          54.0762    9.9488  -30.1298 O.3     1  UNL1       -0.4767
     26 H          54.8072    9.5896  -30.7321 H       1  UNL1        0.2954
     27 N          49.4543   13.0454  -22.6080 N.am    1  UNL1       -0.2980
     28 C          49.2245   13.8383  -21.4318 C.2     1  UNL1        0.2624
     29 O          48.7193   14.9883  -21.5381 O.2     1  UNL1       -0.2685
     30 H          50.0595   12.2001  -22.5247 H       1  UNL1        0.1498
     31 C          49.5804   13.3202  -20.0933 C.ar    1  UNL1        0.1220
     32 N          50.8201   13.3877  -19.5614 N.ar    1  UNL1       -0.3515
     33 C          50.7612   12.8047  -18.3482 C.ar    1  UNL1        0.0456
     34 C          51.9452   12.6168  -17.4549 C.3     1  UNL1        0.0507
     35 C          49.4826   12.3438  -18.1026 C.ar    1  UNL1        0.0811
     36 CL         48.9282   11.4865  -16.6743 Cl      1  UNL1       -0.0802
     37 C          48.7271   12.6719  -19.2096 C.ar    1  UNL1        0.0893
     38 CL         47.0166   12.3292  -19.4219 Cl      1  UNL1       -0.0797
     39 H          51.6779   13.7822  -20.0069 H       1  UNL1        0.1658
     40 O          51.0456   14.8326  -24.0922 O.3     1  UNL1       -0.3501
     41 C          50.5710   16.1460  -24.2932 C.3     1  UNL1        0.1741
@<TRIPOS>BOND
     1    21    22    1
     2    22    20    1
     3    20    18    1
     4    18    19    1
     5    18    14    1
     6    14    15   am
     7    15    16    2
     8    15     9    1
     9     9    10   ar
    10    10    11   ar
    11    11     1    1
    12     1     2    1
    13     2     3    1
    14     3     4    1
    15     3     5    1
    16     5    27    1
    17    27    28   am
    18    28    29    2
    19    28    31    1
    20    31    32   ar
    21    32    33   ar
    22    33    34    1
    23    33    35   ar
    24    35    36    1
    25    35    37   ar
    26    37    38    1
    27     5     6    1
    28     6    40    1
    29    40    41    1
    30     6     7    1
    31    11    12   ar
    32    12    13   ar
    33    13    23    1
    34    23    24    2
    35    23    25    1
    36    13     9   ar
    37     7     1    1
    38    37    31   ar
    39    14    17    1
    40     4     8    1
    41    27    30    1
    42    32    39    1
    43    25    26    1
