@<TRIPOS>MOLECULE
*****
 42 46 0 0 0
SMALL
GASTEIGER

@<TRIPOS>ATOM
      1 C         -27.2406   51.1242   -7.7094 C.ar    1  UNL1        0.0888
      2 C         -25.8420   51.3732   -7.7577 C.ar    1  UNL1        0.0282
      3 C         -25.2244   51.4469   -9.0151 C.ar    1  UNL1        0.0997
      4 N         -23.9240   51.6590   -9.2855 N.ar    1  UNL1       -0.2137
      5 C         -23.8919   51.6148  -10.6451 C.ar    1  UNL1        0.1984
      6 N         -25.0980   51.3707  -11.2208 N.ar    1  UNL1       -0.3255
      7 C         -25.9248   51.2750  -10.1745 C.ar    1  UNL1        0.0755
      8 C         -27.2875   51.0150  -10.1484 C.ar    1  UNL1        0.0325
      9 C         -27.9257   50.9370   -8.9361 C.ar    1  UNL1        0.1401
     10 O         -29.2575   50.6250   -9.1085 O.3     1  UNL1       -0.4824
     11 C         -29.5763   50.4850  -10.4958 C.3     1  UNL1        0.1375
     12 C         -30.0979   49.0645  -10.7484 C.3     1  UNL1        0.0439
     13 C         -30.6429   51.5218  -10.8717 C.3     1  UNL1        0.0439
     14 C         -28.2344   50.7450  -11.2597 C.3     1  UNL1        0.0709
     15 H         -25.3299   51.2547  -12.2322 H       1  UNL1        0.1686
     16 N         -28.8776   49.9596   -6.1656 N.am    1  UNL1       -0.2808
     17 C         -27.9369   51.0164   -6.4115 C.2     1  UNL1        0.2525
     18 O         -27.6947   51.8644   -5.5099 O.2     1  UNL1       -0.2697
     19 H         -29.1916   49.3482   -6.9513 H       1  UNL1        0.1552
     20 C         -30.5755   50.1691   -4.3920 C.ar    1  UNL1       -0.0091
     21 C         -31.0504   49.8129   -3.1200 C.ar    1  UNL1        0.0008
     22 C         -30.3111   48.9608   -2.2865 C.ar    1  UNL1        0.0709
     23 C         -29.0546   48.5083   -2.7146 C.ar    1  UNL1        0.0008
     24 C         -28.5571   48.8536   -3.9797 C.ar    1  UNL1       -0.0087
     25 C         -27.2062   48.3365   -4.3979 C.3     1  UNL1        0.0323
     26 C         -29.3412   49.6504   -4.8437 C.ar    1  UNL1        0.0425
     27 C         -30.8140   48.6213   -0.9050 C.3     1  UNL1        0.4186
     28 F         -31.5839   47.4712   -0.9333 F       1  UNL1       -0.1659
     29 F         -31.5839   49.6671   -0.4315 F       1  UNL1       -0.1659
     30 F         -29.7565   48.4107   -0.0368 F       1  UNL1       -0.1659
     31 C         -31.3004   52.5203   -4.8606 C.3     1  UNL1        0.0051
     32 C         -31.4280   51.0564   -5.2704 C.3     1  UNL1        0.0276
     33 N         -22.6730   51.7570  -11.3857 N.pl3   1  UNL1       -0.2816
     34 H         -22.6706   51.4555  -12.3859 H       1  UNL1        0.1551
     35 C         -21.4943   52.3771  -10.8492 C.ar    1  UNL1        0.0889
     36 C         -20.3003   51.6433  -10.7102 C.ar    1  UNL1        0.1543
     37 F         -20.2395   50.3432  -11.0940 F       1  UNL1       -0.2028
     38 C         -19.1509   52.2590  -10.2060 C.ar    1  UNL1        0.0310
     39 C         -19.1768   53.6087   -9.8496 C.ar    1  UNL1        0.0033
     40 C         -20.3506   54.3499  -10.0029 C.ar    1  UNL1        0.0128
     41 C         -21.5070   53.7433  -10.5073 C.ar    1  UNL1        0.0733
     42 CL        -22.9694   54.7071  -10.6679 Cl      1  UNL1       -0.0809
@<TRIPOS>BOND
     1    31    32    1
     2    32    20    1
     3    20    21   ar
     4    21    22   ar
     5    22    27    1
     6    27    28    1
     7    27    29    1
     8    27    30    1
     9    22    23   ar
    10    23    24   ar
    11    24    25    1
    12    24    26   ar
    13    26    16    1
    14    16    17   am
    15    17    18    2
    16    17     1    1
    17     1     2   ar
    18     2     3   ar
    19     3     4   ar
    20     4     5   ar
    21     5    33    1
    22    33    35    1
    23    35    36   ar
    24    36    37    1
    25    36    38   ar
    26    38    39   ar
    27    39    40   ar
    28    40    41   ar
    29    41    42    1
    30     5     6   ar
    31     6     7   ar
    32     7     8   ar
    33     8     9   ar
    34     9    10    1
    35    10    11    1
    36    11    12    1
    37    11    13    1
    38    11    14    1
    39    26    20   ar
    40     9     1   ar
    41     7     3   ar
    42    14     8    1
    43    41    35   ar
    44    16    19    1
    45    33    34    1
    46     6    15    1
@<TRIPOS>MOLECULE
*****
 42 46 0 0 0
SMALL
GASTEIGER

@<TRIPOS>ATOM
      1 C         -27.2179   51.0000   -7.5761 C.ar    1  UNL1        0.0888
      2 C         -25.8303   51.2978   -7.6544 C.ar    1  UNL1        0.0282
      3 C         -25.2362   51.3625   -8.9236 C.ar    1  UNL1        0.0997
      4 N         -23.9490   51.6144   -9.2212 N.ar    1  UNL1       -0.2137
      5 C         -23.9374   51.5378  -10.5797 C.ar    1  UNL1        0.1984
      6 N         -25.1430   51.2364  -11.1286 N.ar    1  UNL1       -0.3255
      7 C         -25.9487   51.1370  -10.0663 C.ar    1  UNL1        0.0755
      8 C         -27.3004   50.8289  -10.0106 C.ar    1  UNL1        0.0325
      9 C         -27.9156   50.7580   -8.7861 C.ar    1  UNL1        0.1401
     10 O         -29.2378   50.3942   -8.9281 O.3     1  UNL1       -0.4824
     11 C         -29.5737   50.2086  -10.3059 C.3     1  UNL1        0.1375
     12 C         -30.0475   48.7645  -10.5152 C.3     1  UNL1        0.0439
     13 C         -30.6833   51.1968  -10.6884 C.3     1  UNL1        0.0439
     14 C         -28.2548   50.4977  -11.0987 C.3     1  UNL1        0.0709
     15 H         -25.3869   51.0871  -12.1329 H       1  UNL1        0.1686
     16 N         -28.9775   49.9852   -6.0617 N.am    1  UNL1       -0.2808
     17 C         -27.8887   50.8993   -6.2643 C.2     1  UNL1        0.2525
     18 O         -27.4925   51.6256   -5.3123 O.2     1  UNL1       -0.2697
     19 H         -29.4042   49.4940   -6.8780 H       1  UNL1        0.1552
     20 C         -28.7881   48.6509   -3.9987 C.ar    1  UNL1       -0.0091
     21 C         -29.2192   48.3697   -2.6927 C.ar    1  UNL1        0.0008
     22 C         -30.3051   49.0548   -2.1283 C.ar    1  UNL1        0.0709
     23 C         -30.9999   49.9923   -2.9063 C.ar    1  UNL1        0.0008
     24 C         -30.5905   50.2876   -4.2149 C.ar    1  UNL1       -0.0087
     25 C         -31.3637   51.3076   -5.0080 C.3     1  UNL1        0.0323
     26 C         -29.4497   49.6483   -4.7497 C.ar    1  UNL1        0.0425
     27 C         -30.7841   48.7115   -0.7393 C.3     1  UNL1        0.4186
     28 F         -31.5184   47.5381   -0.7508 F       1  UNL1       -0.1659
     29 F         -31.5814   49.7371   -0.2668 F       1  UNL1       -0.1659
     30 F         -29.7125   48.5409    0.1202 F       1  UNL1       -0.1659
     31 C         -26.5543   47.6571   -3.4550 C.3     1  UNL1        0.0051
     32 C         -27.5866   47.9158   -4.5480 C.3     1  UNL1        0.0276
     33 N         -22.7366   51.7053  -11.3443 N.pl3   1  UNL1       -0.2816
     34 H         -22.7508   51.4134  -12.3472 H       1  UNL1        0.1551
     35 C         -21.5562   52.3380  -10.8266 C.ar    1  UNL1        0.0889
     36 C         -20.3641   51.6056  -10.6661 C.ar    1  UNL1        0.1543
     37 F         -20.3067   50.2945  -11.0113 F       1  UNL1       -0.2028
     38 C         -19.2130   52.2330  -10.1806 C.ar    1  UNL1        0.0310
     39 C         -19.2353   53.5927   -9.8643 C.ar    1  UNL1        0.0033
     40 C         -20.4072   54.3321  -10.0394 C.ar    1  UNL1        0.0128
     41 C         -21.5653   53.7138  -10.5253 C.ar    1  UNL1        0.0733
     42 CL        -23.0253   54.6762  -10.7142 Cl      1  UNL1       -0.0809
@<TRIPOS>BOND
     1    31    32    1
     2    32    20    1
     3    20    21   ar
     4    21    22   ar
     5    22    27    1
     6    27    28    1
     7    27    29    1
     8    27    30    1
     9    22    23   ar
    10    23    24   ar
    11    24    25    1
    12    24    26   ar
    13    26    16    1
    14    16    17   am
    15    17    18    2
    16    17     1    1
    17     1     2   ar
    18     2     3   ar
    19     3     4   ar
    20     4     5   ar
    21     5    33    1
    22    33    35    1
    23    35    36   ar
    24    36    37    1
    25    36    38   ar
    26    38    39   ar
    27    39    40   ar
    28    40    41   ar
    29    41    42    1
    30     5     6   ar
    31     6     7   ar
    32     7     8   ar
    33     8     9   ar
    34     9    10    1
    35    10    11    1
    36    11    12    1
    37    11    13    1
    38    11    14    1
    39    26    20   ar
    40     9     1   ar
    41     7     3   ar
    42    14     8    1
    43    41    35   ar
    44    16    19    1
    45    33    34    1
    46     6    15    1
@<TRIPOS>MOLECULE
*****
 42 46 0 0 0
SMALL
GASTEIGER

@<TRIPOS>ATOM
      1 C         -26.7148   49.6795   -7.7121 C.ar    1  UNL1        0.0888
      2 C         -25.3624   50.1018   -7.8257 C.ar    1  UNL1        0.0282
      3 C         -24.9600   50.7255   -9.0161 C.ar    1  UNL1        0.0997
      4 N         -23.7372   51.1862   -9.3348 N.ar    1  UNL1       -0.2137
      5 C         -23.9196   51.6672  -10.5944 C.ar    1  UNL1        0.1984
      6 N         -25.1824   51.5111  -11.0704 N.ar    1  UNL1       -0.3255
      7 C         -25.8230   50.9213  -10.0559 C.ar    1  UNL1        0.0755
      8 C         -27.1429   50.5018   -9.9712 C.ar    1  UNL1        0.0325
      9 C         -27.5725   49.8888   -8.8211 C.ar    1  UNL1        0.1401
     10 O         -28.8901   49.5012   -8.9414 O.3     1  UNL1       -0.4824
     11 C         -29.4158   49.8608  -10.2221 C.3     1  UNL1        0.1375
     12 C         -29.8721   48.5899  -10.9504 C.3     1  UNL1        0.0439
     13 C         -30.5976   50.8197  -10.0270 C.3     1  UNL1        0.0439
     14 C         -28.2342   50.5584  -10.9763 C.3     1  UNL1        0.0709
     15 H         -25.5642   51.7606  -12.0097 H       1  UNL1        0.1686
     16 N         -27.3638   49.7264   -5.2634 N.am    1  UNL1       -0.2808
     17 C         -27.1860   48.9992   -6.4888 C.2     1  UNL1        0.2525
     18 O         -27.4377   47.7641   -6.5288 O.2     1  UNL1       -0.2697
     19 H         -27.0177   50.7082   -5.1852 H       1  UNL1        0.1552
     20 C         -27.4251   48.3574   -3.2154 C.ar    1  UNL1       -0.0091
     21 C         -28.1285   47.8733   -2.1012 C.ar    1  UNL1        0.0008
     22 C         -29.4842   48.1803   -1.9148 C.ar    1  UNL1        0.0709
     23 C         -30.1537   48.9350   -2.8890 C.ar    1  UNL1        0.0008
     24 C         -29.4733   49.4267   -4.0128 C.ar    1  UNL1       -0.0087
     25 C         -30.2334   50.2392   -5.0274 C.3     1  UNL1        0.0323
     26 C         -28.0900   49.1769   -4.1549 C.ar    1  UNL1        0.0425
     27 C         -30.2380   47.6174   -0.7351 C.3     1  UNL1        0.4186
     28 F         -30.1325   48.4581    0.3595 F       1  UNL1       -0.1659
     29 F         -29.7117   46.3821   -0.4066 F       1  UNL1       -0.1659
     30 F         -31.5808   47.4695   -1.0371 F       1  UNL1       -0.1659
     31 C         -25.6743   46.5827   -2.9740 C.3     1  UNL1        0.0051
     32 C         -25.9544   48.0343   -3.3506 C.3     1  UNL1        0.0276
     33 N         -22.8472   52.2325  -11.3592 N.pl3   1  UNL1       -0.2816
     34 H         -22.8853   52.1379  -12.3989 H       1  UNL1        0.1551
     35 C         -21.7826   52.9984  -10.7748 C.ar    1  UNL1        0.0889
     36 C         -21.9952   54.3335  -10.3802 C.ar    1  UNL1        0.1543
     37 F         -23.2124   54.9136  -10.5321 F       1  UNL1       -0.2028
     38 C         -20.9598   55.0669   -9.7932 C.ar    1  UNL1        0.0310
     39 C         -19.7127   54.4755   -9.5829 C.ar    1  UNL1        0.0033
     40 C         -19.4983   53.1457   -9.9523 C.ar    1  UNL1        0.0128
     41 C         -20.5283   52.4022  -10.5404 C.ar    1  UNL1        0.0733
     42 CL        -20.2120   50.7363  -11.0075 Cl      1  UNL1       -0.0809
@<TRIPOS>BOND
     1    31    32    1
     2    32    20    1
     3    20    21   ar
     4    21    22   ar
     5    22    27    1
     6    27    28    1
     7    27    29    1
     8    27    30    1
     9    22    23   ar
    10    23    24   ar
    11    24    25    1
    12    24    26   ar
    13    26    16    1
    14    16    17   am
    15    17    18    2
    16    17     1    1
    17     1     2   ar
    18     2     3   ar
    19     3     4   ar
    20     4     5   ar
    21     5    33    1
    22    33    35    1
    23    35    36   ar
    24    36    37    1
    25    36    38   ar
    26    38    39   ar
    27    39    40   ar
    28    40    41   ar
    29    41    42    1
    30     5     6   ar
    31     6     7   ar
    32     7     8   ar
    33     8     9   ar
    34     9    10    1
    35    10    11    1
    36    11    12    1
    37    11    13    1
    38    11    14    1
    39    26    20   ar
    40     9     1   ar
    41     7     3   ar
    42    14     8    1
    43    41    35   ar
    44    16    19    1
    45    33    34    1
    46     6    15    1
@<TRIPOS>MOLECULE
*****
 42 46 0 0 0
SMALL
GASTEIGER

@<TRIPOS>ATOM
      1 C         -26.0537   49.5875   -7.3198 C.ar    1  UNL1        0.0888
      2 C         -24.6958   49.9862   -7.1883 C.ar    1  UNL1        0.0282
      3 C         -24.1683   50.8690   -8.1425 C.ar    1  UNL1        0.0997
      4 N         -22.9174   51.3584   -8.2126 N.ar    1  UNL1       -0.2137
      5 C         -22.9645   52.1364   -9.3279 C.ar    1  UNL1        0.1984
      6 N         -24.1704   52.1367   -9.9535 N.ar    1  UNL1       -0.3255
      7 C         -24.9161   51.3363   -9.1849 C.ar    1  UNL1        0.0755
      8 C         -26.2387   50.9465   -9.3402 C.ar    1  UNL1        0.0325
      9 C         -26.7889   50.0846   -8.4251 C.ar    1  UNL1        0.1401
     10 O         -28.0874   49.7755   -8.7700 O.3     1  UNL1       -0.4824
     11 C         -28.4741   50.4507   -9.9703 C.3     1  UNL1        0.1375
     12 C         -28.8543   49.4086  -11.0301 C.3     1  UNL1        0.0439
     13 C         -29.6673   51.3664   -9.6676 C.3     1  UNL1        0.0439
     14 C         -27.2176   51.2769  -10.4065 C.3     1  UNL1        0.0709
     15 H         -24.4503   52.6179  -10.8369 H       1  UNL1        0.1686
     16 N         -26.7464   48.9755   -4.9608 N.am    1  UNL1       -0.2808
     17 C         -26.6532   48.6439   -6.3548 C.2     1  UNL1        0.2525
     18 O         -27.0909   47.5355   -6.7677 O.2     1  UNL1       -0.2697
     19 H         -26.2554   49.8197   -4.5920 H       1  UNL1        0.1552
     20 C         -28.9269   48.5976   -3.8768 C.ar    1  UNL1       -0.0091
     21 C         -29.7466   47.8258   -3.0384 C.ar    1  UNL1        0.0008
     22 C         -29.2393   46.7030   -2.3682 C.ar    1  UNL1        0.0709
     23 C         -27.8791   46.3869   -2.4984 C.ar    1  UNL1        0.0008
     24 C         -27.0393   47.1452   -3.3274 C.ar    1  UNL1       -0.0087
     25 C         -25.5877   46.7617   -3.4411 C.3     1  UNL1        0.0323
     26 C         -27.5749   48.2292   -4.0583 C.ar    1  UNL1        0.0425
     27 C         -30.1211   45.9085   -1.4367 C.3     1  UNL1        0.4186
     28 F         -30.3569   44.6432   -1.9463 F       1  UNL1       -0.1659
     29 F         -31.3281   46.5644   -1.2833 F       1  UNL1       -0.1659
     30 F         -29.5229   45.7688   -0.1961 F       1  UNL1       -0.1659
     31 C         -30.3636   49.3093   -5.8010 C.3     1  UNL1        0.0051
     32 C         -29.5301   49.7737   -4.6106 C.3     1  UNL1        0.0276
     33 N         -21.8158   52.8401   -9.8178 N.pl3   1  UNL1       -0.2816
     34 H         -21.9621   53.7903  -10.2266 H       1  UNL1        0.1551
     35 C         -20.4747   52.3445   -9.6868 C.ar    1  UNL1        0.0889
     36 C         -19.8701   51.6301  -10.7391 C.ar    1  UNL1        0.1543
     37 F         -20.5390   51.4108  -11.8992 F       1  UNL1       -0.2028
     38 C         -18.5568   51.1680  -10.6124 C.ar    1  UNL1        0.0310
     39 C         -17.8325   51.4237   -9.4465 C.ar    1  UNL1        0.0033
     40 C         -18.4163   52.1489   -8.4055 C.ar    1  UNL1        0.0128
     41 C         -19.7306   52.6166   -8.5222 C.ar    1  UNL1        0.0733
     42 CL        -20.4353   53.5103   -7.1813 Cl      1  UNL1       -0.0809
@<TRIPOS>BOND
     1    31    32    1
     2    32    20    1
     3    20    21   ar
     4    21    22   ar
     5    22    27    1
     6    27    28    1
     7    27    29    1
     8    27    30    1
     9    22    23   ar
    10    23    24   ar
    11    24    25    1
    12    24    26   ar
    13    26    16    1
    14    16    17   am
    15    17    18    2
    16    17     1    1
    17     1     2   ar
    18     2     3   ar
    19     3     4   ar
    20     4     5   ar
    21     5    33    1
    22    33    35    1
    23    35    36   ar
    24    36    37    1
    25    36    38   ar
    26    38    39   ar
    27    39    40   ar
    28    40    41   ar
    29    41    42    1
    30     5     6   ar
    31     6     7   ar
    32     7     8   ar
    33     8     9   ar
    34     9    10    1
    35    10    11    1
    36    11    12    1
    37    11    13    1
    38    11    14    1
    39    26    20   ar
    40     9     1   ar
    41     7     3   ar
    42    14     8    1
    43    41    35   ar
    44    16    19    1
    45    33    34    1
    46     6    15    1
@<TRIPOS>MOLECULE
*****
 42 46 0 0 0
SMALL
GASTEIGER

@<TRIPOS>ATOM
      1 C         -26.9405   49.5531   -8.0448 C.ar    1  UNL1        0.0888
      2 C         -25.6398   50.0897   -7.8440 C.ar    1  UNL1        0.0282
      3 C         -25.2080   51.1186   -8.6943 C.ar    1  UNL1        0.0997
      4 N         -24.0219   51.7528   -8.6875 N.ar    1  UNL1       -0.2137
      5 C         -24.1469   52.6283   -9.7215 C.ar    1  UNL1        0.1984
      6 N         -25.3376   52.5531  -10.3712 N.ar    1  UNL1       -0.3255
      7 C         -25.9936   51.5993   -9.7023 C.ar    1  UNL1        0.0755
      8 C         -27.2600   51.0780   -9.9252 C.ar    1  UNL1        0.0325
      9 C         -27.7163   50.0711   -9.1122 C.ar    1  UNL1        0.1401
     10 O         -28.9661   49.6513   -9.5152 O.3     1  UNL1       -0.4824
     11 C         -29.4154   50.3948  -10.6515 C.3     1  UNL1        0.1375
     12 C         -29.6599   49.4279  -11.8173 C.3     1  UNL1        0.0439
     13 C         -30.7103   51.1326  -10.2872 C.3     1  UNL1        0.0439
     14 C         -28.2588   51.3994  -10.9756 C.3     1  UNL1        0.0709
     15 H         -25.6618   53.0854  -11.2090 H       1  UNL1        0.1686
     16 N         -27.7594   48.6825   -5.8108 N.am    1  UNL1       -0.2808
     17 C         -27.4367   48.4547   -7.1914 C.2     1  UNL1        0.2525
     18 O         -27.5808   47.3048   -7.6889 O.2     1  UNL1       -0.2697
     19 H         -27.5029   49.5877   -5.3582 H       1  UNL1        0.1552
     20 C         -27.8478   46.6673   -4.3953 C.ar    1  UNL1       -0.0091
     21 C         -28.5837   45.7785   -3.5960 C.ar    1  UNL1        0.0008
     22 C         -29.9699   45.9257   -3.4414 C.ar    1  UNL1        0.0709
     23 C         -30.6309   46.9438   -4.1439 C.ar    1  UNL1        0.0008
     24 C         -29.9179   47.8420   -4.9516 C.ar    1  UNL1       -0.0087
     25 C         -30.6710   48.9236   -5.6797 C.3     1  UNL1        0.0323
     26 C         -28.5121   47.7336   -5.0421 C.ar    1  UNL1        0.0425
     27 C         -30.7538   44.9372   -2.6139 C.3     1  UNL1        0.4186
     28 F         -31.5616   45.5943   -1.7018 F       1  UNL1       -0.1659
     29 F         -29.8748   44.1190   -1.9294 F       1  UNL1       -0.1659
     30 F         -31.5624   44.1553   -3.4207 F       1  UNL1       -0.1659
     31 C         -25.7410   46.1677   -3.1364 C.3     1  UNL1        0.0051
     32 C         -26.3496   46.4927   -4.4971 C.3     1  UNL1        0.0276
     33 N         -23.0826   53.5048  -10.1135 N.pl3   1  UNL1       -0.2816
     34 H         -23.2465   54.5342  -10.0447 H       1  UNL1        0.1551
     35 C         -21.7815   53.0379  -10.5015 C.ar    1  UNL1        0.0889
     36 C         -21.5969   51.7093  -10.9307 C.ar    1  UNL1        0.1543
     37 F         -22.6473   50.8529  -10.9985 F       1  UNL1       -0.2028
     38 C         -20.3311   51.2672  -11.3262 C.ar    1  UNL1        0.0310
     39 C         -19.2449   52.1443  -11.3105 C.ar    1  UNL1        0.0033
     40 C         -19.4220   53.4693  -10.9059 C.ar    1  UNL1        0.0128
     41 C         -20.6854   53.9224  -10.5082 C.ar    1  UNL1        0.0733
     42 CL        -20.8625   55.5933   -9.9885 Cl      1  UNL1       -0.0809
@<TRIPOS>BOND
     1    31    32    1
     2    32    20    1
     3    20    21   ar
     4    21    22   ar
     5    22    27    1
     6    27    28    1
     7    27    29    1
     8    27    30    1
     9    22    23   ar
    10    23    24   ar
    11    24    25    1
    12    24    26   ar
    13    26    16    1
    14    16    17   am
    15    17    18    2
    16    17     1    1
    17     1     2   ar
    18     2     3   ar
    19     3     4   ar
    20     4     5   ar
    21     5    33    1
    22    33    35    1
    23    35    36   ar
    24    36    37    1
    25    36    38   ar
    26    38    39   ar
    27    39    40   ar
    28    40    41   ar
    29    41    42    1
    30     5     6   ar
    31     6     7   ar
    32     7     8   ar
    33     8     9   ar
    34     9    10    1
    35    10    11    1
    36    11    12    1
    37    11    13    1
    38    11    14    1
    39    26    20   ar
    40     9     1   ar
    41     7     3   ar
    42    14     8    1
    43    41    35   ar
    44    16    19    1
    45    33    34    1
    46     6    15    1
@<TRIPOS>MOLECULE
*****
 42 46 0 0 0
SMALL
GASTEIGER

@<TRIPOS>ATOM
      1 C         -29.1257   49.1110  -10.0487 C.ar    1  UNL1        0.0888
      2 C         -29.0427   50.0765  -11.0885 C.ar    1  UNL1        0.0282
      3 C         -29.4890   49.7135  -12.3680 C.ar    1  UNL1        0.0997
      4 N         -29.4886   50.4613  -13.4860 N.ar    1  UNL1       -0.2137
      5 C         -30.0088   49.6114  -14.4125 C.ar    1  UNL1        0.1984
      6 N         -30.3117   48.3793  -13.9268 N.ar    1  UNL1       -0.3255
      7 C         -29.9822   48.4684  -12.6341 C.ar    1  UNL1        0.0755
      8 C         -30.0565   47.5065  -11.6369 C.ar    1  UNL1        0.0325
      9 C         -29.6299   47.8264  -10.3725 C.ar    1  UNL1        0.1401
     10 O         -29.7342   46.7360   -9.5353 O.3     1  UNL1       -0.4824
     11 C         -30.2624   45.6035  -10.2312 C.3     1  UNL1        0.1375
     12 C         -29.2385   44.4621  -10.1792 C.3     1  UNL1        0.0439
     13 C         -31.5765   45.1747   -9.5654 C.3     1  UNL1        0.0439
     14 C         -30.5002   46.0911  -11.7001 C.3     1  UNL1        0.0709
     15 H         -30.6845   47.5475  -14.4362 H       1  UNL1        0.1686
     16 N         -28.9321   48.5614   -7.5830 N.am    1  UNL1       -0.2808
     17 C         -28.6506   49.4339   -8.6882 C.2     1  UNL1        0.2525
     18 O         -27.9858   50.4894   -8.5020 O.2     1  UNL1       -0.2697
     19 H         -29.6029   47.7703   -7.7014 H       1  UNL1        0.1552
     20 C         -28.8845   49.3192   -5.2387 C.ar    1  UNL1       -0.0091
     21 C         -28.2319   49.3808   -3.9974 C.ar    1  UNL1        0.0008
     22 C         -26.9523   48.8325   -3.8271 C.ar    1  UNL1        0.0709
     23 C         -26.2993   48.2667   -4.9318 C.ar    1  UNL1        0.0008
     24 C         -26.9293   48.1969   -6.1831 C.ar    1  UNL1       -0.0087
     25 C         -26.1906   47.5728   -7.3373 C.3     1  UNL1        0.0323
     26 C         -28.2478   48.6833   -6.3281 C.ar    1  UNL1        0.0425
     27 C         -26.2458   48.9444   -2.4986 C.3     1  UNL1        0.4186
     28 F         -25.6131   50.1701   -2.3824 F       1  UNL1       -0.1659
     29 F         -25.3021   47.9392   -2.3993 F       1  UNL1       -0.1659
     30 F         -27.1455   48.8230   -1.4535 F       1  UNL1       -0.1659
     31 C         -30.2489   51.3030   -5.9289 C.3     1  UNL1        0.0051
     32 C         -30.2802   49.8871   -5.3619 C.3     1  UNL1        0.0276
     33 N         -30.1616   49.9818  -15.7887 N.pl3   1  UNL1       -0.2816
     34 H         -30.8596   50.7235  -16.0208 H       1  UNL1        0.1551
     35 C         -29.3401   49.4540  -16.8413 C.ar    1  UNL1        0.0889
     36 C         -27.9731   49.7845  -16.9159 C.ar    1  UNL1        0.1543
     37 F         -27.4065   50.5950  -15.9868 F       1  UNL1       -0.2028
     38 C         -27.1747   49.2509  -17.9318 C.ar    1  UNL1        0.0310
     39 C         -27.7253   48.3765  -18.8708 C.ar    1  UNL1        0.0033
     40 C         -29.0752   48.0267  -18.7931 C.ar    1  UNL1        0.0128
     41 C         -29.8835   48.5550  -17.7796 C.ar    1  UNL1        0.0733
     42 CL        -31.5826   48.1035  -17.7276 Cl      1  UNL1       -0.0809
@<TRIPOS>BOND
     1    31    32    1
     2    32    20    1
     3    20    21   ar
     4    21    22   ar
     5    22    27    1
     6    27    28    1
     7    27    29    1
     8    27    30    1
     9    22    23   ar
    10    23    24   ar
    11    24    25    1
    12    24    26   ar
    13    26    16    1
    14    16    17   am
    15    17    18    2
    16    17     1    1
    17     1     2   ar
    18     2     3   ar
    19     3     4   ar
    20     4     5   ar
    21     5    33    1
    22    33    35    1
    23    35    36   ar
    24    36    37    1
    25    36    38   ar
    26    38    39   ar
    27    39    40   ar
    28    40    41   ar
    29    41    42    1
    30     5     6   ar
    31     6     7   ar
    32     7     8   ar
    33     8     9   ar
    34     9    10    1
    35    10    11    1
    36    11    12    1
    37    11    13    1
    38    11    14    1
    39    26    20   ar
    40     9     1   ar
    41     7     3   ar
    42    14     8    1
    43    41    35   ar
    44    16    19    1
    45    33    34    1
    46     6    15    1
@<TRIPOS>MOLECULE
*****
 42 46 0 0 0
SMALL
GASTEIGER

@<TRIPOS>ATOM
      1 C         -29.8894   46.6865   -7.2098 C.ar    1  UNL1        0.0888
      2 C         -30.8433   46.3214   -8.1982 C.ar    1  UNL1        0.0282
      3 C         -30.4301   46.2878   -9.5384 C.ar    1  UNL1        0.0997
      4 N         -31.1664   45.9844  -10.6224 N.ar    1  UNL1       -0.2137
      5 C         -30.2724   46.1262  -11.6383 C.ar    1  UNL1        0.1984
      6 N         -29.0343   46.5160  -11.2374 N.ar    1  UNL1       -0.3255
      7 C         -29.1549   46.6052   -9.9088 C.ar    1  UNL1        0.0755
      8 C         -28.2131   46.9798   -8.9611 C.ar    1  UNL1        0.0325
      9 C         -28.5812   47.0228   -7.6399 C.ar    1  UNL1        0.1401
     10 O         -27.5332   47.4611   -6.8587 O.3     1  UNL1       -0.4824
     11 C         -26.3766   47.7306   -7.6560 C.3     1  UNL1        0.1375
     12 C         -25.9886   49.2058   -7.4918 C.3     1  UNL1        0.0439
     13 C         -25.2293   46.8210   -7.1976 C.3     1  UNL1        0.0439
     14 C         -26.8028   47.4125   -9.1287 C.3     1  UNL1        0.0709
     15 H         -28.1931   46.7263  -11.8190 H       1  UNL1        0.1686
     16 N         -29.3742   46.3294   -4.7549 N.am    1  UNL1       -0.2808
     17 C         -30.2767   46.7578   -5.7864 C.2     1  UNL1        0.2525
     18 O         -31.4149   47.2058   -5.4793 O.2     1  UNL1       -0.2697
     19 H         -28.4970   45.8229   -5.0074 H       1  UNL1        0.1552
     20 C         -28.9961   47.8112   -2.8226 C.ar    1  UNL1       -0.0091
     21 C         -29.2627   48.1551   -1.4880 C.ar    1  UNL1        0.0008
     22 C         -30.1004   47.3605   -0.6917 C.ar    1  UNL1        0.0709
     23 C         -30.6296   46.1771   -1.2268 C.ar    1  UNL1        0.0008
     24 C         -30.3745   45.8103   -2.5564 C.ar    1  UNL1       -0.0087
     25 C         -30.9718   44.5344   -3.0881 C.3     1  UNL1        0.0323
     26 C         -29.5916   46.6549   -3.3748 C.ar    1  UNL1        0.0425
     27 C         -30.3432   47.7195    0.7535 C.3     1  UNL1        0.4186
     28 F         -29.3807   48.6054    1.2062 F       1  UNL1       -0.1659
     29 F         -30.2952   46.5712    1.5216 F       1  UNL1       -0.1659
     30 F         -31.5835   48.3143    0.9088 F       1  UNL1       -0.1659
     31 C         -26.6763   48.6919   -3.1633 C.3     1  UNL1        0.0051
     32 C         -28.1208   48.7219   -3.6532 C.3     1  UNL1        0.0276
     33 N         -30.6385   45.9341  -13.0108 N.pl3   1  UNL1       -0.2816
     34 H         -31.1092   45.0383  -13.2704 H       1  UNL1        0.1551
     35 C         -30.4765   46.9452  -14.0171 C.ar    1  UNL1        0.0889
     36 C         -30.4325   48.3072  -13.6620 C.ar    1  UNL1        0.1543
     37 F         -30.5277   48.6859  -12.3625 F       1  UNL1       -0.2028
     38 C         -30.2542   49.2852  -14.6450 C.ar    1  UNL1        0.0310
     39 C         -30.1057   48.9159  -15.9832 C.ar    1  UNL1        0.0033
     40 C         -30.1276   47.5665  -16.3428 C.ar    1  UNL1        0.0128
     41 C         -30.3051   46.5792  -15.3664 C.ar    1  UNL1        0.0733
     42 CL        -30.3449   44.8925  -15.8630 Cl      1  UNL1       -0.0809
@<TRIPOS>BOND
     1    31    32    1
     2    32    20    1
     3    20    21   ar
     4    21    22   ar
     5    22    27    1
     6    27    28    1
     7    27    29    1
     8    27    30    1
     9    22    23   ar
    10    23    24   ar
    11    24    25    1
    12    24    26   ar
    13    26    16    1
    14    16    17   am
    15    17    18    2
    16    17     1    1
    17     1     2   ar
    18     2     3   ar
    19     3     4   ar
    20     4     5   ar
    21     5    33    1
    22    33    35    1
    23    35    36   ar
    24    36    37    1
    25    36    38   ar
    26    38    39   ar
    27    39    40   ar
    28    40    41   ar
    29    41    42    1
    30     5     6   ar
    31     6     7   ar
    32     7     8   ar
    33     8     9   ar
    34     9    10    1
    35    10    11    1
    36    11    12    1
    37    11    13    1
    38    11    14    1
    39    26    20   ar
    40     9     1   ar
    41     7     3   ar
    42    14     8    1
    43    41    35   ar
    44    16    19    1
    45    33    34    1
    46     6    15    1
