@<TRIPOS>MOLECULE
*****
 45 51 0 0 0
SMALL
GASTEIGER

@<TRIPOS>ATOM
      1 C         -28.5906   46.5288   -8.3892 C.3     1  UNL1        0.0817
      2 C         -27.2843   46.3152   -9.1830 C.3     1  UNL1        0.0252
      3 C         -26.1388   46.8053   -8.2761 C.3     1  UNL1        0.0278
      4 C         -26.8330   47.5330   -7.1842 C.ar    1  UNL1       -0.0248
      5 C         -26.2344   48.2557   -6.1558 C.ar    1  UNL1       -0.0048
      6 C         -27.0473   48.8922   -5.1992 C.ar    1  UNL1       -0.0042
      7 C         -28.4684   48.7771   -5.2779 C.ar    1  UNL1       -0.0228
      8 C         -29.0330   48.0309   -6.3389 C.ar    1  UNL1       -0.0076
      9 C         -28.1953   47.4248   -7.2740 C.ar    1  UNL1       -0.0120
     10 C         -30.7715   46.3750   -9.6779 C.3     1  UNL1        0.1158
     11 N         -31.5840   47.1049  -10.4812 N.3     1  UNL1       -0.2851
     12 C         -30.9873   48.3050  -10.5114 C.3     1  UNL1        0.0910
     13 C         -31.4045   49.4206  -11.2178 C.3     1  UNL1        0.1018
     14 C         -30.6201   50.5766  -11.1176 C.3     1  UNL1        0.3136
     15 N         -29.4939   50.6069  -10.3223 N.am    1  UNL1       -0.1294
     16 C         -29.0683   49.4670   -9.6682 C.2     1  UNL1        0.4047
     17 O         -27.9991   49.4729   -9.0041 O.2     1  UNL1       -0.2174
     18 C         -29.8504   48.3036   -9.7614 C.3     1  UNL1        0.2038
     19 N         -29.6873   47.0702   -9.2190 N.3     1  UNL1       -0.2473
     20 H         -32.5225   47.1729  -10.0874 H       1  UNL1        0.1244
     21 C         -31.5827   44.7382   -7.9771 C.3     1  UNL1        0.0029
     22 C         -31.0556   44.9255   -9.3958 C.3     1  UNL1        0.0326
     23 C         -28.7196   51.8611  -10.2350 C.3     1  UNL1        0.3394
     24 C         -27.2462   51.6084   -9.9690 C.ar    1  UNL1        0.0505
     25 C         -26.4214   51.2440  -11.0497 C.ar    1  UNL1        0.0021
     26 C         -25.0615   50.9978  -10.8579 C.ar    1  UNL1       -0.0001
     27 C         -24.5031   51.1116   -9.5867 C.ar    1  UNL1       -0.0003
     28 C         -25.3033   51.4670   -8.5005 C.ar    1  UNL1       -0.0044
     29 C         -26.6792   51.7030   -8.6695 C.ar    1  UNL1       -0.0193
     30 C         -27.4854   52.1261   -7.4701 C.3     1  UNL1        0.0309
     31 C         -26.3845   49.6334   -4.1063 C.ar    1  UNL1        0.0027
     32 C         -26.0565   50.9802   -4.3285 C.ar    1  UNL1        0.0001
     33 C         -25.3585   51.7073   -3.3643 C.ar    1  UNL1        0.0000
     34 C         -24.9771   51.0968   -2.1706 C.ar    1  UNL1        0.0001
     35 C         -25.2984   49.7586   -1.9331 C.ar    1  UNL1        0.0031
     36 C         -26.0092   49.0093   -2.8889 C.ar    1  UNL1        0.0371
     37 C         -26.3591   47.6008   -2.5822 C.ar    1  UNL1        0.1806
     38 N         -27.5273   47.1951   -2.0489 N.ar    1  UNL1       -0.1084
     39 N         -27.3953   45.8867   -1.8825 N.ar    1  UNL1       -0.0229
     40 N         -26.1991   45.4969   -2.2948 N.ar    1  UNL1       -0.0464
     41 N         -25.5336   46.5503   -2.7317 N.ar    1  UNL1       -0.2388
     42 H         -24.5648   46.5310   -3.1193 H       1  UNL1        0.1923
     43 C         -29.3860   49.4466   -4.2604 C.3     1  UNL1        0.0223
     44 C         -30.1411   50.6145   -4.9008 C.3     1  UNL1        0.0047
     45 C         -30.3557   48.4408   -3.6259 C.3     1  UNL1        0.0047
@<TRIPOS>BOND
     1    21    22    1
     2    22    10    1
     3    10    11    1
     4    11    12    1
     5    12    13    1
     6    13    14    1
     7    14    15    1
     8    15    23    1
     9    23    24    1
    10    24    25   ar
    11    25    26   ar
    12    26    27   ar
    13    27    28   ar
    14    28    29   ar
    15    29    30    1
    16    15    16    1
    17    16    17    2
    18    16    18    1
    19    18    19    1
    20    19     1    1
    21     1     2    1
    22     2     3    1
    23     3     4    1
    24     4     5   ar
    25     5     6   ar
    26     6    31    1
    27    31    32   ar
    28    32    33   ar
    29    33    34   ar
    30    34    35   ar
    31    35    36   ar
    32    36    37    1
    33    37    38   ar
    34    38    39   ar
    35    39    40   ar
    36    40    41   ar
    37     6     7   ar
    38     7    43    1
    39    43    44    1
    40    43    45    1
    41     7     8   ar
    42     8     9   ar
    43    19    10    1
    44     9     1    1
    45    18    12    1
    46     9     4   ar
    47    29    24   ar
    48    36    31   ar
    49    41    37   ar
    50    41    42    1
    51    11    20    1
@<TRIPOS>MOLECULE
*****
 45 51 0 0 0
SMALL
GASTEIGER

@<TRIPOS>ATOM
      1 C         -27.4386   46.4239   -3.3696 C.3     1  UNL1        0.0817
      2 C         -26.2508   45.5079   -3.7336 C.3     1  UNL1        0.0252
      3 C         -25.5432   46.1687   -4.9325 C.3     1  UNL1        0.0278
      4 C         -26.4964   47.2157   -5.3783 C.ar    1  UNL1       -0.0248
      5 C         -26.3701   48.0312   -6.4996 C.ar    1  UNL1       -0.0048
      6 C         -27.3754   48.9756   -6.7796 C.ar    1  UNL1       -0.0042
      7 C         -28.4993   49.1036   -5.9081 C.ar    1  UNL1       -0.0228
      8 C         -28.5851   48.2554   -4.7791 C.ar    1  UNL1       -0.0076
      9 C         -27.5753   47.3240   -4.5417 C.ar    1  UNL1       -0.0120
     10 C         -29.2844   44.7544   -3.8662 C.3     1  UNL1        0.1158
     11 N         -30.4452   44.2723   -3.3579 N.3     1  UNL1       -0.2851
     12 C         -30.5507   44.9058   -2.1811 C.3     1  UNL1        0.0910
     13 C         -31.5826   44.7866   -1.2652 C.3     1  UNL1        0.1018
     14 C         -31.4984   45.5548   -0.0971 C.3     1  UNL1        0.3136
     15 N         -30.4147   46.3736    0.1410 N.am    1  UNL1       -0.1294
     16 C         -29.4230   46.5160   -0.8103 C.2     1  UNL1        0.4047
     17 O         -28.4729   47.3209   -0.6271 O.2     1  UNL1       -0.2174
     18 C         -29.4983   45.7474   -1.9840 C.3     1  UNL1        0.2038
     19 N         -28.6721   45.6716   -3.0580 N.3     1  UNL1       -0.2473
     20 H         -30.3952   43.2621   -3.2263 H       1  UNL1        0.1244
     21 C         -29.6221   44.9626   -6.3304 C.3     1  UNL1        0.0029
     22 C         -28.7920   44.3260   -5.2209 C.3     1  UNL1        0.0326
     23 C         -30.3676   47.1410    1.4015 C.3     1  UNL1        0.3394
     24 C         -30.7899   48.5867    1.2093 C.ar    1  UNL1        0.0505
     25 C         -31.1308   49.0204   -0.0855 C.ar    1  UNL1        0.0021
     26 C         -31.5224   50.3397   -0.3161 C.ar    1  UNL1       -0.0001
     27 C         -31.5807   51.2461    0.7402 C.ar    1  UNL1       -0.0003
     28 C         -31.2427   50.8386    2.0310 C.ar    1  UNL1       -0.0044
     29 C         -30.8294   49.5181    2.2818 C.ar    1  UNL1       -0.0193
     30 C         -30.5188   49.1227    3.7011 C.3     1  UNL1        0.0309
     31 C         -27.2042   49.8428   -7.9635 C.ar    1  UNL1        0.0027
     32 C         -26.8108   51.1739   -7.7532 C.ar    1  UNL1        0.0001
     33 C         -26.7113   52.0606   -8.8254 C.ar    1  UNL1        0.0000
     34 C         -27.0074   51.6292  -10.1174 C.ar    1  UNL1        0.0001
     35 C         -27.3973   50.3075  -10.3436 C.ar    1  UNL1        0.0031
     36 C         -27.4960   49.3944   -9.2774 C.ar    1  UNL1        0.0371
     37 C         -27.8813   47.9914   -9.5664 C.ar    1  UNL1        0.1806
     38 N         -29.1351   47.5054   -9.4929 N.ar    1  UNL1       -0.1084
     39 N         -29.0210   46.2127   -9.7630 N.ar    1  UNL1       -0.0229
     40 N         -27.7532   45.9095   -9.9949 N.ar    1  UNL1       -0.0464
     41 N         -27.0234   47.0031   -9.8737 N.ar    1  UNL1       -0.2388
     42 H         -25.9896   47.0538  -10.0079 H       1  UNL1        0.1923
     43 C         -29.6086   50.1163   -6.1713 C.3     1  UNL1        0.0223
     44 C         -30.8024   49.4438   -6.8544 C.3     1  UNL1        0.0047
     45 C         -30.0377   50.8323   -4.8838 C.3     1  UNL1        0.0047
@<TRIPOS>BOND
     1    21    22    1
     2    22    10    1
     3    10    11    1
     4    11    12    1
     5    12    13    1
     6    13    14    1
     7    14    15    1
     8    15    23    1
     9    23    24    1
    10    24    25   ar
    11    25    26   ar
    12    26    27   ar
    13    27    28   ar
    14    28    29   ar
    15    29    30    1
    16    15    16    1
    17    16    17    2
    18    16    18    1
    19    18    19    1
    20    19     1    1
    21     1     2    1
    22     2     3    1
    23     3     4    1
    24     4     5   ar
    25     5     6   ar
    26     6    31    1
    27    31    32   ar
    28    32    33   ar
    29    33    34   ar
    30    34    35   ar
    31    35    36   ar
    32    36    37    1
    33    37    38   ar
    34    38    39   ar
    35    39    40   ar
    36    40    41   ar
    37     6     7   ar
    38     7    43    1
    39    43    44    1
    40    43    45    1
    41     7     8   ar
    42     8     9   ar
    43    19    10    1
    44     9     1    1
    45    18    12    1
    46     9     4   ar
    47    29    24   ar
    48    36    31   ar
    49    41    37   ar
    50    41    42    1
    51    11    20    1
@<TRIPOS>MOLECULE
*****
 45 51 0 0 0
SMALL
GASTEIGER

@<TRIPOS>ATOM
      1 C         -26.0838   50.1947   -5.4756 C.3     1  UNL1        0.0817
      2 C         -25.5629   51.0944   -4.3347 C.3     1  UNL1        0.0252
      3 C         -26.0290   50.4419   -3.0187 C.3     1  UNL1        0.0278
      4 C         -27.0150   49.4214   -3.4545 C.ar    1  UNL1       -0.0248
      5 C         -27.8046   48.6239   -2.6307 C.ar    1  UNL1       -0.0048
      6 C         -28.6960   47.7039   -3.2138 C.ar    1  UNL1       -0.0042
      7 C         -28.7697   47.5816   -4.6346 C.ar    1  UNL1       -0.0228
      8 C         -27.9470   48.4108   -5.4326 C.ar    1  UNL1       -0.0076
      9 C         -27.0854   49.3185   -4.8184 C.ar    1  UNL1       -0.0120
     10 C         -27.8764   51.5234   -6.6845 C.3     1  UNL1        0.1158
     11 N         -28.1399   52.1105   -7.8779 N.3     1  UNL1       -0.2851
     12 C         -27.0074   51.9199   -8.5696 C.3     1  UNL1        0.0910
     13 C         -26.7569   52.3121   -9.8739 C.3     1  UNL1        0.1018
     14 C         -25.5016   51.9988  -10.4105 C.3     1  UNL1        0.3136
     15 N         -24.5456   51.3514   -9.6565 N.am    1  UNL1       -0.1294
     16 C         -24.8363   50.9238   -8.3754 C.2     1  UNL1        0.4047
     17 O         -23.9912   50.2658   -7.7143 O.2     1  UNL1       -0.2174
     18 C         -26.0922   51.2358   -7.8285 C.3     1  UNL1        0.2038
     19 N         -26.6307   50.9645   -6.6125 N.3     1  UNL1       -0.2473
     20 H         -28.3342   53.1050   -7.7612 H       1  UNL1        0.1244
     21 C         -30.2967   51.1901   -6.1735 C.3     1  UNL1        0.0029
     22 C         -28.9138   51.4740   -5.5970 C.3     1  UNL1        0.0326
     23 C         -23.2308   51.0695  -10.2665 C.3     1  UNL1        0.3394
     24 C         -22.1850   52.0990   -9.8769 C.ar    1  UNL1        0.0505
     25 C         -21.5146   51.9441   -8.6491 C.ar    1  UNL1        0.0021
     26 C         -20.5473   52.8642   -8.2433 C.ar    1  UNL1       -0.0001
     27 C         -20.2332   53.9519   -9.0551 C.ar    1  UNL1       -0.0003
     28 C         -20.8889   54.1272  -10.2741 C.ar    1  UNL1       -0.0044
     29 C         -21.8786   53.2207  -10.6937 C.ar    1  UNL1       -0.0193
     30 C         -22.5220   53.4353  -12.0381 C.3     1  UNL1        0.0309
     31 C         -29.5053   46.8550   -2.3153 C.ar    1  UNL1        0.0027
     32 C         -30.8024   47.2854   -1.9943 C.ar    1  UNL1        0.0001
     33 C         -31.5827   46.5673   -1.0882 C.ar    1  UNL1        0.0000
     34 C         -31.0753   45.4149   -0.4903 C.ar    1  UNL1        0.0001
     35 C         -29.7880   44.9719   -0.8012 C.ar    1  UNL1        0.0031
     36 C         -28.9870   45.6768   -1.7189 C.ar    1  UNL1        0.0371
     37 C         -27.6384   45.1529   -2.0460 C.ar    1  UNL1        0.1806
     38 N         -27.3361   44.4334   -3.1435 N.ar    1  UNL1       -0.1084
     39 N         -26.0554   44.1193   -3.0089 N.ar    1  UNL1       -0.0229
     40 N         -25.5830   44.6219   -1.8788 N.ar    1  UNL1       -0.0464
     41 N         -26.5541   45.2675   -1.2595 N.ar    1  UNL1       -0.2388
     42 H         -26.4589   45.7651   -0.3471 H       1  UNL1        0.1923
     43 C         -29.7179   46.5950   -5.3078 C.3     1  UNL1        0.0223
     44 C         -30.9207   47.3269   -5.9091 C.3     1  UNL1        0.0047
     45 C         -28.9967   45.7506   -6.3667 C.3     1  UNL1        0.0047
@<TRIPOS>BOND
     1    21    22    1
     2    22    10    1
     3    10    11    1
     4    11    12    1
     5    12    13    1
     6    13    14    1
     7    14    15    1
     8    15    23    1
     9    23    24    1
    10    24    25   ar
    11    25    26   ar
    12    26    27   ar
    13    27    28   ar
    14    28    29   ar
    15    29    30    1
    16    15    16    1
    17    16    17    2
    18    16    18    1
    19    18    19    1
    20    19     1    1
    21     1     2    1
    22     2     3    1
    23     3     4    1
    24     4     5   ar
    25     5     6   ar
    26     6    31    1
    27    31    32   ar
    28    32    33   ar
    29    33    34   ar
    30    34    35   ar
    31    35    36   ar
    32    36    37    1
    33    37    38   ar
    34    38    39   ar
    35    39    40   ar
    36    40    41   ar
    37     6     7   ar
    38     7    43    1
    39    43    44    1
    40    43    45    1
    41     7     8   ar
    42     8     9   ar
    43    19    10    1
    44     9     1    1
    45    18    12    1
    46     9     4   ar
    47    29    24   ar
    48    36    31   ar
    49    41    37   ar
    50    41    42    1
    51    11    20    1
@<TRIPOS>MOLECULE
*****
 45 51 0 0 0
SMALL
GASTEIGER

@<TRIPOS>ATOM
      1 C         -27.4127   48.3649   -9.4733 C.3     1  UNL1        0.0817
      2 C         -26.2033   49.3137   -9.3338 C.3     1  UNL1        0.0252
      3 C         -25.5069   48.9395   -8.0110 C.3     1  UNL1        0.0278
      4 C         -26.4821   48.0496   -7.3323 C.ar    1  UNL1       -0.0248
      5 C         -26.3707   47.5199   -6.0496 C.ar    1  UNL1       -0.0048
      6 C         -27.3962   46.6917   -5.5563 C.ar    1  UNL1       -0.0042
      7 C         -28.5255   46.3868   -6.3753 C.ar    1  UNL1       -0.0228
      8 C         -28.5957   46.9454   -7.6730 C.ar    1  UNL1       -0.0076
      9 C         -27.5659   47.7710   -8.1219 C.ar    1  UNL1       -0.0120
     10 C         -29.1693   50.1963   -9.4428 C.3     1  UNL1        0.1158
     11 N         -30.3331   50.5615  -10.0348 N.3     1  UNL1       -0.2851
     12 C         -30.5164   49.6109  -10.9623 C.3     1  UNL1        0.0910
     13 C         -31.5840   49.5018  -11.8376 C.3     1  UNL1        0.1018
     14 C         -31.5827   48.4161  -12.7223 C.3     1  UNL1        0.3136
     15 N         -30.5428   47.5106  -12.7378 N.am    1  UNL1       -0.1294
     16 C         -29.5146   47.6101  -11.8205 C.2     1  UNL1        0.4047
     17 O         -28.6050   46.7410  -11.7836 O.2     1  UNL1       -0.2174
     18 C         -29.5068   48.6975  -10.9309 C.3     1  UNL1        0.2038
     19 N         -28.6298   49.0500   -9.9568 N.3     1  UNL1       -0.2473
     20 H         -30.2510   51.4822  -10.4660 H       1  UNL1        0.1244
     21 C         -29.4793   50.8619   -7.0573 C.3     1  UNL1        0.0029
     22 C         -28.5994   50.9855   -8.2966 C.3     1  UNL1        0.0326
     23 C         -30.5826   46.3997  -13.7097 C.3     1  UNL1        0.3394
     24 C         -30.2701   46.8615  -15.1221 C.ar    1  UNL1        0.0505
     25 C         -29.7174   48.1432  -15.3028 C.ar    1  UNL1        0.0021
     26 C         -29.4151   48.6160  -16.5803 C.ar    1  UNL1       -0.0001
     27 C         -29.6584   47.8186  -17.6964 C.ar    1  UNL1       -0.0003
     28 C         -30.2101   46.5467  -17.5404 C.ar    1  UNL1       -0.0044
     29 C         -30.5376   46.0581  -16.2632 C.ar    1  UNL1       -0.0193
     30 C         -31.0897   44.6617  -16.1511 C.3     1  UNL1        0.0309
     31 C         -27.2409   46.1256   -4.2005 C.ar    1  UNL1        0.0027
     32 C         -26.3658   45.0401   -4.0365 C.ar    1  UNL1        0.0001
     33 C         -26.2397   44.4133   -2.7968 C.ar    1  UNL1        0.0000
     34 C         -26.9883   44.8606   -1.7094 C.ar    1  UNL1        0.0001
     35 C         -27.8610   45.9411   -1.8553 C.ar    1  UNL1        0.0031
     36 C         -27.9972   46.5929   -3.0950 C.ar    1  UNL1        0.0371
     37 C         -28.9102   47.7575   -3.1978 C.ar    1  UNL1        0.1806
     38 N         -30.2077   47.7542   -2.8370 N.ar    1  UNL1       -0.1084
     39 N         -30.6572   48.9605   -3.1526 N.ar    1  UNL1       -0.0229
     40 N         -29.6824   49.6813   -3.6847 N.ar    1  UNL1       -0.0464
     41 N         -28.5842   48.9497   -3.7266 N.ar    1  UNL1       -0.2388
     42 H         -27.6617   49.2706   -4.0945 H       1  UNL1        0.1923
     43 C         -29.6566   45.4906   -5.8823 C.3     1  UNL1        0.0223
     44 C         -31.0018   46.2149   -5.9821 C.3     1  UNL1        0.0047
     45 C         -29.6891   44.1547   -6.6365 C.3     1  UNL1        0.0047
@<TRIPOS>BOND
     1    21    22    1
     2    22    10    1
     3    10    11    1
     4    11    12    1
     5    12    13    1
     6    13    14    1
     7    14    15    1
     8    15    23    1
     9    23    24    1
    10    24    25   ar
    11    25    26   ar
    12    26    27   ar
    13    27    28   ar
    14    28    29   ar
    15    29    30    1
    16    15    16    1
    17    16    17    2
    18    16    18    1
    19    18    19    1
    20    19     1    1
    21     1     2    1
    22     2     3    1
    23     3     4    1
    24     4     5   ar
    25     5     6   ar
    26     6    31    1
    27    31    32   ar
    28    32    33   ar
    29    33    34   ar
    30    34    35   ar
    31    35    36   ar
    32    36    37    1
    33    37    38   ar
    34    38    39   ar
    35    39    40   ar
    36    40    41   ar
    37     6     7   ar
    38     7    43    1
    39    43    44    1
    40    43    45    1
    41     7     8   ar
    42     8     9   ar
    43    19    10    1
    44     9     1    1
    45    18    12    1
    46     9     4   ar
    47    29    24   ar
    48    36    31   ar
    49    41    37   ar
    50    41    42    1
    51    11    20    1
@<TRIPOS>MOLECULE
*****
 45 51 0 0 0
SMALL
GASTEIGER

@<TRIPOS>ATOM
      1 C         -29.1783   50.5224   -6.6232 C.3     1  UNL1        0.0817
      2 C         -30.6704   50.7938   -6.9104 C.3     1  UNL1        0.0252
      3 C         -31.4308   50.4624   -5.6116 C.3     1  UNL1        0.0278
      4 C         -30.4272   49.7510   -4.7807 C.ar    1  UNL1       -0.0248
      5 C         -30.6478   49.1499   -3.5445 C.ar    1  UNL1       -0.0048
      6 C         -29.5783   48.5103   -2.8903 C.ar    1  UNL1       -0.0042
      7 C         -28.2800   48.4994   -3.4848 C.ar    1  UNL1       -0.0228
      8 C         -28.1015   49.1246   -4.7412 C.ar    1  UNL1       -0.0076
      9 C         -29.1880   49.7374   -5.3637 C.ar    1  UNL1       -0.0120
     10 C         -28.7342   48.5647   -8.1759 C.3     1  UNL1        0.1158
     11 N         -27.9040   48.1653   -9.1707 N.3     1  UNL1       -0.2851
     12 C         -27.1241   49.2378   -9.3678 C.3     1  UNL1        0.0910
     13 C         -26.0806   49.3490  -10.2714 C.3     1  UNL1        0.1018
     14 C         -25.3841   50.5636  -10.3042 C.3     1  UNL1        0.3136
     15 N         -25.7454   51.6147   -9.4879 N.am    1  UNL1       -0.1294
     16 C         -26.7559   51.4632   -8.5581 C.2     1  UNL1        0.4047
     17 O         -27.0354   52.3959   -7.7606 O.2     1  UNL1       -0.2174
     18 C         -27.4614   50.2488   -8.5200 C.3     1  UNL1        0.2038
     19 N         -28.4922   49.8373   -7.7388 N.3     1  UNL1       -0.2473
     20 H         -28.4286   47.9345  -10.0144 H       1  UNL1        0.1244
     21 C         -29.1243   46.3681   -7.0566 C.3     1  UNL1        0.0029
     22 C         -29.7704   47.6345   -7.6081 C.3     1  UNL1        0.0326
     23 C         -24.9911   52.8804   -9.5837 C.3     1  UNL1        0.3394
     24 C         -23.5833   52.6707  -10.1125 C.ar    1  UNL1        0.0505
     25 C         -23.2341   53.2562  -11.3438 C.ar    1  UNL1        0.0021
     26 C         -21.9545   53.0911  -11.8749 C.ar    1  UNL1       -0.0001
     27 C         -21.0037   52.3406  -11.1868 C.ar    1  UNL1       -0.0003
     28 C         -21.3299   51.7476   -9.9668 C.ar    1  UNL1       -0.0044
     29 C         -22.6188   51.8878   -9.4225 C.ar    1  UNL1       -0.0193
     30 C         -22.9016   51.2627   -8.0821 C.3     1  UNL1        0.0309
     31 C         -29.8360   47.9005   -1.5695 C.ar    1  UNL1        0.0027
     32 C         -29.8094   48.7363   -0.4419 C.ar    1  UNL1        0.0001
     33 C         -29.9656   48.2040    0.8379 C.ar    1  UNL1        0.0000
     34 C         -30.1458   46.8320    1.0057 C.ar    1  UNL1        0.0001
     35 C         -30.1776   45.9874   -0.1060 C.ar    1  UNL1        0.0031
     36 C         -30.0303   46.5048   -1.4064 C.ar    1  UNL1        0.0371
     37 C         -30.1039   45.5768   -2.5613 C.ar    1  UNL1        0.1806
     38 N         -29.1501   44.6875   -2.8978 N.ar    1  UNL1       -0.1084
     39 N         -29.5857   44.1189   -4.0130 N.ar    1  UNL1       -0.0229
     40 N         -30.7581   44.6312   -4.3536 N.ar    1  UNL1       -0.0464
     41 N         -31.0992   45.5457   -3.4644 N.ar    1  UNL1       -0.2388
     42 H         -31.9797   46.1056   -3.4853 H       1  UNL1        0.1923
     43 C         -27.0927   47.8221   -2.8086 C.3     1  UNL1        0.0223
     44 C         -26.4427   46.8054   -3.7510 C.3     1  UNL1        0.0047
     45 C         -26.0674   48.8475   -2.3070 C.3     1  UNL1        0.0047
@<TRIPOS>BOND
     1    21    22    1
     2    22    10    1
     3    10    11    1
     4    11    12    1
     5    12    13    1
     6    13    14    1
     7    14    15    1
     8    15    23    1
     9    23    24    1
    10    24    25   ar
    11    25    26   ar
    12    26    27   ar
    13    27    28   ar
    14    28    29   ar
    15    29    30    1
    16    15    16    1
    17    16    17    2
    18    16    18    1
    19    18    19    1
    20    19     1    1
    21     1     2    1
    22     2     3    1
    23     3     4    1
    24     4     5   ar
    25     5     6   ar
    26     6    31    1
    27    31    32   ar
    28    32    33   ar
    29    33    34   ar
    30    34    35   ar
    31    35    36   ar
    32    36    37    1
    33    37    38   ar
    34    38    39   ar
    35    39    40   ar
    36    40    41   ar
    37     6     7   ar
    38     7    43    1
    39    43    44    1
    40    43    45    1
    41     7     8   ar
    42     8     9   ar
    43    19    10    1
    44     9     1    1
    45    18    12    1
    46     9     4   ar
    47    29    24   ar
    48    36    31   ar
    49    41    37   ar
    50    41    42    1
    51    11    20    1
@<TRIPOS>MOLECULE
*****
 45 51 0 0 0
SMALL
GASTEIGER

@<TRIPOS>ATOM
      1 C         -27.3729   48.9679   -9.5875 C.3     1  UNL1        0.0817
      2 C         -25.8407   49.1186   -9.4789 C.3     1  UNL1        0.0252
      3 C         -25.4297   48.4432   -8.1561 C.3     1  UNL1        0.0278
      4 C         -26.7172   48.2253   -7.4502 C.ar    1  UNL1       -0.0248
      5 C         -26.8836   47.7331   -6.1586 C.ar    1  UNL1       -0.0048
      6 C         -28.1840   47.5921   -5.6388 C.ar    1  UNL1       -0.0042
      7 C         -29.3155   47.9334   -6.4402 C.ar    1  UNL1       -0.0228
      8 C         -29.0990   48.4278   -7.7479 C.ar    1  UNL1       -0.0076
      9 C         -27.7957   48.5647   -8.2232 C.ar    1  UNL1       -0.0120
     10 C         -27.7722   51.4729   -9.6670 C.3     1  UNL1        0.1158
     11 N         -28.5889   52.4009  -10.2237 N.3     1  UNL1       -0.2851
     12 C         -29.3867   51.6709  -11.0161 C.3     1  UNL1        0.0910
     13 C         -30.4264   52.1385  -11.8023 C.3     1  UNL1        0.1018
     14 C         -31.1444   51.1949  -12.5478 C.3     1  UNL1        0.3136
     15 N         -30.8071   49.8581  -12.5198 N.am    1  UNL1       -0.1294
     16 C         -29.7998   49.4080  -11.6883 C.2     1  UNL1        0.4047
     17 O         -29.5421   48.1789  -11.6045 O.2     1  UNL1       -0.2174
     18 C         -29.0729   50.3480  -10.9387 C.3     1  UNL1        0.2038
     19 N         -28.0397   50.1947  -10.0720 N.3     1  UNL1       -0.2473
     20 H         -28.0549   53.0791  -10.7672 H       1  UNL1        0.1244
     21 C         -27.3362   52.0618   -7.2810 C.3     1  UNL1        0.0029
     22 C         -26.7229   51.8632   -8.6630 C.3     1  UNL1        0.0326
     23 C         -31.5834   48.9121  -13.3459 C.3     1  UNL1        0.3394
     24 C         -30.9543   48.6917  -14.7102 C.ar    1  UNL1        0.0505
     25 C         -30.9114   49.7711  -15.6123 C.ar    1  UNL1        0.0021
     26 C         -30.3469   49.6198  -16.8794 C.ar    1  UNL1       -0.0001
     27 C         -29.8164   48.3910  -17.2660 C.ar    1  UNL1       -0.0003
     28 C         -29.8527   47.3065  -16.3891 C.ar    1  UNL1       -0.0044
     29 C         -30.4321   47.4334  -15.1142 C.ar    1  UNL1       -0.0193
     30 C         -30.4043   46.2421  -14.1936 C.3     1  UNL1        0.0309
     31 C         -28.3316   47.0463   -4.2737 C.ar    1  UNL1        0.0027
     32 C         -29.0203   45.8326   -4.1208 C.ar    1  UNL1        0.0001
     33 C         -29.2605   45.3101   -2.8501 C.ar    1  UNL1        0.0000
     34 C         -28.8197   45.9953   -1.7191 C.ar    1  UNL1        0.0001
     35 C         -28.1306   47.2023   -1.8543 C.ar    1  UNL1        0.0031
     36 C         -27.8704   47.7430   -3.1273 C.ar    1  UNL1        0.0371
     37 C         -27.1060   49.0103   -3.2269 C.ar    1  UNL1        0.1806
     38 N         -27.3752   50.0072   -4.0915 N.ar    1  UNL1       -0.1084
     39 N         -26.4226   50.9064   -3.8897 N.ar    1  UNL1       -0.0229
     40 N         -25.5990   50.4874   -2.9415 N.ar    1  UNL1       -0.0464
     41 N         -26.0035   49.3048   -2.5162 N.ar    1  UNL1       -0.2388
     42 H         -25.5402   48.7444   -1.7675 H       1  UNL1        0.1923
     43 C         -30.7414   47.7920   -5.9183 C.3     1  UNL1        0.0223
     44 C         -31.3979   49.1663   -5.7621 C.3     1  UNL1        0.0047
     45 C         -31.5830   46.8742   -6.8148 C.3     1  UNL1        0.0047
@<TRIPOS>BOND
     1    21    22    1
     2    22    10    1
     3    10    11    1
     4    11    12    1
     5    12    13    1
     6    13    14    1
     7    14    15    1
     8    15    23    1
     9    23    24    1
    10    24    25   ar
    11    25    26   ar
    12    26    27   ar
    13    27    28   ar
    14    28    29   ar
    15    29    30    1
    16    15    16    1
    17    16    17    2
    18    16    18    1
    19    18    19    1
    20    19     1    1
    21     1     2    1
    22     2     3    1
    23     3     4    1
    24     4     5   ar
    25     5     6   ar
    26     6    31    1
    27    31    32   ar
    28    32    33   ar
    29    33    34   ar
    30    34    35   ar
    31    35    36   ar
    32    36    37    1
    33    37    38   ar
    34    38    39   ar
    35    39    40   ar
    36    40    41   ar
    37     6     7   ar
    38     7    43    1
    39    43    44    1
    40    43    45    1
    41     7     8   ar
    42     8     9   ar
    43    19    10    1
    44     9     1    1
    45    18    12    1
    46     9     4   ar
    47    29    24   ar
    48    36    31   ar
    49    41    37   ar
    50    41    42    1
    51    11    20    1
@<TRIPOS>MOLECULE
*****
 45 51 0 0 0
SMALL
GASTEIGER

@<TRIPOS>ATOM
      1 C         -28.6015   50.0182   -6.8416 C.3     1  UNL1        0.0817
      2 C         -27.8427   51.2774   -7.3118 C.3     1  UNL1        0.0252
      3 C         -28.1180   51.4127   -8.8220 C.3     1  UNL1        0.0278
      4 C         -28.7328   50.1132   -9.1918 C.ar    1  UNL1       -0.0248
      5 C         -29.0747   49.6906  -10.4735 C.ar    1  UNL1       -0.0048
      6 C         -29.6494   48.4176  -10.6473 C.ar    1  UNL1       -0.0042
      7 C         -29.8941   47.5827   -9.5150 C.ar    1  UNL1       -0.0228
      8 C         -29.5326   48.0540   -8.2311 C.ar    1  UNL1       -0.0076
      9 C         -28.9545   49.3159   -8.1005 C.ar    1  UNL1       -0.0120
     10 C         -26.6023   48.6116   -6.1595 C.3     1  UNL1        0.1158
     11 N         -26.1439   47.8399   -5.1434 N.3     1  UNL1       -0.2851
     12 C         -27.1050   47.9526   -4.2155 C.3     1  UNL1        0.0910
     13 C         -27.1384   47.3335   -2.9773 C.3     1  UNL1        0.1018
     14 C         -28.2510   47.5814   -2.1634 C.3     1  UNL1        0.3136
     15 N         -29.2568   48.4322   -2.5709 N.am    1  UNL1       -0.1294
     16 C         -29.2273   48.9974   -3.8311 C.2     1  UNL1        0.4047
     17 O         -30.1818   49.7126   -4.2330 O.2     1  UNL1       -0.2174
     18 C         -28.1139   48.7560   -4.6532 C.3     1  UNL1        0.2038
     19 N         -27.8156   49.1881   -5.9048 N.3     1  UNL1       -0.2473
     20 H         -25.2529   48.1901   -4.7914 H       1  UNL1        0.1244
     21 C         -26.0256   47.5113   -8.3244 C.3     1  UNL1        0.0029
     22 C         -25.8325   48.7419   -7.4447 C.3     1  UNL1        0.0326
     23 C         -30.3934   48.6759   -1.6605 C.3     1  UNL1        0.3394
     24 C         -30.7591   47.4411   -0.8560 C.ar    1  UNL1        0.0505
     25 C         -31.2308   46.3071   -1.5432 C.ar    1  UNL1        0.0021
     26 C         -31.5833   45.1484   -0.8503 C.ar    1  UNL1       -0.0001
     27 C         -31.4704   45.1023    0.5375 C.ar    1  UNL1       -0.0003
     28 C         -31.0095   46.2167    1.2390 C.ar    1  UNL1       -0.0044
     29 C         -30.6650   47.3996    0.5613 C.ar    1  UNL1       -0.0193
     30 C         -30.1321   48.5558    1.3653 C.3     1  UNL1        0.0309
     31 C         -30.0227   48.0044  -12.0158 C.ar    1  UNL1        0.0027
     32 C         -29.8910   46.6480  -12.3531 C.ar    1  UNL1        0.0001
     33 C         -30.1514   46.2130  -13.6525 C.ar    1  UNL1        0.0000
     34 C         -30.5418   47.1274  -14.6294 C.ar    1  UNL1        0.0001
     35 C         -30.6803   48.4796  -14.3093 C.ar    1  UNL1        0.0031
     36 C         -30.4306   48.9384  -13.0026 C.ar    1  UNL1        0.0371
     37 C         -30.6222   50.3774  -12.6975 C.ar    1  UNL1        0.1806
     38 N         -29.8175   51.3696  -13.1236 N.ar    1  UNL1       -0.1084
     39 N         -30.3085   52.4722  -12.5757 N.ar    1  UNL1       -0.0229
     40 N         -31.3713   52.1782  -11.8429 N.ar    1  UNL1       -0.0464
     41 N         -31.5833   50.8763  -11.9009 N.ar    1  UNL1       -0.2388
     42 H         -32.3595   50.3715  -11.4192 H       1  UNL1        0.1923
     43 C         -30.5188   46.1988   -9.6575 C.3     1  UNL1        0.0223
     44 C         -29.4383   45.1143   -9.6376 C.3     1  UNL1        0.0047
     45 C         -31.5801   45.9439   -8.5791 C.3     1  UNL1        0.0047
@<TRIPOS>BOND
     1    21    22    1
     2    22    10    1
     3    10    11    1
     4    11    12    1
     5    12    13    1
     6    13    14    1
     7    14    15    1
     8    15    23    1
     9    23    24    1
    10    24    25   ar
    11    25    26   ar
    12    26    27   ar
    13    27    28   ar
    14    28    29   ar
    15    29    30    1
    16    15    16    1
    17    16    17    2
    18    16    18    1
    19    18    19    1
    20    19     1    1
    21     1     2    1
    22     2     3    1
    23     3     4    1
    24     4     5   ar
    25     5     6   ar
    26     6    31    1
    27    31    32   ar
    28    32    33   ar
    29    33    34   ar
    30    34    35   ar
    31    35    36   ar
    32    36    37    1
    33    37    38   ar
    34    38    39   ar
    35    39    40   ar
    36    40    41   ar
    37     6     7   ar
    38     7    43    1
    39    43    44    1
    40    43    45    1
    41     7     8   ar
    42     8     9   ar
    43    19    10    1
    44     9     1    1
    45    18    12    1
    46     9     4   ar
    47    29    24   ar
    48    36    31   ar
    49    41    37   ar
    50    41    42    1
    51    11    20    1
@<TRIPOS>MOLECULE
*****
 45 51 0 0 0
SMALL
GASTEIGER

@<TRIPOS>ATOM
      1 C         -25.9900   51.0045   -7.2189 C.3     1  UNL1        0.0817
      2 C         -26.6516   52.0532   -6.2998 C.3     1  UNL1        0.0252
      3 C         -27.6279   51.2814   -5.3910 C.3     1  UNL1        0.0278
      4 C         -27.7096   49.9364   -6.0139 C.ar    1  UNL1       -0.0248
      5 C         -28.5446   48.8914   -5.6279 C.ar    1  UNL1       -0.0048
      6 C         -28.4963   47.6756   -6.3354 C.ar    1  UNL1       -0.0042
      7 C         -27.5847   47.5167   -7.4229 C.ar    1  UNL1       -0.0228
      8 C         -26.7535   48.6046   -7.7788 C.ar    1  UNL1       -0.0076
      9 C         -26.8388   49.7971   -7.0617 C.ar    1  UNL1       -0.0120
     10 C         -26.9010   51.7019   -9.4826 C.3     1  UNL1        0.1158
     11 N         -26.4966   52.0393  -10.7319 N.3     1  UNL1       -0.2851
     12 C         -25.1594   52.0194  -10.6369 C.3     1  UNL1        0.0910
     13 C         -24.2524   52.2720  -11.6524 C.3     1  UNL1        0.1018
     14 C         -22.8909   52.1840  -11.3360 C.3     1  UNL1        0.3136
     15 N         -22.4744   51.8864  -10.0556 N.am    1  UNL1       -0.1294
     16 C         -23.3968   51.5872   -9.0716 C.2     1  UNL1        0.4047
     17 O         -23.0161   51.2409   -7.9230 O.2     1  UNL1       -0.2174
     18 C         -24.7648   51.6753   -9.3796 C.3     1  UNL1        0.2038
     19 N         -25.8684   51.4605   -8.6195 N.3     1  UNL1       -0.2473
     20 H         -26.8314   52.9686  -10.9863 H       1  UNL1        0.1244
     21 C         -29.0558   50.6089  -10.1087 C.3     1  UNL1        0.0029
     22 C         -28.3609   51.5678   -9.1480 C.3     1  UNL1        0.0326
     23 C         -21.0259   51.8321   -9.7743 C.3     1  UNL1        0.3394
     24 C         -20.4928   53.1547   -9.2527 C.ar    1  UNL1        0.0505
     25 C         -20.8220   54.3329   -9.9485 C.ar    1  UNL1        0.0021
     26 C         -20.3548   55.5732   -9.5123 C.ar    1  UNL1       -0.0001
     27 C         -19.5531   55.6579   -8.3761 C.ar    1  UNL1       -0.0003
     28 C         -19.2108   54.5020   -7.6740 C.ar    1  UNL1       -0.0044
     29 C         -19.6574   53.2407   -8.1065 C.ar    1  UNL1       -0.0193
     30 C         -19.2933   52.0323   -7.2851 C.3     1  UNL1        0.0309
     31 C         -29.3775   46.5766   -5.8897 C.ar    1  UNL1        0.0027
     32 C         -30.6778   46.5207   -6.4158 C.ar    1  UNL1        0.0001
     33 C         -31.5802   45.5541   -5.9720 C.ar    1  UNL1        0.0000
     34 C         -31.1956   44.6363   -4.9960 C.ar    1  UNL1        0.0001
     35 C         -29.9048   44.6767   -4.4647 C.ar    1  UNL1        0.0031
     36 C         -28.9761   45.6383   -4.9043 C.ar    1  UNL1        0.0371
     37 C         -27.6052   45.6247   -4.3379 C.ar    1  UNL1        0.1806
     38 N         -27.2672   46.1034   -3.1254 N.ar    1  UNL1       -0.1084
     39 N         -25.9524   45.9540   -3.0491 N.ar    1  UNL1       -0.0229
     40 N         -25.4942   45.4061   -4.1640 N.ar    1  UNL1       -0.0464
     41 N         -26.5073   45.1956   -4.9842 N.ar    1  UNL1       -0.2388
     42 H         -26.4334   44.7688   -5.9337 H       1  UNL1        0.1923
     43 C         -27.4964   46.2154   -8.2133 C.3     1  UNL1        0.0223
     44 C         -28.5968   46.1538   -9.2761 C.3     1  UNL1        0.0047
     45 C         -26.1087   46.0281   -8.8405 C.3     1  UNL1        0.0047
@<TRIPOS>BOND
     1    21    22    1
     2    22    10    1
     3    10    11    1
     4    11    12    1
     5    12    13    1
     6    13    14    1
     7    14    15    1
     8    15    23    1
     9    23    24    1
    10    24    25   ar
    11    25    26   ar
    12    26    27   ar
    13    27    28   ar
    14    28    29   ar
    15    29    30    1
    16    15    16    1
    17    16    17    2
    18    16    18    1
    19    18    19    1
    20    19     1    1
    21     1     2    1
    22     2     3    1
    23     3     4    1
    24     4     5   ar
    25     5     6   ar
    26     6    31    1
    27    31    32   ar
    28    32    33   ar
    29    33    34   ar
    30    34    35   ar
    31    35    36   ar
    32    36    37    1
    33    37    38   ar
    34    38    39   ar
    35    39    40   ar
    36    40    41   ar
    37     6     7   ar
    38     7    43    1
    39    43    44    1
    40    43    45    1
    41     7     8   ar
    42     8     9   ar
    43    19    10    1
    44     9     1    1
    45    18    12    1
    46     9     4   ar
    47    29    24   ar
    48    36    31   ar
    49    41    37   ar
    50    41    42    1
    51    11    20    1
@<TRIPOS>MOLECULE
*****
 45 51 0 0 0
SMALL
GASTEIGER

@<TRIPOS>ATOM
      1 C         -26.9696   48.9810   -8.7751 C.3     1  UNL1        0.0817
      2 C         -25.4614   49.0566   -8.4557 C.3     1  UNL1        0.0252
      3 C         -25.2957   48.5411   -7.0129 C.3     1  UNL1        0.0278
      4 C         -26.6835   48.4936   -6.4881 C.ar    1  UNL1       -0.0248
      5 C         -27.0692   48.1883   -5.1857 C.ar    1  UNL1       -0.0048
      6 C         -28.4373   48.1928   -4.8549 C.ar    1  UNL1       -0.0042
      7 C         -29.4137   48.4886   -5.8540 C.ar    1  UNL1       -0.0228
      8 C         -28.9762   48.7909   -7.1648 C.ar    1  UNL1       -0.0076
      9 C         -27.6118   48.7882   -7.4511 C.ar    1  UNL1       -0.0120
     10 C         -26.9219   51.4227   -9.4653 C.3     1  UNL1        0.1158
     11 N         -27.6263   52.3404  -10.1723 N.3     1  UNL1       -0.2851
     12 C         -28.6398   51.6241  -10.6795 C.3     1  UNL1        0.0910
     13 C         -29.6743   52.0962  -11.4698 C.3     1  UNL1        0.1018
     14 C         -30.6419   51.1719  -11.8833 C.3     1  UNL1        0.3136
     15 N         -30.5481   49.8398  -11.5393 N.am    1  UNL1       -0.1294
     16 C         -29.5361   49.4017  -10.7072 C.2     1  UNL1        0.4047
     17 O         -29.4932   48.2015  -10.3306 O.2     1  UNL1       -0.2174
     18 C         -28.5598   50.3217  -10.2896 C.3     1  UNL1        0.2038
     19 N         -27.4649   50.1685   -9.5024 N.3     1  UNL1       -0.2473
     20 H         -27.0568   52.7454  -10.9154 H       1  UNL1        0.1244
     21 C         -24.5450   52.1678   -9.6238 C.3     1  UNL1        0.0029
     22 C         -25.6959   51.8147   -8.6877 C.3     1  UNL1        0.0326
     23 C         -31.5837   48.9061  -12.0250 C.3     1  UNL1        0.3394
     24 C         -31.0867   48.0441  -13.1719 C.ar    1  UNL1        0.0505
     25 C         -30.7070   48.6754  -14.3711 C.ar    1  UNL1        0.0021
     26 C         -30.2465   47.9284  -15.4559 C.ar    1  UNL1       -0.0001
     27 C         -30.1570   46.5413  -15.3617 C.ar    1  UNL1       -0.0003
     28 C         -30.5326   45.8947  -14.1839 C.ar    1  UNL1       -0.0044
     29 C         -31.0151   46.6275  -13.0851 C.ar    1  UNL1       -0.0193
     30 C         -31.3644   45.8812  -11.8248 C.3     1  UNL1        0.0309
     31 C         -28.8190   47.8433   -3.4711 C.ar    1  UNL1        0.0027
     32 C         -29.7622   48.6563   -2.8230 C.ar    1  UNL1        0.0001
     33 C         -30.1011   48.4233   -1.4901 C.ar    1  UNL1        0.0000
     34 C         -29.4992   47.3794   -0.7894 C.ar    1  UNL1        0.0001
     35 C         -28.5612   46.5598   -1.4206 C.ar    1  UNL1        0.0031
     36 C         -28.2111   46.7723   -2.7670 C.ar    1  UNL1        0.0371
     37 C         -27.2353   45.8575   -3.4085 C.ar    1  UNL1        0.1806
     38 N         -25.9128   45.8402   -3.1549 N.ar    1  UNL1       -0.1084
     39 N         -25.4147   44.9303   -3.9800 N.ar    1  UNL1       -0.0229
     40 N         -26.3844   44.4052   -4.7127 N.ar    1  UNL1       -0.0464
     41 N         -27.5286   44.9716   -4.3761 N.ar    1  UNL1       -0.2388
     42 H         -28.4579   44.7434   -4.7928 H       1  UNL1        0.1923
     43 C         -30.9060   48.5001   -5.5400 C.3     1  UNL1        0.0223
     44 C         -31.5840   49.7120   -6.1849 C.3     1  UNL1        0.0047
     45 C         -31.5840   47.1922   -5.9690 C.3     1  UNL1        0.0047
@<TRIPOS>BOND
     1    21    22    1
     2    22    10    1
     3    10    11    1
     4    11    12    1
     5    12    13    1
     6    13    14    1
     7    14    15    1
     8    15    23    1
     9    23    24    1
    10    24    25   ar
    11    25    26   ar
    12    26    27   ar
    13    27    28   ar
    14    28    29   ar
    15    29    30    1
    16    15    16    1
    17    16    17    2
    18    16    18    1
    19    18    19    1
    20    19     1    1
    21     1     2    1
    22     2     3    1
    23     3     4    1
    24     4     5   ar
    25     5     6   ar
    26     6    31    1
    27    31    32   ar
    28    32    33   ar
    29    33    34   ar
    30    34    35   ar
    31    35    36   ar
    32    36    37    1
    33    37    38   ar
    34    38    39   ar
    35    39    40   ar
    36    40    41   ar
    37     6     7   ar
    38     7    43    1
    39    43    44    1
    40    43    45    1
    41     7     8   ar
    42     8     9   ar
    43    19    10    1
    44     9     1    1
    45    18    12    1
    46     9     4   ar
    47    29    24   ar
    48    36    31   ar
    49    41    37   ar
    50    41    42    1
    51    11    20    1
