@<TRIPOS>MOLECULE
*****
 61 65 0 0 0
SMALL
GASTEIGER

@<TRIPOS>ATOM
      1 C         -19.8892   -8.2940   -9.1416 C.ar    1  UNL1        0.0993
      2 C         -19.8120   -8.2715   -7.7404 C.ar    1  UNL1        0.0235
      3 C         -18.9789   -9.1685   -7.0504 C.ar    1  UNL1        0.0548
      4 C         -18.1797  -10.0579   -7.7861 C.ar    1  UNL1        0.0077
      5 C         -18.2388  -10.0725   -9.1796 C.ar    1  UNL1        0.0390
      6 C         -19.1117   -9.2113   -9.8666 C.ar    1  UNL1        0.1598
      7 C         -18.9308   -9.1488   -5.5694 C.2     1  UNL1        0.2458
      8 O         -18.6715  -10.2163   -4.9512 O.2     1  UNL1       -0.2701
      9 N         -19.1492   -7.9234   -4.8418 N.am    1  UNL1       -0.3040
     10 H         -19.1414   -7.0344   -5.3917 H       1  UNL1        0.1496
     11 C         -19.3590   -7.8333   -3.3831 C.3     1  UNL1        0.0572
     12 C         -19.2921   -6.3633   -2.9250 C.3     1  UNL1        0.0196
     13 C         -20.7166   -8.4537   -2.9993 C.3     1  UNL1        0.0196
     14 C         -18.2419   -8.6197   -2.6659 C.3     1  UNL1        0.0196
     15 N         -20.7651   -7.3943   -9.8321 N.pl3   1  UNL1       -0.2120
     16 H         -20.6269   -7.2455  -10.8565 H       1  UNL1        0.1738
     17 S         -22.3138   -6.9786   -9.1740 S.O2    1  UNL1        0.0742
     18 O         -22.2052   -5.6786   -8.4279 O.2     1  UNL1       -0.1499
     19 O         -22.7334   -8.0131   -8.1691 O.2     1  UNL1       -0.1499
     20 C         -24.5982   -7.7111  -10.6381 C.ar    1  UNL1       -0.0031
     21 C         -25.4253   -7.6163  -11.7756 C.ar    1  UNL1       -0.0072
     22 C         -25.2593   -6.5952  -12.7119 C.ar    1  UNL1       -0.0219
     23 C         -24.2114   -5.6899  -12.5593 C.ar    1  UNL1        0.0085
     24 C         -23.3368   -5.7827  -11.4753 C.ar    1  UNL1        0.0759
     25 CL        -22.1097   -4.5236  -11.3657 Cl      1  UNL1       -0.0809
     26 C         -23.4855   -6.8200  -10.5161 C.ar    1  UNL1        0.1316
     27 C         -26.4285   -8.8771   -9.2988 C.3     1  UNL1        0.0047
     28 C         -24.9231   -8.7870   -9.6008 C.3     1  UNL1        0.0237
     29 C         -24.3813  -10.1484  -10.0505 C.3     1  UNL1        0.0047
     30 C         -26.1739   -6.5025  -13.9039 C.3     1  UNL1        0.0224
     31 C         -27.4874   -5.7706  -13.6545 C.3     1  UNL1        0.0047
     32 C         -26.3847   -5.0945  -14.4475 C.3     1  UNL1        0.0047
     33 O         -19.2217   -9.2515  -11.2650 O.3     1  UNL1       -0.4513
     34 C         -20.4396   -9.3416  -11.9505 C.ar    1  UNL1        0.1580
     35 C         -20.8522   -8.2597  -12.7345 C.ar    1  UNL1        0.0677
     36 C         -22.0327   -8.3330  -13.4795 C.ar    1  UNL1        0.1398
     37 F         -22.3729   -7.2955  -14.2855 F       1  UNL1       -0.2044
     38 C         -22.8394   -9.4822  -13.4118 C.ar    1  UNL1        0.0175
     39 C         -22.4498  -10.5474  -12.5857 C.ar    1  UNL1        0.0130
     40 C         -21.2577  -10.4857  -11.8595 C.ar    1  UNL1        0.0919
     41 CL        -20.8357  -11.8443  -10.8271 Cl      1  UNL1       -0.0791
     42 C         -24.0408   -9.6387  -14.3079 C.3     1  UNL1        0.1382
     43 C         -23.6957  -10.4504  -15.5216 C.2     1  UNL1        0.3234
     44 O         -23.0872   -9.9040  -16.4813 O.2     1  UNL1       -0.2497
     45 O         -24.0956  -11.7907  -15.6018 O.3     1  UNL1       -0.4215
     46 C         -23.6102  -12.7055  -16.5838 C.3     1  UNL1        0.3207
     47 O         -24.4981  -13.8038  -16.7581 O.3     1  UNL1       -0.3070
     48 C         -24.5732  -14.6669  -15.6275 C.3     1  UNL1        0.2456
     49 C         -23.1882  -15.2056  -15.1845 C.3     1  UNL1        0.1781
     50 O         -22.7273  -16.1133  -16.1540 O.3     1  UNL1       -0.3790
     51 C         -22.1657  -14.0655  -15.0096 C.3     1  UNL1        0.1733
     52 O         -22.4548  -13.3154  -13.8580 O.3     1  UNL1       -0.3793
     53 C         -22.1754  -13.1474  -16.2372 C.3     1  UNL1        0.2106
     54 O         -21.6028  -13.8190  -17.3308 O.3     1  UNL1       -0.3766
     55 H         -22.0040  -16.6469  -15.7317 H       1  UNL1        0.2106
     56 H         -22.1614  -13.8570  -13.0792 H       1  UNL1        0.2105
     57 H         -21.3414  -13.1254  -17.9913 H       1  UNL1        0.2107
     58 C         -25.4146  -14.0768  -14.5193 C.2     1  UNL1        0.3439
     59 O         -25.2855  -14.4628  -13.3262 O.2     1  UNL1       -0.2475
     60 O         -26.4075  -13.1551  -14.8360 O.3     1  UNL1       -0.4785
     61 H         -27.0004  -12.7619  -14.1149 H       1  UNL1        0.2951
@<TRIPOS>BOND
     1    27    28    1
     2    28    29    1
     3    28    20    1
     4    20    21   ar
     5    21    22   ar
     6    22    30    1
     7    30    31    1
     8    31    32    1
     9    22    23   ar
    10    23    24   ar
    11    24    25    1
    12    24    26   ar
    13    26    17    1
    14    17    18    2
    15    17    19    2
    16    17    15    1
    17    15     1    1
    18     1     2   ar
    19     2     3   ar
    20     3     7    1
    21     7     8    2
    22     7     9   am
    23     9    11    1
    24    11    12    1
    25    11    13    1
    26    11    14    1
    27     3     4   ar
    28     4     5   ar
    29     5     6   ar
    30     6    33    1
    31    33    34    1
    32    34    35   ar
    33    35    36   ar
    34    36    37    1
    35    36    38   ar
    36    38    42    1
    37    42    43    1
    38    43    44    2
    39    43    45    1
    40    45    46    1
    41    46    47    1
    42    47    48    1
    43    48    58    1
    44    58    59    2
    45    58    60    1
    46    48    49    1
    47    49    50    1
    48    49    51    1
    49    51    52    1
    50    51    53    1
    51    53    54    1
    52    38    39   ar
    53    39    40   ar
    54    40    41    1
    55    26    20   ar
    56     6     1   ar
    57    40    34   ar
    58    32    30    1
    59    53    46    1
    60    15    16    1
    61     9    10    1
    62    60    61    1
    63    50    55    1
    64    52    56    1
    65    54    57    1
@<TRIPOS>MOLECULE
*****
 61 65 0 0 0
SMALL
GASTEIGER

@<TRIPOS>ATOM
      1 C         -19.7237   -8.4375   -8.9932 C.ar    1  UNL1        0.0993
      2 C         -19.7211   -8.3767   -7.5910 C.ar    1  UNL1        0.0235
      3 C         -18.9328   -9.2593   -6.8331 C.ar    1  UNL1        0.0548
      4 C         -18.1022  -10.1735   -7.5004 C.ar    1  UNL1        0.0077
      5 C         -18.0869  -10.2263   -8.8942 C.ar    1  UNL1        0.0390
      6 C         -18.9155   -9.3792   -9.6502 C.ar    1  UNL1        0.1598
      7 C         -18.9636   -9.1989   -5.3528 C.2     1  UNL1        0.2458
      8 O         -18.8781  -10.2706   -4.6946 O.2     1  UNL1       -0.2701
      9 N         -19.0619   -7.9332   -4.6694 N.am    1  UNL1       -0.3040
     10 H         -18.9098   -7.0703   -5.2394 H       1  UNL1        0.1496
     11 C         -19.3378   -7.7710   -3.2280 C.3     1  UNL1        0.0572
     12 C         -20.7300   -8.3362   -2.8850 C.3     1  UNL1        0.0196
     13 C         -18.2515   -8.4772   -2.3933 C.3     1  UNL1        0.0196
     14 C         -19.3216   -6.2680   -2.8800 C.3     1  UNL1        0.0196
     15 N         -20.5547   -7.5520   -9.7539 N.pl3   1  UNL1       -0.2120
     16 H         -20.4412   -7.5236  -10.7916 H       1  UNL1        0.1738
     17 S         -22.0455   -6.9519   -9.1043 S.O2    1  UNL1        0.0742
     18 O         -21.8069   -5.6134   -8.4641 O.2     1  UNL1       -0.1499
     19 O         -22.5293   -7.8654   -8.0146 O.2     1  UNL1       -0.1499
     20 C         -24.3391   -7.6903  -10.5508 C.ar    1  UNL1       -0.0031
     21 C         -25.1773   -7.5947  -11.6802 C.ar    1  UNL1       -0.0072
     22 C         -25.0257   -6.5682  -12.6130 C.ar    1  UNL1       -0.0219
     23 C         -23.9815   -5.6578  -12.4657 C.ar    1  UNL1        0.0085
     24 C         -23.0965   -5.7508  -11.3902 C.ar    1  UNL1        0.0759
     25 CL        -21.8755   -4.4853  -11.2858 Cl      1  UNL1       -0.0809
     26 C         -23.2304   -6.7935  -10.4348 C.ar    1  UNL1        0.1316
     27 C         -26.1590   -8.9904   -9.3258 C.3     1  UNL1        0.0047
     28 C         -24.6484   -8.7730   -9.5159 C.3     1  UNL1        0.0237
     29 C         -23.9577  -10.0887   -9.8914 C.3     1  UNL1        0.0047
     30 C         -25.9518   -6.4749  -13.7960 C.3     1  UNL1        0.0224
     31 C         -27.3712   -6.0249  -13.4709 C.3     1  UNL1        0.0047
     32 C         -26.4105   -5.0647  -14.1468 C.3     1  UNL1        0.0047
     33 O         -18.9510   -9.4574  -11.0509 O.3     1  UNL1       -0.4513
     34 C         -20.1278   -9.3916  -11.8073 C.ar    1  UNL1        0.1580
     35 C         -20.4029   -8.2225  -12.5235 C.ar    1  UNL1        0.0677
     36 C         -21.5374   -8.1387  -13.3358 C.ar    1  UNL1        0.1398
     37 F         -21.7426   -7.0182  -14.0736 F       1  UNL1       -0.2044
     38 C         -22.4368   -9.2168  -13.4049 C.ar    1  UNL1        0.0175
     39 C         -22.1858  -10.3705  -12.6467 C.ar    1  UNL1        0.0130
     40 C         -21.0395  -10.4654  -11.8534 C.ar    1  UNL1        0.0919
     41 CL        -20.7926  -11.9289  -10.9116 Cl      1  UNL1       -0.0791
     42 C         -23.5896   -9.2025  -14.3753 C.3     1  UNL1        0.1382
     43 C         -24.5345  -10.3335  -14.0937 C.2     1  UNL1        0.3234
     44 O         -25.5023  -10.1522  -13.3062 O.2     1  UNL1       -0.2497
     45 O         -24.3062  -11.5923  -14.6646 O.3     1  UNL1       -0.4215
     46 C         -24.1789  -12.7951  -13.9071 C.3     1  UNL1        0.3207
     47 O         -22.8230  -13.2198  -13.8259 O.3     1  UNL1       -0.3070
     48 C         -22.2800  -13.6493  -15.0707 C.3     1  UNL1        0.2456
     49 C         -23.1178  -14.7681  -15.7425 C.3     1  UNL1        0.1781
     50 O         -22.9744  -15.9490  -14.9934 O.3     1  UNL1       -0.3790
     51 C         -24.6082  -14.3847  -15.8315 C.3     1  UNL1        0.1733
     52 O         -24.8049  -13.3904  -16.8037 O.3     1  UNL1       -0.3793
     53 C         -25.1118  -13.8827  -14.4735 C.3     1  UNL1        0.2106
     54 O         -25.1935  -14.9603  -13.5751 O.3     1  UNL1       -0.3766
     55 H         -23.2702  -16.6987  -15.5736 H       1  UNL1        0.2106
     56 H         -24.7450  -13.8361  -17.6890 H       1  UNL1        0.2105
     57 H         -25.7973  -14.6780  -12.8393 H       1  UNL1        0.2107
     58 C         -21.9310  -12.4847  -15.9685 C.2     1  UNL1        0.3439
     59 O         -21.2685  -11.5033  -15.5358 O.2     1  UNL1       -0.2475
     60 O         -22.4238  -12.4567  -17.2693 O.3     1  UNL1       -0.4785
     61 H         -22.2237  -11.6768  -17.8839 H       1  UNL1        0.2951
@<TRIPOS>BOND
     1    27    28    1
     2    28    29    1
     3    28    20    1
     4    20    21   ar
     5    21    22   ar
     6    22    30    1
     7    30    31    1
     8    31    32    1
     9    22    23   ar
    10    23    24   ar
    11    24    25    1
    12    24    26   ar
    13    26    17    1
    14    17    18    2
    15    17    19    2
    16    17    15    1
    17    15     1    1
    18     1     2   ar
    19     2     3   ar
    20     3     7    1
    21     7     8    2
    22     7     9   am
    23     9    11    1
    24    11    12    1
    25    11    13    1
    26    11    14    1
    27     3     4   ar
    28     4     5   ar
    29     5     6   ar
    30     6    33    1
    31    33    34    1
    32    34    35   ar
    33    35    36   ar
    34    36    37    1
    35    36    38   ar
    36    38    42    1
    37    42    43    1
    38    43    44    2
    39    43    45    1
    40    45    46    1
    41    46    47    1
    42    47    48    1
    43    48    58    1
    44    58    59    2
    45    58    60    1
    46    48    49    1
    47    49    50    1
    48    49    51    1
    49    51    52    1
    50    51    53    1
    51    53    54    1
    52    38    39   ar
    53    39    40   ar
    54    40    41    1
    55    26    20   ar
    56     6     1   ar
    57    40    34   ar
    58    32    30    1
    59    53    46    1
    60    15    16    1
    61     9    10    1
    62    60    61    1
    63    50    55    1
    64    52    56    1
    65    54    57    1
@<TRIPOS>MOLECULE
*****
 61 65 0 0 0
SMALL
GASTEIGER

@<TRIPOS>ATOM
      1 C         -25.3922   -7.4493  -13.5908 C.ar    1  UNL1        0.0993
      2 C         -25.9081   -6.5619  -14.5480 C.ar    1  UNL1        0.0235
      3 C         -26.5624   -5.3813  -14.1571 C.ar    1  UNL1        0.0548
      4 C         -26.6481   -5.0716  -12.7904 C.ar    1  UNL1        0.0077
      5 C         -26.1212   -5.9409  -11.8353 C.ar    1  UNL1        0.0390
      6 C         -25.5140   -7.1472  -12.2250 C.ar    1  UNL1        0.1598
      7 C         -27.1251   -4.4696  -15.1809 C.2     1  UNL1        0.2458
      8 O         -26.4371   -3.4880  -15.5710 O.2     1  UNL1       -0.2701
      9 N         -28.4289   -4.7125  -15.7464 N.am    1  UNL1       -0.3040
     10 H         -28.8638   -5.6446  -15.5594 H       1  UNL1        0.1496
     11 C         -29.1783   -3.7543  -16.5832 C.3     1  UNL1        0.0572
     12 C         -30.0320   -2.8266  -15.6967 C.3     1  UNL1        0.0196
     13 C         -28.2072   -2.9263  -17.4474 C.3     1  UNL1        0.0196
     14 C         -30.1210   -4.5372  -17.5208 C.3     1  UNL1        0.0196
     15 N         -24.7537   -8.6646  -14.0014 N.pl3   1  UNL1       -0.2120
     16 H         -25.3471   -9.4554  -14.3377 H       1  UNL1        0.1738
     17 S         -23.0806   -8.6827  -14.4542 S.O2    1  UNL1        0.0742
     18 O         -22.5251   -7.2892  -14.3640 O.2     1  UNL1       -0.1499
     19 O         -22.9472   -9.1027  -15.8901 O.2     1  UNL1       -0.1499
     20 C         -22.5387  -11.1537  -13.2300 C.ar    1  UNL1       -0.0031
     21 C         -21.8881  -11.9398  -12.2573 C.ar    1  UNL1       -0.0072
     22 C         -20.8338  -11.4310  -11.4981 C.ar    1  UNL1       -0.0219
     23 C         -20.4595  -10.0980  -11.6526 C.ar    1  UNL1        0.0085
     24 C         -21.1150   -9.2713  -12.5667 C.ar    1  UNL1        0.0759
     25 CL        -20.4833   -7.6336  -12.7148 Cl      1  UNL1       -0.0809
     26 C         -22.1955   -9.7694  -13.3428 C.ar    1  UNL1        0.1316
     27 C         -23.0126  -12.9015  -15.0255 C.3     1  UNL1        0.0047
     28 C         -23.6027  -11.8233  -14.1010 C.3     1  UNL1        0.0237
     29 C         -24.7180  -12.4120  -13.2300 C.3     1  UNL1        0.0047
     30 C         -20.1395  -12.3009  -10.4846 C.3     1  UNL1        0.0224
     31 C         -19.0619  -13.2179  -11.0511 C.3     1  UNL1        0.0047
     32 C         -18.6656  -11.9833  -10.2633 C.3     1  UNL1        0.0047
     33 O         -25.0275   -8.0569  -11.2737 O.3     1  UNL1       -0.4513
     34 C         -23.8327   -7.8813  -10.5646 C.ar    1  UNL1        0.1580
     35 C         -23.0516   -6.7524  -10.8312 C.ar    1  UNL1        0.0677
     36 C         -21.8821   -6.5113  -10.1045 C.ar    1  UNL1        0.1398
     37 F         -21.1810   -5.3727  -10.3364 F       1  UNL1       -0.2044
     38 C         -21.4575   -7.4276   -9.1268 C.ar    1  UNL1        0.0175
     39 C         -22.2156   -8.5855   -8.8950 C.ar    1  UNL1        0.0130
     40 C         -23.3979   -8.8157   -9.6032 C.ar    1  UNL1        0.0919
     41 CL        -24.2916  -10.2946   -9.2811 Cl      1  UNL1       -0.0791
     42 C         -20.2788   -7.1221   -8.2390 C.3     1  UNL1        0.1382
     43 C         -19.5799   -8.3856   -7.8312 C.2     1  UNL1        0.3234
     44 O         -19.5622   -9.3680   -8.6215 O.2     1  UNL1       -0.2497
     45 O         -18.9988   -8.4827   -6.5601 O.3     1  UNL1       -0.4215
     46 C         -19.6877   -8.1774   -5.3481 C.3     1  UNL1        0.3207
     47 O         -19.1527   -7.0170   -4.7217 O.3     1  UNL1       -0.3070
     48 C         -17.8308   -7.1922   -4.2209 C.3     1  UNL1        0.2456
     49 C         -17.7072   -8.3919   -3.2461 C.3     1  UNL1        0.1781
     50 O         -18.3796   -8.0736   -2.0533 O.3     1  UNL1       -0.3790
     51 C         -18.3011   -9.6787   -3.8522 C.3     1  UNL1        0.1733
     52 O         -17.4697  -10.1745   -4.8698 O.3     1  UNL1       -0.3793
     53 C         -19.6994   -9.4057   -4.4180 C.3     1  UNL1        0.2106
     54 O         -20.6018   -9.1985   -3.3608 O.3     1  UNL1       -0.3766
     55 H         -18.0577   -8.7079   -1.3603 H       1  UNL1        0.2106
     56 H         -16.6920  -10.6022   -4.4247 H       1  UNL1        0.2105
     57 H         -21.5138   -9.3372   -3.7279 H       1  UNL1        0.2107
     58 C         -16.7978   -7.1546   -5.3235 C.2     1  UNL1        0.3439
     59 O         -15.6844   -7.7318   -5.1942 O.2     1  UNL1       -0.2475
     60 O         -17.0470   -6.3975   -6.4638 O.3     1  UNL1       -0.4785
     61 H         -16.3615   -6.3369   -7.2072 H       1  UNL1        0.2951
@<TRIPOS>BOND
     1    27    28    1
     2    28    29    1
     3    28    20    1
     4    20    21   ar
     5    21    22   ar
     6    22    30    1
     7    30    31    1
     8    31    32    1
     9    22    23   ar
    10    23    24   ar
    11    24    25    1
    12    24    26   ar
    13    26    17    1
    14    17    18    2
    15    17    19    2
    16    17    15    1
    17    15     1    1
    18     1     2   ar
    19     2     3   ar
    20     3     7    1
    21     7     8    2
    22     7     9   am
    23     9    11    1
    24    11    12    1
    25    11    13    1
    26    11    14    1
    27     3     4   ar
    28     4     5   ar
    29     5     6   ar
    30     6    33    1
    31    33    34    1
    32    34    35   ar
    33    35    36   ar
    34    36    37    1
    35    36    38   ar
    36    38    42    1
    37    42    43    1
    38    43    44    2
    39    43    45    1
    40    45    46    1
    41    46    47    1
    42    47    48    1
    43    48    58    1
    44    58    59    2
    45    58    60    1
    46    48    49    1
    47    49    50    1
    48    49    51    1
    49    51    52    1
    50    51    53    1
    51    53    54    1
    52    38    39   ar
    53    39    40   ar
    54    40    41    1
    55    26    20   ar
    56     6     1   ar
    57    40    34   ar
    58    32    30    1
    59    53    46    1
    60    15    16    1
    61     9    10    1
    62    60    61    1
    63    50    55    1
    64    52    56    1
    65    54    57    1
@<TRIPOS>MOLECULE
*****
 61 65 0 0 0
SMALL
GASTEIGER

@<TRIPOS>ATOM
      1 C         -25.3106   -7.4906  -13.4385 C.ar    1  UNL1        0.0993
      2 C         -25.7965   -6.6110  -14.4183 C.ar    1  UNL1        0.0235
      3 C         -26.5725   -5.4946  -14.0632 C.ar    1  UNL1        0.0548
      4 C         -26.8136   -5.2383  -12.7041 C.ar    1  UNL1        0.0077
      5 C         -26.3180   -6.0990  -11.7247 C.ar    1  UNL1        0.0390
      6 C         -25.5869   -7.2444  -12.0840 C.ar    1  UNL1        0.1598
      7 C         -27.1002   -4.5920  -15.1133 C.2     1  UNL1        0.2458
      8 O         -26.3407   -3.7132  -15.6033 O.2     1  UNL1       -0.2701
      9 N         -28.4533   -4.7301  -15.5913 N.am    1  UNL1       -0.3040
     10 H         -28.9685   -5.5985  -15.3204 H       1  UNL1        0.1496
     11 C         -29.1505   -3.7505  -16.4482 C.3     1  UNL1        0.0572
     12 C         -30.0789   -2.8629  -15.5964 C.3     1  UNL1        0.0196
     13 C         -28.1283   -2.8831  -17.2087 C.3     1  UNL1        0.0196
     14 C         -30.0114   -4.5091  -17.4797 C.3     1  UNL1        0.0196
     15 N         -24.5457   -8.6421  -13.8156 N.pl3   1  UNL1       -0.2120
     16 H         -25.0452   -9.4704  -14.2094 H       1  UNL1        0.1738
     17 S         -22.8467   -8.5169  -14.1356 S.O2    1  UNL1        0.0742
     18 O         -22.3863   -7.1170  -13.8411 O.2     1  UNL1       -0.1499
     19 O         -22.5857   -8.7533  -15.5957 O.2     1  UNL1       -0.1499
     20 C         -22.3571  -11.0598  -13.0435 C.ar    1  UNL1       -0.0031
     21 C         -21.7158  -11.9106  -12.1205 C.ar    1  UNL1       -0.0072
     22 C         -20.6382  -11.4689  -11.3521 C.ar    1  UNL1       -0.0219
     23 C         -20.2295  -10.1403  -11.4455 C.ar    1  UNL1        0.0085
     24 C         -20.8738   -9.2517  -12.3079 C.ar    1  UNL1        0.0759
     25 CL        -20.1993   -7.6261  -12.3834 Cl      1  UNL1       -0.0809
     26 C         -21.9775   -9.6811  -13.0923 C.ar    1  UNL1        0.1316
     27 C         -22.9068  -12.7235  -14.8964 C.3     1  UNL1        0.0047
     28 C         -23.4502  -11.6562  -13.9315 C.3     1  UNL1        0.0237
     29 C         -24.5841  -12.2310  -13.0754 C.3     1  UNL1        0.0047
     30 C         -19.9550  -12.4067  -10.3931 C.3     1  UNL1        0.0224
     31 C         -18.8991  -13.3117  -11.0169 C.3     1  UNL1        0.0047
     32 C         -18.4738  -12.1304  -10.1652 C.3     1  UNL1        0.0047
     33 O         -25.1279   -8.1482  -11.1135 O.3     1  UNL1       -0.4513
     34 C         -23.9216   -8.0011  -10.4175 C.ar    1  UNL1        0.1580
     35 C         -23.1620   -6.8454  -10.6244 C.ar    1  UNL1        0.0677
     36 C         -21.9815   -6.6345   -9.9060 C.ar    1  UNL1        0.1398
     37 F         -21.3012   -5.4726  -10.0760 F       1  UNL1       -0.2044
     38 C         -21.5245   -7.6063   -8.9989 C.ar    1  UNL1        0.0175
     39 C         -22.2615   -8.7882   -8.8292 C.ar    1  UNL1        0.0130
     40 C         -23.4545   -8.9897   -9.5281 C.ar    1  UNL1        0.0919
     41 CL        -24.3208  -10.5000   -9.2868 Cl      1  UNL1       -0.0791
     42 C         -20.3325   -7.3415   -8.1159 C.3     1  UNL1        0.1382
     43 C         -19.6786   -8.6285   -7.7069 C.2     1  UNL1        0.3234
     44 O         -19.2855   -9.4342   -8.5936 O.2     1  UNL1       -0.2497
     45 O         -19.5564   -8.9484   -6.3484 O.3     1  UNL1       -0.4215
     46 C         -18.3097   -9.2079   -5.7041 C.3     1  UNL1        0.3207
     47 O         -18.4837   -9.9829   -4.5233 O.3     1  UNL1       -0.3070
     48 C         -19.1664   -9.2945   -3.4797 C.3     1  UNL1        0.2456
     49 C         -18.4952   -7.9483   -3.1030 C.3     1  UNL1        0.1781
     50 O         -17.2749   -8.2184   -2.4595 O.3     1  UNL1       -0.3790
     51 C         -18.2464   -7.0712   -4.3459 C.3     1  UNL1        0.1733
     52 O         -19.4565   -6.5504   -4.8328 O.3     1  UNL1       -0.3793
     53 C         -17.5585   -7.8877   -5.4459 C.3     1  UNL1        0.2106
     54 O         -16.2310   -8.1564   -5.0709 O.3     1  UNL1       -0.3766
     55 H         -17.0068   -7.3882   -1.9850 H       1  UNL1        0.2106
     56 H         -19.7214   -5.8147   -4.2208 H       1  UNL1        0.2105
     57 H         -15.7394   -8.3955   -5.8997 H       1  UNL1        0.2107
     58 C         -20.6550   -9.2195   -3.7297 C.2     1  UNL1        0.3439
     59 O         -21.4281  -10.1380   -3.3451 O.2     1  UNL1       -0.2475
     60 O         -21.1676   -8.1609   -4.4728 O.3     1  UNL1       -0.4785
     61 H         -22.1585   -8.0993   -4.6742 H       1  UNL1        0.2951
@<TRIPOS>BOND
     1    27    28    1
     2    28    29    1
     3    28    20    1
     4    20    21   ar
     5    21    22   ar
     6    22    30    1
     7    30    31    1
     8    31    32    1
     9    22    23   ar
    10    23    24   ar
    11    24    25    1
    12    24    26   ar
    13    26    17    1
    14    17    18    2
    15    17    19    2
    16    17    15    1
    17    15     1    1
    18     1     2   ar
    19     2     3   ar
    20     3     7    1
    21     7     8    2
    22     7     9   am
    23     9    11    1
    24    11    12    1
    25    11    13    1
    26    11    14    1
    27     3     4   ar
    28     4     5   ar
    29     5     6   ar
    30     6    33    1
    31    33    34    1
    32    34    35   ar
    33    35    36   ar
    34    36    37    1
    35    36    38   ar
    36    38    42    1
    37    42    43    1
    38    43    44    2
    39    43    45    1
    40    45    46    1
    41    46    47    1
    42    47    48    1
    43    48    58    1
    44    58    59    2
    45    58    60    1
    46    48    49    1
    47    49    50    1
    48    49    51    1
    49    51    52    1
    50    51    53    1
    51    53    54    1
    52    38    39   ar
    53    39    40   ar
    54    40    41    1
    55    26    20   ar
    56     6     1   ar
    57    40    34   ar
    58    32    30    1
    59    53    46    1
    60    15    16    1
    61     9    10    1
    62    60    61    1
    63    50    55    1
    64    52    56    1
    65    54    57    1
@<TRIPOS>MOLECULE
*****
 61 65 0 0 0
SMALL
GASTEIGER

@<TRIPOS>ATOM
      1 C         -20.1392   -8.7170   -8.4669 C.ar    1  UNL1        0.0993
      2 C         -20.2461   -8.5393   -7.0789 C.ar    1  UNL1        0.0235
      3 C         -19.3105   -9.1176   -6.2043 C.ar    1  UNL1        0.0548
      4 C         -18.2305   -9.8359   -6.7417 C.ar    1  UNL1        0.0077
      5 C         -18.1090  -10.0005   -8.1215 C.ar    1  UNL1        0.0390
      6 C         -19.0745   -9.4667   -8.9923 C.ar    1  UNL1        0.1598
      7 C         -19.4547   -8.9423   -4.7399 C.2     1  UNL1        0.2458
      8 O         -20.0370   -9.8380   -4.0707 O.2     1  UNL1       -0.2701
      9 N         -18.9146   -7.7794   -4.0807 N.am    1  UNL1       -0.3040
     10 H         -18.2580   -7.1809   -4.6316 H       1  UNL1        0.1496
     11 C         -19.2029   -7.3889   -2.6863 C.3     1  UNL1        0.0572
     12 C         -19.0564   -5.8638   -2.5189 C.3     1  UNL1        0.0196
     13 C         -20.6223   -7.8385   -2.2882 C.3     1  UNL1        0.0196
     14 C         -18.1902   -8.0824   -1.7514 C.3     1  UNL1        0.0196
     15 N         -21.1166   -8.1473   -9.3464 N.pl3   1  UNL1       -0.2120
     16 H         -20.8232   -7.8637  -10.3076 H       1  UNL1        0.1738
     17 S         -22.8104   -8.3993   -9.0781 S.O2    1  UNL1        0.0742
     18 O         -23.1748   -7.9130   -7.7036 O.2     1  UNL1       -0.1499
     19 O         -23.1161   -9.8695   -9.1051 O.2     1  UNL1       -0.1499
     20 C         -23.2468   -6.2483  -10.8335 C.ar    1  UNL1       -0.0031
     21 C         -24.0634   -5.5163  -11.7192 C.ar    1  UNL1       -0.0072
     22 C         -25.2665   -6.0370  -12.1969 C.ar    1  UNL1       -0.0219
     23 C         -25.7071   -7.2760  -11.7370 C.ar    1  UNL1        0.0085
     24 C         -24.9536   -8.0081  -10.8177 C.ar    1  UNL1        0.0759
     25 CL        -25.5916   -9.5926  -10.3871 Cl      1  UNL1       -0.0809
     26 C         -23.7301   -7.4908  -10.3143 C.ar    1  UNL1        0.1316
     27 C         -21.3898   -4.6231  -11.4767 C.3     1  UNL1        0.0047
     28 C         -21.8887   -5.6567  -10.4529 C.3     1  UNL1        0.0237
     29 C         -21.9442   -5.0421   -9.0499 C.3     1  UNL1        0.0047
     30 C         -26.1061   -5.2444  -13.1627 C.3     1  UNL1        0.0224
     31 C         -26.0213   -5.6982  -14.6152 C.3     1  UNL1        0.0047
     32 C         -27.2593   -6.0129  -13.7967 C.3     1  UNL1        0.0047
     33 O         -18.9950   -9.6697  -10.3786 O.3     1  UNL1       -0.4513
     34 C         -20.0742   -9.5037  -11.2555 C.ar    1  UNL1        0.1580
     35 C         -20.2150   -8.2849  -11.9263 C.ar    1  UNL1        0.0677
     36 C         -21.2452   -8.1000  -12.8529 C.ar    1  UNL1        0.1398
     37 F         -21.3163   -6.9319  -13.5402 F       1  UNL1       -0.2044
     38 C         -22.1769   -9.1264  -13.0860 C.ar    1  UNL1        0.0175
     39 C         -22.0642  -10.3311  -12.3753 C.ar    1  UNL1        0.0130
     40 C         -21.0207  -10.5266  -11.4669 C.ar    1  UNL1        0.0919
     41 CL        -20.9462  -12.0500  -10.5932 Cl      1  UNL1       -0.0791
     42 C         -23.2103   -9.0013  -14.1757 C.3     1  UNL1        0.1382
     43 C         -24.2393  -10.0870  -14.0585 C.2     1  UNL1        0.3234
     44 O         -25.3098   -9.8624  -13.4314 O.2     1  UNL1       -0.2497
     45 O         -23.9824  -11.3534  -14.5998 O.3     1  UNL1       -0.4215
     46 C         -24.0036  -12.5602  -13.8383 C.3     1  UNL1        0.3207
     47 O         -22.7140  -13.1582  -13.7717 O.3     1  UNL1       -0.3070
     48 C         -22.2477  -13.6587  -15.0211 C.3     1  UNL1        0.2456
     49 C         -23.2329  -14.6604  -15.6773 C.3     1  UNL1        0.1781
     50 O         -23.2354  -15.8477  -14.9245 O.3     1  UNL1       -0.3790
     51 C         -24.6615  -14.0859  -15.7498 C.3     1  UNL1        0.1733
     52 O         -24.7390  -13.0774  -16.7242 O.3     1  UNL1       -0.3793
     53 C         -25.0778  -13.5183  -14.3880 C.3     1  UNL1        0.2106
     54 O         -25.2880  -14.5732  -13.4837 O.3     1  UNL1       -0.3766
     55 H         -23.6340  -16.5541  -15.4975 H       1  UNL1        0.2106
     56 H         -24.7492  -13.5298  -17.6080 H       1  UNL1        0.2105
     57 H         -25.8404  -14.2122  -12.7418 H       1  UNL1        0.2107
     58 C         -21.7610  -12.5524  -15.9285 C.2     1  UNL1        0.3439
     59 O         -21.8630  -12.6443  -17.1816 O.2     1  UNL1       -0.2475
     60 O         -21.1116  -11.4539  -15.3742 O.3     1  UNL1       -0.4785
     61 H         -20.7554  -10.7099  -15.9621 H       1  UNL1        0.2951
@<TRIPOS>BOND
     1    27    28    1
     2    28    29    1
     3    28    20    1
     4    20    21   ar
     5    21    22   ar
     6    22    30    1
     7    30    31    1
     8    31    32    1
     9    22    23   ar
    10    23    24   ar
    11    24    25    1
    12    24    26   ar
    13    26    17    1
    14    17    18    2
    15    17    19    2
    16    17    15    1
    17    15     1    1
    18     1     2   ar
    19     2     3   ar
    20     3     7    1
    21     7     8    2
    22     7     9   am
    23     9    11    1
    24    11    12    1
    25    11    13    1
    26    11    14    1
    27     3     4   ar
    28     4     5   ar
    29     5     6   ar
    30     6    33    1
    31    33    34    1
    32    34    35   ar
    33    35    36   ar
    34    36    37    1
    35    36    38   ar
    36    38    42    1
    37    42    43    1
    38    43    44    2
    39    43    45    1
    40    45    46    1
    41    46    47    1
    42    47    48    1
    43    48    58    1
    44    58    59    2
    45    58    60    1
    46    48    49    1
    47    49    50    1
    48    49    51    1
    49    51    52    1
    50    51    53    1
    51    53    54    1
    52    38    39   ar
    53    39    40   ar
    54    40    41    1
    55    26    20   ar
    56     6     1   ar
    57    40    34   ar
    58    32    30    1
    59    53    46    1
    60    15    16    1
    61     9    10    1
    62    60    61    1
    63    50    55    1
    64    52    56    1
    65    54    57    1
@<TRIPOS>MOLECULE
*****
 61 65 0 0 0
SMALL
GASTEIGER

@<TRIPOS>ATOM
      1 C         -19.8819   -8.5231   -9.5245 C.ar    1  UNL1        0.0993
      2 C         -19.5706   -8.4925   -8.1563 C.ar    1  UNL1        0.0235
      3 C         -18.7625   -9.4867   -7.5790 C.ar    1  UNL1        0.0548
      4 C         -18.2235  -10.4882   -8.4021 C.ar    1  UNL1        0.0077
      5 C         -18.5148  -10.5134   -9.7660 C.ar    1  UNL1        0.0390
      6 C         -19.3661   -9.5490  -10.3325 C.ar    1  UNL1        0.1598
      7 C         -18.4667   -9.4537   -6.1273 C.2     1  UNL1        0.2458
      8 O         -17.9614  -10.4719   -5.5823 O.2     1  UNL1       -0.2701
      9 N         -18.7253   -8.2674   -5.3499 N.am    1  UNL1       -0.3040
     10 H         -18.9338   -7.3884   -5.8760 H       1  UNL1        0.1496
     11 C         -18.6946   -8.2007   -3.8752 C.3     1  UNL1        0.0572
     12 C         -19.7568   -9.1437   -3.2770 C.3     1  UNL1        0.0196
     13 C         -17.2928   -8.5713   -3.3527 C.3     1  UNL1        0.0196
     14 C         -19.0163   -6.7585   -3.4313 C.3     1  UNL1        0.0196
     15 N         -20.7315   -7.5203  -10.0954 N.pl3   1  UNL1       -0.2120
     16 H         -20.6730   -7.3369  -11.1218 H       1  UNL1        0.1738
     17 S         -22.1711   -7.0033   -9.2800 S.O2    1  UNL1        0.0742
     18 O         -21.9335   -5.6572   -8.6554 O.2     1  UNL1       -0.1499
     19 O         -22.4841   -7.9465   -8.1539 O.2     1  UNL1       -0.1499
     20 C         -24.6272   -7.7817  -10.4025 C.ar    1  UNL1       -0.0031
     21 C         -25.5907   -7.7370  -11.4306 C.ar    1  UNL1       -0.0072
     22 C         -25.5369   -6.7705  -12.4355 C.ar    1  UNL1       -0.0219
     23 C         -24.4717   -5.8732  -12.4663 C.ar    1  UNL1        0.0085
     24 C         -23.4679   -5.9194  -11.4973 C.ar    1  UNL1        0.0759
     25 CL        -22.2279   -4.6736  -11.6128 Cl      1  UNL1       -0.0809
     26 C         -23.5016   -6.9011  -10.4710 C.ar    1  UNL1        0.1316
     27 C         -26.2934   -9.2332   -9.1297 C.3     1  UNL1        0.0047
     28 C         -24.8262   -8.7952   -9.2746 C.3     1  UNL1        0.0237
     29 C         -23.9181  -10.0128   -9.4795 C.3     1  UNL1        0.0047
     30 C         -26.5940   -6.7296  -13.5064 C.3     1  UNL1        0.0224
     31 C         -27.4499   -5.4686  -13.5209 C.3     1  UNL1        0.0047
     32 C         -26.3833   -5.6698  -14.5809 C.3     1  UNL1        0.0047
     33 O         -19.7114   -9.5926  -11.6920 O.3     1  UNL1       -0.4513
     34 C         -21.0084   -9.8354  -12.1611 C.ar    1  UNL1        0.1580
     35 C         -21.6092  -11.0647  -11.8728 C.ar    1  UNL1        0.0677
     36 C         -22.9233  -11.3233  -12.2734 C.ar    1  UNL1        0.1398
     37 F         -23.5047  -12.4975  -11.9197 F       1  UNL1       -0.2044
     38 C         -23.6382  -10.3629  -13.0097 C.ar    1  UNL1        0.0175
     39 C         -23.0168   -9.1493  -13.3417 C.ar    1  UNL1        0.0130
     40 C         -21.7121   -8.8793  -12.9210 C.ar    1  UNL1        0.0919
     41 CL        -20.9825   -7.3494  -13.3865 Cl      1  UNL1       -0.0791
     42 C         -25.0964  -10.5629  -13.3331 C.3     1  UNL1        0.1382
     43 C         -25.2559  -11.3394  -14.6070 C.2     1  UNL1        0.3234
     44 O         -26.4035  -11.4762  -15.1110 O.2     1  UNL1       -0.2497
     45 O         -24.1409  -11.9482  -15.1975 O.3     1  UNL1       -0.4215
     46 C         -24.0532  -12.2647  -16.5864 C.3     1  UNL1        0.3207
     47 O         -23.5974  -13.5974  -16.7903 O.3     1  UNL1       -0.3070
     48 C         -22.2439  -13.8077  -16.3998 C.3     1  UNL1        0.2456
     49 C         -21.2569  -12.8284  -17.0863 C.3     1  UNL1        0.1781
     50 O         -21.1712  -13.1582  -18.4502 O.3     1  UNL1       -0.3790
     51 C         -21.7116  -11.3636  -16.9316 C.3     1  UNL1        0.1733
     52 O         -21.5251  -10.9259  -15.6102 O.3     1  UNL1       -0.3793
     53 C         -23.1882  -11.2199  -17.3173 C.3     1  UNL1        0.2106
     54 O         -23.3273  -11.3699  -18.7077 O.3     1  UNL1       -0.3766
     55 H         -20.3495  -12.7259  -18.8024 H       1  UNL1        0.2106
     56 H         -20.5529  -10.7600  -15.4952 H       1  UNL1        0.2105
     57 H         -24.2025  -10.9718  -18.9552 H       1  UNL1        0.2107
     58 C         -22.0977  -13.9166  -14.8995 C.2     1  UNL1        0.3439
     59 O         -21.0287  -13.5799  -14.3221 O.2     1  UNL1       -0.2475
     60 O         -23.1292  -14.4790  -14.1543 O.3     1  UNL1       -0.4785
     61 H         -23.0469  -14.5846  -13.1502 H       1  UNL1        0.2951
@<TRIPOS>BOND
     1    27    28    1
     2    28    29    1
     3    28    20    1
     4    20    21   ar
     5    21    22   ar
     6    22    30    1
     7    30    31    1
     8    31    32    1
     9    22    23   ar
    10    23    24   ar
    11    24    25    1
    12    24    26   ar
    13    26    17    1
    14    17    18    2
    15    17    19    2
    16    17    15    1
    17    15     1    1
    18     1     2   ar
    19     2     3   ar
    20     3     7    1
    21     7     8    2
    22     7     9   am
    23     9    11    1
    24    11    12    1
    25    11    13    1
    26    11    14    1
    27     3     4   ar
    28     4     5   ar
    29     5     6   ar
    30     6    33    1
    31    33    34    1
    32    34    35   ar
    33    35    36   ar
    34    36    37    1
    35    36    38   ar
    36    38    42    1
    37    42    43    1
    38    43    44    2
    39    43    45    1
    40    45    46    1
    41    46    47    1
    42    47    48    1
    43    48    58    1
    44    58    59    2
    45    58    60    1
    46    48    49    1
    47    49    50    1
    48    49    51    1
    49    51    52    1
    50    51    53    1
    51    53    54    1
    52    38    39   ar
    53    39    40   ar
    54    40    41    1
    55    26    20   ar
    56     6     1   ar
    57    40    34   ar
    58    32    30    1
    59    53    46    1
    60    15    16    1
    61     9    10    1
    62    60    61    1
    63    50    55    1
    64    52    56    1
    65    54    57    1
@<TRIPOS>MOLECULE
*****
 61 65 0 0 0
SMALL
GASTEIGER

@<TRIPOS>ATOM
      1 C         -22.8659  -10.0058  -10.3093 C.ar    1  UNL1        0.0993
      2 C         -21.6694   -9.8798   -9.5866 C.ar    1  UNL1        0.0235
      3 C         -21.5581   -8.9571   -8.5325 C.ar    1  UNL1        0.0548
      4 C         -22.6815   -8.1951   -8.1741 C.ar    1  UNL1        0.0077
      5 C         -23.8788   -8.3290   -8.8771 C.ar    1  UNL1        0.0390
      6 C         -23.9731   -9.2138   -9.9652 C.ar    1  UNL1        0.1598
      7 C         -20.2784   -8.8182   -7.7983 C.2     1  UNL1        0.2458
      8 O         -19.1943   -8.9566   -8.4264 O.2     1  UNL1       -0.2701
      9 N         -20.2670   -8.5021   -6.3917 N.am    1  UNL1       -0.3040
     10 H         -21.1676   -8.1831   -5.9672 H       1  UNL1        0.1496
     11 C         -19.0780   -8.5746   -5.5194 C.3     1  UNL1        0.0572
     12 C         -18.2455   -9.8272   -5.8564 C.3     1  UNL1        0.0196
     13 C         -18.2216   -7.3029   -5.6769 C.3     1  UNL1        0.0196
     14 C         -19.5386   -8.6750   -4.0504 C.3     1  UNL1        0.0196
     15 N         -22.9573  -10.9290  -11.4013 N.pl3   1  UNL1       -0.2120
     16 H         -23.9024  -11.2373  -11.7210 H       1  UNL1        0.1738
     17 S         -21.6426  -11.1254  -12.5138 S.O2    1  UNL1        0.0742
     18 O         -21.6154  -12.5447  -13.0071 O.2     1  UNL1       -0.1499
     19 O         -20.3385  -10.8954  -11.8052 O.2     1  UNL1       -0.1499
     20 C         -21.8926   -8.5857  -13.6909 C.ar    1  UNL1       -0.0031
     21 C         -22.1962   -7.7502  -14.7850 C.ar    1  UNL1       -0.0072
     22 C         -22.3527   -8.2662  -16.0719 C.ar    1  UNL1       -0.0219
     23 C         -22.2773   -9.6429  -16.2716 C.ar    1  UNL1        0.0085
     24 C         -22.0323  -10.5091  -15.2047 C.ar    1  UNL1        0.0759
     25 CL        -21.8819  -12.2152  -15.6166 Cl      1  UNL1       -0.0809
     26 C         -21.8779  -10.0029  -13.8864 C.ar    1  UNL1        0.1316
     27 C         -20.1206   -7.6750  -12.0992 C.3     1  UNL1        0.0047
     28 C         -21.6188   -7.9271  -12.3380 C.3     1  UNL1        0.0237
     29 C         -22.4127   -6.6228  -12.2045 C.3     1  UNL1        0.0047
     30 C         -22.6506   -7.3477  -17.2268 C.3     1  UNL1        0.0224
     31 C         -23.8877   -7.7120  -18.0390 C.3     1  UNL1        0.0047
     32 C         -23.9293   -6.5305  -17.0881 C.3     1  UNL1        0.0047
     33 O         -25.1541   -9.3202  -10.7157 O.3     1  UNL1       -0.4513
     34 C         -25.5568   -8.3831  -11.6754 C.ar    1  UNL1        0.1580
     35 C         -25.9235   -7.1017  -11.2523 C.ar    1  UNL1        0.0677
     36 C         -26.2759   -6.1209  -12.1839 C.ar    1  UNL1        0.1398
     37 F         -26.5598   -4.8667  -11.7501 F       1  UNL1       -0.2044
     38 C         -26.3068   -6.4290  -13.5550 C.ar    1  UNL1        0.0175
     39 C         -25.9872   -7.7294  -13.9744 C.ar    1  UNL1        0.0130
     40 C         -25.6109   -8.7041  -13.0467 C.ar    1  UNL1        0.0919
     41 CL        -25.2422  -10.3195  -13.6333 Cl      1  UNL1       -0.0791
     42 C         -26.5496   -5.3557  -14.5846 C.3     1  UNL1        0.1382
     43 C         -28.0186   -5.1861  -14.8382 C.2     1  UNL1        0.3234
     44 O         -28.8448   -5.5121  -13.9433 O.2     1  UNL1       -0.2497
     45 O         -28.4626   -4.7173  -16.0816 O.3     1  UNL1       -0.4215
     46 C         -28.3136   -3.3670  -16.5189 C.3     1  UNL1        0.3207
     47 O         -29.1725   -2.4881  -15.8011 O.3     1  UNL1       -0.3070
     48 C         -30.5563   -2.6880  -16.0731 C.3     1  UNL1        0.2456
     49 C         -30.8950   -2.5992  -17.5837 C.3     1  UNL1        0.1781
     50 O         -30.7556   -1.2632  -17.9984 O.3     1  UNL1       -0.3790
     51 C         -29.9750   -3.5053  -18.4255 C.3     1  UNL1        0.1733
     52 O         -30.3057   -4.8570  -18.2359 O.3     1  UNL1       -0.3793
     53 C         -28.5078   -3.2766  -18.0447 C.3     1  UNL1        0.2106
     54 O         -28.0933   -2.0160  -18.5073 O.3     1  UNL1       -0.3766
     55 H         -31.2370   -1.1756  -18.8625 H       1  UNL1        0.2106
     56 H         -31.1386   -5.0255  -18.7496 H       1  UNL1        0.2105
     57 H         -27.1008   -2.0282  -18.5293 H       1  UNL1        0.2107
     58 C         -31.1023   -3.9067  -15.3654 C.2     1  UNL1        0.3439
     59 O         -31.5786   -3.8261  -14.2010 O.2     1  UNL1       -0.2475
     60 O         -30.9975   -5.1523  -15.9764 O.3     1  UNL1       -0.4785
     61 H         -31.3346   -5.9879  -15.5137 H       1  UNL1        0.2951
@<TRIPOS>BOND
     1    27    28    1
     2    28    29    1
     3    28    20    1
     4    20    21   ar
     5    21    22   ar
     6    22    30    1
     7    30    31    1
     8    31    32    1
     9    22    23   ar
    10    23    24   ar
    11    24    25    1
    12    24    26   ar
    13    26    17    1
    14    17    18    2
    15    17    19    2
    16    17    15    1
    17    15     1    1
    18     1     2   ar
    19     2     3   ar
    20     3     7    1
    21     7     8    2
    22     7     9   am
    23     9    11    1
    24    11    12    1
    25    11    13    1
    26    11    14    1
    27     3     4   ar
    28     4     5   ar
    29     5     6   ar
    30     6    33    1
    31    33    34    1
    32    34    35   ar
    33    35    36   ar
    34    36    37    1
    35    36    38   ar
    36    38    42    1
    37    42    43    1
    38    43    44    2
    39    43    45    1
    40    45    46    1
    41    46    47    1
    42    47    48    1
    43    48    58    1
    44    58    59    2
    45    58    60    1
    46    48    49    1
    47    49    50    1
    48    49    51    1
    49    51    52    1
    50    51    53    1
    51    53    54    1
    52    38    39   ar
    53    39    40   ar
    54    40    41    1
    55    26    20   ar
    56     6     1   ar
    57    40    34   ar
    58    32    30    1
    59    53    46    1
    60    15    16    1
    61     9    10    1
    62    60    61    1
    63    50    55    1
    64    52    56    1
    65    54    57    1
@<TRIPOS>MOLECULE
*****
 61 65 0 0 0
SMALL
GASTEIGER

@<TRIPOS>ATOM
      1 C         -25.4647   -7.3153  -13.5273 C.ar    1  UNL1        0.0993
      2 C         -25.9347   -6.4540  -14.5307 C.ar    1  UNL1        0.0235
      3 C         -26.5332   -5.2254  -14.2035 C.ar    1  UNL1        0.0548
      4 C         -26.6085   -4.8433  -12.8546 C.ar    1  UNL1        0.0077
      5 C         -26.1267   -5.6873  -11.8540 C.ar    1  UNL1        0.0390
      6 C         -25.5765   -6.9391  -12.1791 C.ar    1  UNL1        0.1598
      7 C         -27.0485   -4.3409  -15.2750 C.2     1  UNL1        0.2458
      8 O         -26.3703   -3.3351  -15.6174 O.2     1  UNL1       -0.2701
      9 N         -28.2935   -4.6370  -15.9390 N.am    1  UNL1       -0.3040
     10 H         -28.7055   -5.5845  -15.7796 H       1  UNL1        0.1496
     11 C         -29.0113   -3.7126  -16.8391 C.3     1  UNL1        0.0572
     12 C         -29.7798   -2.6587  -16.0179 C.3     1  UNL1        0.0196
     13 C         -28.0211   -3.0263  -17.8002 C.3     1  UNL1        0.0196
     14 C         -30.0282   -4.5159  -17.6764 C.3     1  UNL1        0.0196
     15 N         -24.8836   -8.5788  -13.8725 N.pl3   1  UNL1       -0.2120
     16 H         -25.4996   -9.4211  -13.9131 H       1  UNL1        0.1738
     17 S         -23.3718   -8.6628  -14.7163 S.O2    1  UNL1        0.0742
     18 O         -22.3019   -8.0090  -13.8877 O.2     1  UNL1       -0.1499
     19 O         -23.4591   -7.8796  -15.9949 O.2     1  UNL1       -0.1499
     20 C         -22.6951  -11.2681  -13.9082 C.ar    1  UNL1       -0.0031
     21 C         -22.2673  -12.5818  -14.1883 C.ar    1  UNL1       -0.0072
     22 C         -22.2280  -13.0703  -15.4947 C.ar    1  UNL1       -0.0219
     23 C         -22.5506  -12.2231  -16.5526 C.ar    1  UNL1        0.0085
     24 C         -22.9267  -10.8989  -16.3208 C.ar    1  UNL1        0.0759
     25 CL        -23.3854   -9.9681  -17.7443 Cl      1  UNL1       -0.0809
     26 C         -22.9652  -10.3817  -14.9983 C.ar    1  UNL1        0.1316
     27 C         -24.1017  -11.3983  -11.7851 C.3     1  UNL1        0.0047
     28 C         -22.8233  -10.8513  -12.4423 C.3     1  UNL1        0.0237
     29 C         -21.5837  -11.2820  -11.6505 C.3     1  UNL1        0.0047
     30 C         -21.7921  -14.4860  -15.7628 C.3     1  UNL1        0.0224
     31 C         -22.4047  -15.5353  -14.8427 C.3     1  UNL1        0.0047
     32 C         -22.8880  -15.4124  -16.2755 C.3     1  UNL1        0.0047
     33 O         -25.1369   -7.8217  -11.1805 O.3     1  UNL1       -0.4513
     34 C         -23.8912   -7.7270  -10.5475 C.ar    1  UNL1        0.1580
     35 C         -22.9530   -6.8153  -11.0413 C.ar    1  UNL1        0.0677
     36 C         -21.7206   -6.6498  -10.4027 C.ar    1  UNL1        0.1398
     37 F         -20.8575   -5.7086  -10.8622 F       1  UNL1       -0.2044
     38 C         -21.3964   -7.4326   -9.2811 C.ar    1  UNL1        0.0175
     39 C         -22.3188   -8.3827   -8.8166 C.ar    1  UNL1        0.0130
     40 C         -23.5609   -8.5322   -9.4388 C.ar    1  UNL1        0.0919
     41 CL        -24.6641   -9.7537   -8.8219 Cl      1  UNL1       -0.0791
     42 C         -20.1354   -7.1771   -8.4968 C.3     1  UNL1        0.1382
     43 C         -19.5632   -8.4634   -7.9779 C.2     1  UNL1        0.3234
     44 O         -19.5969   -9.4948   -8.7025 O.2     1  UNL1       -0.2497
     45 O         -19.0443   -8.5223   -6.6779 O.3     1  UNL1       -0.4215
     46 C         -19.7793   -8.1480   -5.5132 C.3     1  UNL1        0.3207
     47 O         -19.2582   -6.9610   -4.9262 O.3     1  UNL1       -0.3070
     48 C         -17.9601   -7.1210   -4.3622 C.3     1  UNL1        0.2456
     49 C         -17.8897   -8.2690   -3.3220 C.3     1  UNL1        0.1781
     50 O         -18.6074   -7.8828   -2.1765 O.3     1  UNL1       -0.3790
     51 C         -18.4719   -9.5807   -3.8846 C.3     1  UNL1        0.1733
     52 O         -17.6046  -10.1362   -4.8394 O.3     1  UNL1       -0.3793
     53 C         -19.8427   -9.3257   -4.5218 C.3     1  UNL1        0.2106
     54 O         -20.7857   -9.0556   -3.5154 O.3     1  UNL1       -0.3766
     55 H         -18.3212   -8.4827   -1.4386 H       1  UNL1        0.2106
     56 H         -16.8505  -10.5467   -4.3405 H       1  UNL1        0.2105
     57 H         -21.6832   -9.2056   -3.9126 H       1  UNL1        0.2107
     58 C         -16.8821   -7.1501   -5.4211 C.2     1  UNL1        0.3439
     59 O         -15.8038   -7.7768   -5.2371 O.2     1  UNL1       -0.2475
     60 O         -17.0479   -6.4010   -6.5817 O.3     1  UNL1       -0.4785
     61 H         -16.3305   -6.3849   -7.2965 H       1  UNL1        0.2951
@<TRIPOS>BOND
     1    27    28    1
     2    28    29    1
     3    28    20    1
     4    20    21   ar
     5    21    22   ar
     6    22    30    1
     7    30    31    1
     8    31    32    1
     9    22    23   ar
    10    23    24   ar
    11    24    25    1
    12    24    26   ar
    13    26    17    1
    14    17    18    2
    15    17    19    2
    16    17    15    1
    17    15     1    1
    18     1     2   ar
    19     2     3   ar
    20     3     7    1
    21     7     8    2
    22     7     9   am
    23     9    11    1
    24    11    12    1
    25    11    13    1
    26    11    14    1
    27     3     4   ar
    28     4     5   ar
    29     5     6   ar
    30     6    33    1
    31    33    34    1
    32    34    35   ar
    33    35    36   ar
    34    36    37    1
    35    36    38   ar
    36    38    42    1
    37    42    43    1
    38    43    44    2
    39    43    45    1
    40    45    46    1
    41    46    47    1
    42    47    48    1
    43    48    58    1
    44    58    59    2
    45    58    60    1
    46    48    49    1
    47    49    50    1
    48    49    51    1
    49    51    52    1
    50    51    53    1
    51    53    54    1
    52    38    39   ar
    53    39    40   ar
    54    40    41    1
    55    26    20   ar
    56     6     1   ar
    57    40    34   ar
    58    32    30    1
    59    53    46    1
    60    15    16    1
    61     9    10    1
    62    60    61    1
    63    50    55    1
    64    52    56    1
    65    54    57    1
@<TRIPOS>MOLECULE
*****
 61 65 0 0 0
SMALL
GASTEIGER

@<TRIPOS>ATOM
      1 C         -22.6044   -8.3379  -10.4023 C.ar    1  UNL1        0.0993
      2 C         -21.5194   -8.0841   -9.5490 C.ar    1  UNL1        0.0235
      3 C         -21.5376   -8.5168   -8.2122 C.ar    1  UNL1        0.0548
      4 C         -22.6382   -9.2568   -7.7516 C.ar    1  UNL1        0.0077
      5 C         -23.7115   -9.5278   -8.6003 C.ar    1  UNL1        0.0390
      6 C         -23.7158   -9.0488   -9.9217 C.ar    1  UNL1        0.1598
      7 C         -20.3949   -8.2159   -7.3180 C.2     1  UNL1        0.2458
      8 O         -19.4439   -7.5135   -7.7554 O.2     1  UNL1       -0.2701
      9 N         -20.3784   -8.6937   -5.9578 N.am    1  UNL1       -0.3040
     10 H         -21.2728   -9.0776   -5.5763 H       1  UNL1        0.1496
     11 C         -19.2033   -8.6591   -5.0647 C.3     1  UNL1        0.0572
     12 C         -18.0422   -9.4643   -5.6803 C.3     1  UNL1        0.0196
     13 C         -18.7695   -7.2025   -4.8087 C.3     1  UNL1        0.0196
     14 C         -19.5807   -9.3014   -3.7136 C.3     1  UNL1        0.0196
     15 N         -22.5867   -7.8653  -11.7549 N.pl3   1  UNL1       -0.2120
     16 H         -23.1839   -7.0473  -12.0093 H       1  UNL1        0.1738
     17 S         -21.2641   -8.2384  -12.8113 S.O2    1  UNL1        0.0742
     18 O         -20.0247   -8.4725  -11.9943 O.2     1  UNL1       -0.1499
     19 O         -20.9741   -7.0613  -13.6980 O.2     1  UNL1       -0.1499
     20 C         -21.9372   -9.6456  -15.1491 C.ar    1  UNL1       -0.0031
     21 C         -22.3650  -10.8123  -15.8147 C.ar    1  UNL1       -0.0072
     22 C         -22.4079  -12.0459  -15.1640 C.ar    1  UNL1       -0.0219
     23 C         -22.0887  -12.1172  -13.8098 C.ar    1  UNL1        0.0085
     24 C         -21.7126  -10.9747  -13.1013 C.ar    1  UNL1        0.0759
     25 CL        -21.2584  -11.2270  -11.4181 Cl      1  UNL1       -0.0809
     26 C         -21.6706   -9.7090  -13.7449 C.ar    1  UNL1        0.1316
     27 C         -20.4538   -8.2617  -16.6943 C.3     1  UNL1        0.0047
     28 C         -21.8050   -8.3596  -15.9663 C.3     1  UNL1        0.0237
     29 C         -22.9637   -8.2336  -16.9616 C.3     1  UNL1        0.0047
     30 C         -22.8438  -13.2807  -15.9064 C.3     1  UNL1        0.0224
     31 C         -21.7305  -14.2745  -16.2162 C.3     1  UNL1        0.0047
     32 C         -22.7322  -14.5804  -15.1186 C.3     1  UNL1        0.0047
     33 O         -24.8117   -9.2671  -10.7708 O.3     1  UNL1       -0.4513
     34 C         -25.2756   -8.3314  -11.7037 C.ar    1  UNL1        0.1580
     35 C         -25.5617   -7.0333  -11.2696 C.ar    1  UNL1        0.0677
     36 C         -25.9716   -6.0550  -12.1801 C.ar    1  UNL1        0.1398
     37 F         -26.1752   -4.7866  -11.7426 F       1  UNL1       -0.2044
     38 C         -26.1420   -6.3811  -13.5368 C.ar    1  UNL1        0.0175
     39 C         -25.9029   -7.6966  -13.9625 C.ar    1  UNL1        0.0130
     40 C         -25.4694   -8.6696  -13.0582 C.ar    1  UNL1        0.0919
     41 CL        -25.2068  -10.3039  -13.6497 Cl      1  UNL1       -0.0791
     42 C         -26.4493   -5.3152  -14.5567 C.3     1  UNL1        0.1382
     43 C         -27.9288   -5.2057  -14.7807 C.2     1  UNL1        0.3234
     44 O         -28.7230   -5.5804  -13.8759 O.2     1  UNL1       -0.2497
     45 O         -28.4161   -4.7382  -16.0081 O.3     1  UNL1       -0.4215
     46 C         -28.2712   -3.3914  -16.4576 C.3     1  UNL1        0.3207
     47 O         -29.1465   -2.5116  -15.7611 O.3     1  UNL1       -0.3070
     48 C         -30.5249   -2.7249  -16.0502 C.3     1  UNL1        0.2456
     49 C         -30.8431   -2.6545  -17.5662 C.3     1  UNL1        0.1781
     50 O         -30.7078   -1.3218  -17.9930 O.3     1  UNL1       -0.3790
     51 C         -29.9046   -3.5622  -18.3855 C.3     1  UNL1        0.1733
     52 O         -30.2278   -4.9144  -18.1864 O.3     1  UNL1       -0.3793
     53 C         -28.4446   -3.3184  -17.9868 C.3     1  UNL1        0.2106
     54 O         -28.0332   -2.0596  -18.4569 O.3     1  UNL1       -0.3766
     55 H         -31.1777   -1.2469  -18.8646 H       1  UNL1        0.2106
     56 H         -31.0521   -5.0945  -18.7097 H       1  UNL1        0.2105
     57 H         -27.0404   -2.0644  -18.4648 H       1  UNL1        0.2107
     58 C         -31.0716   -3.9403  -15.3374 C.2     1  UNL1        0.3439
     59 O         -31.6077   -3.8436  -14.2005 O.2     1  UNL1       -0.2475
     60 O         -30.9017   -5.1977  -15.9083 O.3     1  UNL1       -0.4785
     61 H         -31.2383   -6.0305  -15.4402 H       1  UNL1        0.2951
@<TRIPOS>BOND
     1    27    28    1
     2    28    29    1
     3    28    20    1
     4    20    21   ar
     5    21    22   ar
     6    22    30    1
     7    30    31    1
     8    31    32    1
     9    22    23   ar
    10    23    24   ar
    11    24    25    1
    12    24    26   ar
    13    26    17    1
    14    17    18    2
    15    17    19    2
    16    17    15    1
    17    15     1    1
    18     1     2   ar
    19     2     3   ar
    20     3     7    1
    21     7     8    2
    22     7     9   am
    23     9    11    1
    24    11    12    1
    25    11    13    1
    26    11    14    1
    27     3     4   ar
    28     4     5   ar
    29     5     6   ar
    30     6    33    1
    31    33    34    1
    32    34    35   ar
    33    35    36   ar
    34    36    37    1
    35    36    38   ar
    36    38    42    1
    37    42    43    1
    38    43    44    2
    39    43    45    1
    40    45    46    1
    41    46    47    1
    42    47    48    1
    43    48    58    1
    44    58    59    2
    45    58    60    1
    46    48    49    1
    47    49    50    1
    48    49    51    1
    49    51    52    1
    50    51    53    1
    51    53    54    1
    52    38    39   ar
    53    39    40   ar
    54    40    41    1
    55    26    20   ar
    56     6     1   ar
    57    40    34   ar
    58    32    30    1
    59    53    46    1
    60    15    16    1
    61     9    10    1
    62    60    61    1
    63    50    55    1
    64    52    56    1
    65    54    57    1
