@<TRIPOS>MOLECULE
*****
 24 26 0 0 0
SMALL
GASTEIGER

@<TRIPOS>ATOM
      1 O          47.7188   11.0238  -27.4338 O.2     1  UNL1       -0.2681
      2 C          46.6346   11.5173  -27.8469 C.2     1  UNL1        0.2700
      3 N          45.6102   11.9052  -26.9164 N.am    1  UNL1       -0.2645
      4 H          44.6319   11.9995  -27.2710 H       1  UNL1        0.1566
      5 C          45.8133   12.0426  -25.5012 C.ar    1  UNL1        0.1344
      6 C          44.8378   12.6201  -24.6693 C.ar    1  UNL1        0.0345
      7 C          45.0652   12.7088  -23.2945 C.ar    1  UNL1        0.0044
      8 C          46.2541   12.2097  -22.7506 C.ar    1  UNL1        0.0178
      9 C          46.5135   12.2809  -21.3737 C.ar    1  UNL1        0.0015
     10 C          47.7082   11.7648  -20.8610 C.ar    1  UNL1        0.0001
     11 C          48.6453   11.1760  -21.7165 C.ar    1  UNL1        0.0015
     12 C          48.3937   11.1004  -23.0902 C.ar    1  UNL1        0.0191
     13 C          47.2018   11.6158  -23.6126 C.ar    1  UNL1        0.0827
     14 N          46.9537   11.5450  -24.9479 N.ar    1  UNL1       -0.2305
     15 C          46.4093   11.6531  -29.2946 C.ar    1  UNL1        0.1558
     16 C          46.0581   12.8167  -29.9565 C.ar    1  UNL1        0.0505
     17 C          45.9607   12.4311  -31.2783 C.ar    1  UNL1        0.1511
     18 N          46.2386   11.1181  -31.3762 N.ar    1  UNL1       -0.2696
     19 N          46.5119   10.6364  -30.1746 N.ar    1  UNL1       -0.1678
     20 H          46.2438   10.5467  -32.2501 H       1  UNL1        0.1892
     21 C          45.6107   13.2941  -32.4137 C.2     1  UNL1        0.3554
     22 O          44.8040   12.8889  -33.2929 O.2     1  UNL1       -0.2434
     23 O          46.1709   14.5632  -32.5201 O.3     1  UNL1       -0.4761
     24 H          45.9392   15.1701  -33.2973 H       1  UNL1        0.2955
@<TRIPOS>BOND
     1     1     2    2
     2     2     3   am
     3     3     5    1
     4     5     6   ar
     5     6     7   ar
     6     7     8   ar
     7     8     9   ar
     8     9    10   ar
     9    10    11   ar
    10    11    12   ar
    11    12    13   ar
    12    13    14   ar
    13     2    15    1
    14    15    16   ar
    15    16    17   ar
    16    17    21    1
    17    21    22    2
    18    21    23    1
    19    17    18   ar
    20    18    19   ar
    21    14     5   ar
    22    19    15   ar
    23    13     8   ar
    24     3     4    1
    25    23    24    1
    26    18    20    1
@<TRIPOS>MOLECULE
*****
 24 26 0 0 0
SMALL
GASTEIGER

@<TRIPOS>ATOM
      1 O          49.7648   11.7021  -25.3695 O.2     1  UNL1       -0.2681
      2 C          48.8399   11.2629  -24.6335 C.2     1  UNL1        0.2700
      3 N          47.4649   11.5322  -24.9539 N.am    1  UNL1       -0.2645
      4 H          46.7556   11.4492  -24.1912 H       1  UNL1        0.1566
      5 C          47.0138   12.0388  -26.2198 C.ar    1  UNL1        0.1344
      6 C          46.6072   13.3757  -26.3760 C.ar    1  UNL1        0.0345
      7 C          46.2020   13.8336  -27.6314 C.ar    1  UNL1        0.0044
      8 C          46.2170   12.9653  -28.7287 C.ar    1  UNL1        0.0178
      9 C          45.8183   13.3933  -30.0039 C.ar    1  UNL1        0.0015
     10 C          45.8534   12.5024  -31.0817 C.ar    1  UNL1        0.0001
     11 C          46.2864   11.1857  -30.8929 C.ar    1  UNL1        0.0015
     12 C          46.6862   10.7517  -29.6249 C.ar    1  UNL1        0.0191
     13 C          46.6529   11.6355  -28.5401 C.ar    1  UNL1        0.0827
     14 N          47.0401   11.2172  -27.3054 N.ar    1  UNL1       -0.2305
     15 C          49.1825   10.5077  -23.4181 C.ar    1  UNL1        0.1558
     16 C          48.8337   10.8504  -22.1234 C.ar    1  UNL1        0.0505
     17 C          49.3852    9.8463  -21.3534 C.ar    1  UNL1        0.1511
     18 N          50.0185    8.9720  -22.1568 N.ar    1  UNL1       -0.2696
     19 N          49.9011    9.3665  -23.4142 N.ar    1  UNL1       -0.1678
     20 H          50.5295    8.1113  -21.8595 H       1  UNL1        0.1892
     21 C          49.3090    9.7281  -19.8917 C.2     1  UNL1        0.3554
     22 O          48.3261   10.2094  -19.2671 O.2     1  UNL1       -0.2434
     23 O          50.3247    9.0828  -19.1932 O.3     1  UNL1       -0.4761
     24 H          50.2862    8.9933  -18.1849 H       1  UNL1        0.2955
@<TRIPOS>BOND
     1     1     2    2
     2     2     3   am
     3     3     5    1
     4     5     6   ar
     5     6     7   ar
     6     7     8   ar
     7     8     9   ar
     8     9    10   ar
     9    10    11   ar
    10    11    12   ar
    11    12    13   ar
    12    13    14   ar
    13     2    15    1
    14    15    16   ar
    15    16    17   ar
    16    17    21    1
    17    21    22    2
    18    21    23    1
    19    17    18   ar
    20    18    19   ar
    21    14     5   ar
    22    19    15   ar
    23    13     8   ar
    24     3     4    1
    25    23    24    1
    26    18    20    1
@<TRIPOS>MOLECULE
*****
 24 26 0 0 0
SMALL
GASTEIGER

@<TRIPOS>ATOM
      1 O          48.3205   11.6924  -24.6676 O.2     1  UNL1       -0.2681
      2 C          47.1988   11.8982  -24.1295 C.2     1  UNL1        0.2700
      3 N          46.1206   12.4683  -24.8899 N.am    1  UNL1       -0.2645
      4 H          45.3353   12.9203  -24.3695 H       1  UNL1        0.1566
      5 C          46.1112   12.5795  -26.3217 C.ar    1  UNL1        0.1344
      6 C          45.9259   13.8167  -26.9637 C.ar    1  UNL1        0.0345
      7 C          45.9515   13.8835  -28.3582 C.ar    1  UNL1        0.0044
      8 C          46.1760   12.7234  -29.1079 C.ar    1  UNL1        0.0178
      9 C          46.2099   12.7555  -30.5102 C.ar    1  UNL1        0.0015
     10 C          46.4453   11.5793  -31.2297 C.ar    1  UNL1        0.0001
     11 C          46.6488   10.3705  -30.5557 C.ar    1  UNL1        0.0015
     12 C          46.6174   10.3304  -29.1580 C.ar    1  UNL1        0.0191
     13 C          46.3808   11.5020  -28.4296 C.ar    1  UNL1        0.0827
     14 N          46.3486   11.4672  -27.0705 N.ar    1  UNL1       -0.2305
     15 C          47.0158   11.5893  -22.7026 C.ar    1  UNL1        0.1558
     16 C          46.3107   12.3541  -21.7898 C.ar    1  UNL1        0.0505
     17 C          46.4355   11.6570  -20.6050 C.ar    1  UNL1        0.1511
     18 N          47.1721   10.5514  -20.8194 N.ar    1  UNL1       -0.2696
     19 N          47.5300   10.5023  -22.0922 N.ar    1  UNL1       -0.1678
     20 H          47.4342    9.8312  -20.1102 H       1  UNL1        0.1892
     21 C          45.8672   12.0387  -19.3058 C.2     1  UNL1        0.3554
     22 O          46.6201   12.2090  -18.3099 O.2     1  UNL1       -0.2434
     23 O          44.4933   12.2133  -19.1731 O.3     1  UNL1       -0.4761
     24 H          44.0864   12.4766  -18.2836 H       1  UNL1        0.2955
@<TRIPOS>BOND
     1     1     2    2
     2     2     3   am
     3     3     5    1
     4     5     6   ar
     5     6     7   ar
     6     7     8   ar
     7     8     9   ar
     8     9    10   ar
     9    10    11   ar
    10    11    12   ar
    11    12    13   ar
    12    13    14   ar
    13     2    15    1
    14    15    16   ar
    15    16    17   ar
    16    17    21    1
    17    21    22    2
    18    21    23    1
    19    17    18   ar
    20    18    19   ar
    21    14     5   ar
    22    19    15   ar
    23    13     8   ar
    24     3     4    1
    25    23    24    1
    26    18    20    1
@<TRIPOS>MOLECULE
*****
 24 26 0 0 0
SMALL
GASTEIGER

@<TRIPOS>ATOM
      1 O          45.7464   11.2670  -26.6322 O.2     1  UNL1       -0.2681
      2 C          46.6057   11.9934  -27.2012 C.2     1  UNL1        0.2700
      3 N          47.8800   12.2344  -26.5819 N.am    1  UNL1       -0.2645
      4 H          48.4296   13.0670  -26.8924 H       1  UNL1        0.1566
      5 C          48.3927   11.4853  -25.4690 C.ar    1  UNL1        0.1344
      6 C          49.6484   10.8546  -25.5208 C.ar    1  UNL1        0.0345
      7 C          50.1203   10.1596  -24.4054 C.ar    1  UNL1        0.0044
      8 C          49.3492   10.1070  -23.2388 C.ar    1  UNL1        0.0178
      9 C          49.7943    9.4192  -22.0998 C.ar    1  UNL1        0.0015
     10 C          49.0030    9.3932  -20.9467 C.ar    1  UNL1        0.0001
     11 C          47.7693   10.0523  -20.9244 C.ar    1  UNL1        0.0015
     12 C          47.3191   10.7408  -22.0554 C.ar    1  UNL1        0.0191
     13 C          48.1032   10.7709  -23.2145 C.ar    1  UNL1        0.0827
     14 N          47.6686   11.4385  -24.3167 N.ar    1  UNL1       -0.2305
     15 C          46.2756   12.6286  -28.4868 C.ar    1  UNL1        0.1558
     16 C          46.0855   11.9738  -29.6912 C.ar    1  UNL1        0.0505
     17 C          45.8082   12.9907  -30.5825 C.ar    1  UNL1        0.1511
     18 N          45.8372   14.1680  -29.9312 N.ar    1  UNL1       -0.2696
     19 N          46.1214   13.9575  -28.6563 N.ar    1  UNL1       -0.1678
     20 H          45.6667   15.1117  -30.3441 H       1  UNL1        0.1892
     21 C          45.5250   12.8397  -32.0155 C.2     1  UNL1        0.3554
     22 O          46.4545   12.9444  -32.8598 O.2     1  UNL1       -0.2434
     23 O          44.2268   12.5802  -32.4433 O.3     1  UNL1       -0.4761
     24 H          44.0158   12.4733  -33.4283 H       1  UNL1        0.2955
@<TRIPOS>BOND
     1     1     2    2
     2     2     3   am
     3     3     5    1
     4     5     6   ar
     5     6     7   ar
     6     7     8   ar
     7     8     9   ar
     8     9    10   ar
     9    10    11   ar
    10    11    12   ar
    11    12    13   ar
    12    13    14   ar
    13     2    15    1
    14    15    16   ar
    15    16    17   ar
    16    17    21    1
    17    21    22    2
    18    21    23    1
    19    17    18   ar
    20    18    19   ar
    21    14     5   ar
    22    19    15   ar
    23    13     8   ar
    24     3     4    1
    25    23    24    1
    26    18    20    1
@<TRIPOS>MOLECULE
*****
 24 26 0 0 0
SMALL
GASTEIGER

@<TRIPOS>ATOM
      1 O          49.3152   11.6972  -24.9777 O.2     1  UNL1       -0.2681
      2 C          48.3005   11.4571  -24.2687 C.2     1  UNL1        0.2700
      3 N          46.9865   11.8008  -24.7385 N.am    1  UNL1       -0.2645
      4 H          46.2203   11.8957  -24.0344 H       1  UNL1        0.1566
      5 C          46.6802   12.1551  -26.0961 C.ar    1  UNL1        0.1344
      6 C          46.2866   13.4587  -26.4467 C.ar    1  UNL1        0.0345
      7 C          46.0249   13.7668  -27.7833 C.ar    1  UNL1        0.0044
      8 C          46.1701   12.7823  -28.7672 C.ar    1  UNL1        0.0178
      9 C          45.9174   13.0585  -30.1193 C.ar    1  UNL1        0.0015
     10 C          46.0804   12.0541  -31.0791 C.ar    1  UNL1        0.0001
     11 C          46.4964   10.7748  -30.6957 C.ar    1  UNL1        0.0015
     12 C          46.7511   10.4918  -29.3499 C.ar    1  UNL1        0.0191
     13 C          46.5890   11.4899  -28.3822 C.ar    1  UNL1        0.0827
     14 N          46.8349   11.2186  -27.0725 N.ar    1  UNL1       -0.2305
     15 C          48.4772   10.8603  -22.9354 C.ar    1  UNL1        0.1558
     16 C          49.5783   11.0217  -22.1125 C.ar    1  UNL1        0.0505
     17 C          49.2717   10.2711  -20.9955 C.ar    1  UNL1        0.1511
     18 N          48.0618    9.7059  -21.1625 N.ar    1  UNL1       -0.2696
     19 N          47.5715   10.0581  -22.3397 N.ar    1  UNL1       -0.1678
     20 H          47.5671    9.0837  -20.4855 H       1  UNL1        0.1892
     21 C          50.1127   10.0991  -19.8040 C.2     1  UNL1        0.3554
     22 O          50.8508   11.0404  -19.4078 O.2     1  UNL1       -0.2434
     23 O          50.0953    8.8935  -19.1098 O.3     1  UNL1       -0.4761
     24 H          50.6697    8.7598  -18.2862 H       1  UNL1        0.2955
@<TRIPOS>BOND
     1     1     2    2
     2     2     3   am
     3     3     5    1
     4     5     6   ar
     5     6     7   ar
     6     7     8   ar
     7     8     9   ar
     8     9    10   ar
     9    10    11   ar
    10    11    12   ar
    11    12    13   ar
    12    13    14   ar
    13     2    15    1
    14    15    16   ar
    15    16    17   ar
    16    17    21    1
    17    21    22    2
    18    21    23    1
    19    17    18   ar
    20    18    19   ar
    21    14     5   ar
    22    19    15   ar
    23    13     8   ar
    24     3     4    1
    25    23    24    1
    26    18    20    1
@<TRIPOS>MOLECULE
*****
 24 26 0 0 0
SMALL
GASTEIGER

@<TRIPOS>ATOM
      1 O          52.5125    8.9232  -25.1310 O.2     1  UNL1       -0.2681
      2 C          51.3671    9.4493  -25.0937 C.2     1  UNL1        0.2700
      3 N          50.6763    9.7758  -26.3110 N.am    1  UNL1       -0.2645
      4 H          49.9073   10.4818  -26.2674 H       1  UNL1        0.1566
      5 C          51.0581    9.2982  -27.6105 C.ar    1  UNL1        0.1344
      6 C          52.3541    9.4984  -28.1178 C.ar    1  UNL1        0.0345
      7 C          52.6909    8.9929  -29.3752 C.ar    1  UNL1        0.0044
      8 C          51.7431    8.2780  -30.1161 C.ar    1  UNL1        0.0178
      9 C          52.0490    7.7549  -31.3815 C.ar    1  UNL1        0.0015
     10 C          51.0813    7.0374  -32.0925 C.ar    1  UNL1        0.0001
     11 C          49.8094    6.8380  -31.5454 C.ar    1  UNL1        0.0015
     12 C          49.4971    7.3555  -30.2842 C.ar    1  UNL1        0.0191
     13 C          50.4583    8.0763  -29.5660 C.ar    1  UNL1        0.0827
     14 N          50.1584    8.5819  -28.3397 N.ar    1  UNL1       -0.2305
     15 C          50.7610    9.7661  -23.7909 C.ar    1  UNL1        0.1558
     16 C          49.8523    8.9794  -23.1048 C.ar    1  UNL1        0.0505
     17 C          49.5853    9.7016  -21.9592 C.ar    1  UNL1        0.1511
     18 N          50.2984   10.8427  -21.9811 N.ar    1  UNL1       -0.2696
     19 N          51.0158   10.8908  -23.0917 N.ar    1  UNL1       -0.1678
     20 H          50.3018   11.5882  -21.2501 H       1  UNL1        0.1892
     21 C          48.6735    9.3112  -20.8763 C.2     1  UNL1        0.3554
     22 O          47.4751    9.0174  -21.1316 O.2     1  UNL1       -0.2434
     23 O          49.1333    9.2653  -19.5639 O.3     1  UNL1       -0.4761
     24 H          48.5165    8.9979  -18.8062 H       1  UNL1        0.2955
@<TRIPOS>BOND
     1     1     2    2
     2     2     3   am
     3     3     5    1
     4     5     6   ar
     5     6     7   ar
     6     7     8   ar
     7     8     9   ar
     8     9    10   ar
     9    10    11   ar
    10    11    12   ar
    11    12    13   ar
    12    13    14   ar
    13     2    15    1
    14    15    16   ar
    15    16    17   ar
    16    17    21    1
    17    21    22    2
    18    21    23    1
    19    17    18   ar
    20    18    19   ar
    21    14     5   ar
    22    19    15   ar
    23    13     8   ar
    24     3     4    1
    25    23    24    1
    26    18    20    1
@<TRIPOS>MOLECULE
*****
 24 26 0 0 0
SMALL
GASTEIGER

@<TRIPOS>ATOM
      1 O          52.8096   11.7836  -28.1276 O.2     1  UNL1       -0.2681
      2 C          52.4582   11.1035  -27.1257 C.2     1  UNL1        0.2700
      3 N          51.8282    9.8235  -27.2996 N.am    1  UNL1       -0.2645
      4 H          51.2677    9.4379  -26.5066 H       1  UNL1        0.1566
      5 C          51.8037    9.0959  -28.5376 C.ar    1  UNL1        0.1344
      6 C          52.9807    8.8295  -29.2593 C.ar    1  UNL1        0.0345
      7 C          52.9142    8.0944  -30.4447 C.ar    1  UNL1        0.0044
      8 C          51.6808    7.6148  -30.8997 C.ar    1  UNL1        0.0178
      9 C          51.5787    6.8715  -32.0852 C.ar    1  UNL1        0.0015
     10 C          50.3317    6.3992  -32.5077 C.ar    1  UNL1        0.0001
     11 C          49.1854    6.6640  -31.7510 C.ar    1  UNL1        0.0015
     12 C          49.2790    7.4035  -30.5675 C.ar    1  UNL1        0.0191
     13 C          50.5222    7.8817  -30.1378 C.ar    1  UNL1        0.0827
     14 N          50.6174    8.6019  -28.9881 N.ar    1  UNL1       -0.2305
     15 C          52.6598   11.6518  -25.7752 C.ar    1  UNL1        0.1558
     16 C          51.7459   12.4058  -25.0598 C.ar    1  UNL1        0.0505
     17 C          52.3966   12.6797  -23.8737 C.ar    1  UNL1        0.1511
     18 N          53.6187   12.1170  -23.9011 N.ar    1  UNL1       -0.2696
     19 N          53.7878   11.4904  -25.0540 N.ar    1  UNL1       -0.1678
     20 H          54.3383   12.1551  -23.1454 H       1  UNL1        0.1892
     21 C          51.8644   13.4581  -22.7479 C.2     1  UNL1        0.3554
     22 O          51.4609   14.6382  -22.9278 O.2     1  UNL1       -0.2434
     23 O          51.8051   12.8918  -21.4785 O.3     1  UNL1       -0.4761
     24 H          51.4405   13.4160  -20.6921 H       1  UNL1        0.2955
@<TRIPOS>BOND
     1     1     2    2
     2     2     3   am
     3     3     5    1
     4     5     6   ar
     5     6     7   ar
     6     7     8   ar
     7     8     9   ar
     8     9    10   ar
     9    10    11   ar
    10    11    12   ar
    11    12    13   ar
    12    13    14   ar
    13     2    15    1
    14    15    16   ar
    15    16    17   ar
    16    17    21    1
    17    21    22    2
    18    21    23    1
    19    17    18   ar
    20    18    19   ar
    21    14     5   ar
    22    19    15   ar
    23    13     8   ar
    24     3     4    1
    25    23    24    1
    26    18    20    1
@<TRIPOS>MOLECULE
*****
 24 26 0 0 0
SMALL
GASTEIGER

@<TRIPOS>ATOM
      1 O          45.0610   11.8441  -26.5825 O.2     1  UNL1       -0.2681
      2 C          46.1759   11.9869  -27.1539 C.2     1  UNL1        0.2700
      3 N          47.3729   12.1674  -26.3792 N.am    1  UNL1       -0.2645
      4 H          48.2029   12.5967  -26.8468 H       1  UNL1        0.1566
      5 C          47.4670   11.9220  -24.9672 C.ar    1  UNL1        0.1344
      6 C          46.6796   12.6300  -24.0421 C.ar    1  UNL1        0.0345
      7 C          46.7832   12.3399  -22.6801 C.ar    1  UNL1        0.0044
      8 C          47.6575   11.3375  -22.2451 C.ar    1  UNL1        0.0178
      9 C          47.7844   11.0194  -20.8845 C.ar    1  UNL1        0.0015
     10 C          48.6612   10.0060  -20.4836 C.ar    1  UNL1        0.0001
     11 C          49.4113    9.3068  -21.4351 C.ar    1  UNL1        0.0015
     12 C          49.2897    9.6174  -22.7934 C.ar    1  UNL1        0.0191
     13 C          48.4162   10.6312  -23.2038 C.ar    1  UNL1        0.0827
     14 N          48.2957   10.9368  -24.5235 N.ar    1  UNL1       -0.2305
     15 C          46.2352   12.0103  -28.6239 C.ar    1  UNL1        0.1558
     16 C          45.8063   13.0442  -29.4378 C.ar    1  UNL1        0.0505
     17 C          46.0651   12.5909  -30.7157 C.ar    1  UNL1        0.1511
     18 N          46.6120   11.3633  -30.6457 N.ar    1  UNL1       -0.2696
     19 N          46.7185   11.0018  -29.3775 N.ar    1  UNL1       -0.1678
     20 H          46.9124   10.7693  -31.4502 H       1  UNL1        0.1892
     21 C          45.7957   13.3114  -31.9666 C.2     1  UNL1        0.3554
     22 O          45.1927   12.7365  -32.9120 O.2     1  UNL1       -0.2434
     23 O          46.2070   14.6328  -32.1095 O.3     1  UNL1       -0.4761
     24 H          46.0283   15.1430  -32.9661 H       1  UNL1        0.2955
@<TRIPOS>BOND
     1     1     2    2
     2     2     3   am
     3     3     5    1
     4     5     6   ar
     5     6     7   ar
     6     7     8   ar
     7     8     9   ar
     8     9    10   ar
     9    10    11   ar
    10    11    12   ar
    11    12    13   ar
    12    13    14   ar
    13     2    15    1
    14    15    16   ar
    15    16    17   ar
    16    17    21    1
    17    21    22    2
    18    21    23    1
    19    17    18   ar
    20    18    19   ar
    21    14     5   ar
    22    19    15   ar
    23    13     8   ar
    24     3     4    1
    25    23    24    1
    26    18    20    1
@<TRIPOS>MOLECULE
*****
 24 26 0 0 0
SMALL
GASTEIGER

@<TRIPOS>ATOM
      1 O          51.2434    8.9527  -25.2232 O.2     1  UNL1       -0.2681
      2 C          51.7799    9.9991  -25.6784 C.2     1  UNL1        0.2700
      3 N          51.9618   10.1669  -27.0941 N.am    1  UNL1       -0.2645
      4 H          52.6744   10.8574  -27.4213 H       1  UNL1        0.1566
      5 C          51.3262    9.3539  -28.0930 C.ar    1  UNL1        0.1344
      6 C          49.9425    9.1049  -28.0696 C.ar    1  UNL1        0.0345
      7 C          49.3614    8.3313  -29.0764 C.ar    1  UNL1        0.0044
      8 C          50.1552    7.8214  -30.1100 C.ar    1  UNL1        0.0178
      9 C          49.6033    7.0423  -31.1381 C.ar    1  UNL1        0.0015
     10 C          50.4232    6.5550  -32.1613 C.ar    1  UNL1        0.0001
     11 C          51.7920    6.8431  -32.1641 C.ar    1  UNL1        0.0015
     12 C          52.3496    7.6197  -31.1433 C.ar    1  UNL1        0.0191
     13 C          51.5374    8.1102  -30.1143 C.ar    1  UNL1        0.0827
     14 N          52.0758    8.8650  -29.1193 N.ar    1  UNL1       -0.2305
     15 C          52.2582   11.0297  -24.7434 C.ar    1  UNL1        0.1558
     16 C          51.4974   12.0508  -24.2014 C.ar    1  UNL1        0.0505
     17 C          52.3878   12.7423  -23.4049 C.ar    1  UNL1        0.1511
     18 N          53.5963   12.1554  -23.4822 N.ar    1  UNL1       -0.2696
     19 N          53.5271   11.1133  -24.2946 N.ar    1  UNL1       -0.1678
     20 H          54.4665   12.4558  -22.9896 H       1  UNL1        0.1892
     21 C          52.0906   13.9305  -22.5948 C.2     1  UNL1        0.3554
     22 O          51.0893   14.6468  -22.8636 O.2     1  UNL1       -0.2434
     23 O          52.9163   14.2673  -21.5269 O.3     1  UNL1       -0.4761
     24 H          52.7243   15.0837  -20.9588 H       1  UNL1        0.2955
@<TRIPOS>BOND
     1     1     2    2
     2     2     3   am
     3     3     5    1
     4     5     6   ar
     5     6     7   ar
     6     7     8   ar
     7     8     9   ar
     8     9    10   ar
     9    10    11   ar
    10    11    12   ar
    11    12    13   ar
    12    13    14   ar
    13     2    15    1
    14    15    16   ar
    15    16    17   ar
    16    17    21    1
    17    21    22    2
    18    21    23    1
    19    17    18   ar
    20    18    19   ar
    21    14     5   ar
    22    19    15   ar
    23    13     8   ar
    24     3     4    1
    25    23    24    1
    26    18    20    1
