@<TRIPOS>MOLECULE
*****
 50 55 0 0 0
SMALL
GASTEIGER

@<TRIPOS>ATOM
      1 C          10.5320   78.7062   26.6957 C.3     1  UNL1        0.1535
      2 N           9.3603   78.3019   25.9109 N.am    1  UNL1       -0.2945
      3 C           9.3422   77.1013   25.1221 C.2     1  UNL1        0.2483
      4 O          10.3869   76.4007   25.0259 O.2     1  UNL1       -0.2701
      5 H           8.5937   78.9934   25.7627 H       1  UNL1        0.1501
      6 C           8.1101   76.6835   24.4096 C.ar    1  UNL1        0.0808
      7 C           7.9961   76.8686   23.0198 C.ar    1  UNL1        0.0080
      8 C           6.8382   76.4784   22.3430 C.ar    1  UNL1        0.0148
      9 C           5.7679   75.9004   23.0396 C.ar    1  UNL1        0.0502
     10 C           5.8740   75.7183   24.4274 C.ar    1  UNL1        0.0443
     11 C           7.0306   76.1085   25.1096 C.ar    1  UNL1        0.1457
     12 F           7.0995   75.9015   26.4494 F       1  UNL1       -0.2040
     13 N           4.5798   75.4956   22.3338 N.pl3   1  UNL1       -0.3040
     14 C           4.5821   74.2847   21.5043 C.3     1  UNL1        0.1122
     15 C           3.7524   74.5158   20.2408 C.3     1  UNL1        0.1122
     16 N           2.4542   75.1055   20.5897 N.pl3   1  UNL1       -0.3040
     17 C           2.4520   76.3162   21.4198 C.3     1  UNL1        0.1122
     18 C           3.2815   76.0848   22.6832 C.3     1  UNL1        0.1122
     19 C           1.2678   74.7051   19.8785 C.ar    1  UNL1        0.0488
     20 C           0.3950   75.6664   19.3424 C.ar    1  UNL1        0.0154
     21 C          -0.7553   75.2701   18.6554 C.ar    1  UNL1        0.0135
     22 C          -1.0502   73.9120   18.4967 C.ar    1  UNL1        0.0683
     23 CL         -2.5072   73.4525   17.6260 Cl      1  UNL1       -0.0814
     24 C          -0.1848   72.9433   19.0321 C.ar    1  UNL1        0.0694
     25 CL         -0.5215   71.2259   18.8613 Cl      1  UNL1       -0.0813
     26 C           0.9674   73.3428   19.7196 C.ar    1  UNL1        0.0268
     27 C          11.6859   79.0638   25.7917 C.2     1  UNL1        0.2443
     28 O          11.6365   80.1439   25.1429 O.2     1  UNL1       -0.2730
     29 N          12.7825   78.1521   25.6008 N.am    1  UNL1       -0.2825
     30 H          12.6718   77.1681   25.9332 H       1  UNL1        0.1549
     31 C          13.9577   78.4629   24.8353 C.ar    1  UNL1        0.0535
     32 C          14.6848   79.6448   25.0539 C.ar    1  UNL1        0.0353
     33 C          15.8358   79.8933   24.3017 C.ar    1  UNL1        0.1002
     34 N          16.2543   78.9906   23.3755 N.ar    1  UNL1       -0.2422
     35 C          15.5797   77.8311   23.1558 C.ar    1  UNL1        0.1002
     36 C          14.4250   77.5430   23.8871 C.ar    1  UNL1        0.0353
     37 C          10.1892   79.8502   27.6739 C.3     1  UNL1        0.0569
     38 N           4.6070   77.4873   30.6558 N.pl3   1  UNL1       -0.3570
     39 C           5.8532   77.9695   30.1474 C.ar    1  UNL1        0.0430
     40 C           6.0036   78.2221   28.7617 C.ar    1  UNL1        0.0142
     41 C           7.2233   78.6979   28.2487 C.ar    1  UNL1        0.0024
     42 C           8.2688   78.9138   29.1464 C.ar    1  UNL1        0.0132
     43 C           9.5551   79.3838   28.9571 C.ar    1  UNL1       -0.0017
     44 C          10.1404   79.3926   30.2205 C.ar    1  UNL1        0.0681
     45 N           9.2626   78.9550   31.1512 N.ar    1  UNL1       -0.3522
     46 C           8.1292   78.6682   30.4877 C.ar    1  UNL1        0.0576
     47 C           6.9337   78.1952   31.0261 C.ar    1  UNL1        0.0310
     48 H           4.4836   77.2978   31.6754 H       1  UNL1        0.1424
     49 H           3.7991   77.3170   30.0162 H       1  UNL1        0.1424
     50 H           9.4319   78.8694   32.1781 H       1  UNL1        0.1660
@<TRIPOS>BOND
     1    38    39    1
     2    39    40   ar
     3    40    41   ar
     4    41    42   ar
     5    42    43   ar
     6    43    37    1
     7    37     1    1
     8     1     2    1
     9     2     3   am
    10     3     4    2
    11     3     6    1
    12     6     7   ar
    13     7     8   ar
    14     8     9   ar
    15     9    13    1
    16    13    14    1
    17    14    15    1
    18    15    16    1
    19    16    19    1
    20    19    20   ar
    21    20    21   ar
    22    21    22   ar
    23    22    23    1
    24    22    24   ar
    25    24    25    1
    26    24    26   ar
    27    16    17    1
    28    17    18    1
    29     9    10   ar
    30    10    11   ar
    31    11    12    1
    32     1    27    1
    33    27    28    2
    34    27    29   am
    35    29    31    1
    36    31    32   ar
    37    32    33   ar
    38    33    34   ar
    39    34    35   ar
    40    35    36   ar
    41    43    44   ar
    42    44    45   ar
    43    45    46   ar
    44    46    47   ar
    45    47    39   ar
    46    46    42   ar
    47    11     6   ar
    48    36    31   ar
    49    18    13    1
    50    26    19   ar
    51    38    48    1
    52    38    49    1
    53     2     5    1
    54    29    30    1
    55    45    50    1
@<TRIPOS>MOLECULE
*****
 50 55 0 0 0
SMALL
GASTEIGER

@<TRIPOS>ATOM
      1 C          11.0123   77.1644   26.9045 C.3     1  UNL1        0.1535
      2 N           9.7731   76.9260   26.1563 N.am    1  UNL1       -0.2945
      3 C           9.7618   76.2638   24.8814 C.2     1  UNL1        0.2483
      4 O          10.8521   75.9407   24.3351 O.2     1  UNL1       -0.2701
      5 H           8.9037   77.4172   26.4575 H       1  UNL1        0.1501
      6 C           8.4807   75.9666   24.1953 C.ar    1  UNL1        0.0808
      7 C           8.4271   74.9921   23.1822 C.ar    1  UNL1        0.0080
      8 C           7.2242   74.7082   22.5314 C.ar    1  UNL1        0.0148
      9 C           6.0510   75.3945   22.8742 C.ar    1  UNL1        0.0502
     10 C           6.0998   76.3718   23.8806 C.ar    1  UNL1        0.0443
     11 C           7.3019   76.6605   24.5342 C.ar    1  UNL1        0.1457
     12 F           7.3036   77.6019   25.5120 F       1  UNL1       -0.2040
     13 N           4.8137   75.0920   22.2026 N.pl3   1  UNL1       -0.3040
     14 C           4.7092   73.9198   21.3256 C.3     1  UNL1        0.1122
     15 C           3.8466   74.2540   20.1080 C.3     1  UNL1        0.1122
     16 N           2.6017   74.9048   20.5340 N.pl3   1  UNL1       -0.3040
     17 C           2.7063   76.0768   21.4117 C.3     1  UNL1        0.1122
     18 C           3.5687   75.7423   22.6292 C.3     1  UNL1        0.1122
     19 C           1.3661   74.6069   19.8570 C.ar    1  UNL1        0.0488
     20 C           0.5339   75.6407   19.3967 C.ar    1  UNL1        0.0154
     21 C          -0.6644   75.3437   18.7425 C.ar    1  UNL1        0.0135
     22 C          -1.0484   74.0136   18.5418 C.ar    1  UNL1        0.0683
     23 CL         -2.5638   73.6798   17.7146 Cl      1  UNL1       -0.0814
     24 C          -0.2241   72.9729   19.0016 C.ar    1  UNL1        0.0694
     25 CL         -0.6724   71.2876   18.7761 Cl      1  UNL1       -0.0813
     26 C           0.9764   73.2731   19.6562 C.ar    1  UNL1        0.0268
     27 C          11.9812   77.9859   26.0901 C.2     1  UNL1        0.2443
     28 O          11.7129   79.1979   25.8691 O.2     1  UNL1       -0.2730
     29 N          13.1452   77.3809   25.4992 N.am    1  UNL1       -0.2825
     30 H          13.2016   76.3382   25.4725 H       1  UNL1        0.1549
     31 C          14.1594   78.1158   24.7958 C.ar    1  UNL1        0.0535
     32 C          14.5787   79.3851   25.2274 C.ar    1  UNL1        0.0353
     33 C          15.5858   80.0524   24.5255 C.ar    1  UNL1        0.1002
     34 N          16.1633   79.4700   23.4413 N.ar    1  UNL1       -0.2422
     35 C          15.7891   78.2357   23.0123 C.ar    1  UNL1        0.1002
     36 C          14.7871   77.5337   23.6864 C.ar    1  UNL1        0.0353
     37 C          10.7273   77.8044   28.2801 C.3     1  UNL1        0.0569
     38 N           4.2943   76.8662   30.1167 N.pl3   1  UNL1       -0.3570
     39 C           5.6219   77.1982   29.7028 C.ar    1  UNL1        0.0430
     40 C           6.6703   76.2591   29.8630 C.ar    1  UNL1        0.0142
     41 C           7.9802   76.5721   29.4590 C.ar    1  UNL1        0.0024
     42 C           8.2068   77.8280   28.8961 C.ar    1  UNL1        0.0132
     43 C           9.3550   78.4127   28.3953 C.ar    1  UNL1       -0.0017
     44 C           8.9716   79.6786   27.9598 C.ar    1  UNL1        0.0681
     45 N           7.6506   79.8719   28.1736 N.ar    1  UNL1       -0.3522
     46 C           7.1964   78.7414   28.7415 C.ar    1  UNL1        0.0576
     47 C           5.8883   78.4612   29.1333 C.ar    1  UNL1        0.0310
     48 H           3.5129   77.5498   30.0033 H       1  UNL1        0.1424
     49 H           4.0836   75.9344   30.5387 H       1  UNL1        0.1424
     50 H           7.0973   80.7246   27.9342 H       1  UNL1        0.1660
@<TRIPOS>BOND
     1    38    39    1
     2    39    40   ar
     3    40    41   ar
     4    41    42   ar
     5    42    43   ar
     6    43    37    1
     7    37     1    1
     8     1     2    1
     9     2     3   am
    10     3     4    2
    11     3     6    1
    12     6     7   ar
    13     7     8   ar
    14     8     9   ar
    15     9    13    1
    16    13    14    1
    17    14    15    1
    18    15    16    1
    19    16    19    1
    20    19    20   ar
    21    20    21   ar
    22    21    22   ar
    23    22    23    1
    24    22    24   ar
    25    24    25    1
    26    24    26   ar
    27    16    17    1
    28    17    18    1
    29     9    10   ar
    30    10    11   ar
    31    11    12    1
    32     1    27    1
    33    27    28    2
    34    27    29   am
    35    29    31    1
    36    31    32   ar
    37    32    33   ar
    38    33    34   ar
    39    34    35   ar
    40    35    36   ar
    41    43    44   ar
    42    44    45   ar
    43    45    46   ar
    44    46    47   ar
    45    47    39   ar
    46    46    42   ar
    47    11     6   ar
    48    36    31   ar
    49    18    13    1
    50    26    19   ar
    51    38    48    1
    52    38    49    1
    53     2     5    1
    54    29    30    1
    55    45    50    1
@<TRIPOS>MOLECULE
*****
 50 55 0 0 0
SMALL
GASTEIGER

@<TRIPOS>ATOM
      1 C          11.1871   76.8316   26.6255 C.3     1  UNL1        0.1535
      2 N           9.9461   76.6338   25.8684 N.am    1  UNL1       -0.2945
      3 C           9.8276   75.6430   24.8348 C.2     1  UNL1        0.2483
      4 O          10.8376   74.9657   24.4992 O.2     1  UNL1       -0.2701
      5 H           9.1944   77.3530   25.9419 H       1  UNL1        0.1501
      6 C           8.5314   75.4166   24.1498 C.ar    1  UNL1        0.0808
      7 C           8.4205   75.6041   22.7600 C.ar    1  UNL1        0.0080
      8 C           7.2027   75.3937   22.1091 C.ar    1  UNL1        0.0148
      9 C           6.0691   74.9972   22.8320 C.ar    1  UNL1        0.0502
     10 C           6.1726   74.8140   24.2198 C.ar    1  UNL1        0.0443
     11 C           7.3893   75.0245   24.8762 C.ar    1  UNL1        0.1457
     12 F           7.4513   74.8221   26.2170 F       1  UNL1       -0.2040
     13 N           4.8186   74.7768   22.1527 N.pl3   1  UNL1       -0.3040
     14 C           4.6690   73.6615   21.2104 C.3     1  UNL1        0.1122
     15 C           3.8126   74.0950   20.0201 C.3     1  UNL1        0.1122
     16 N           2.5932   74.7626   20.4915 N.pl3   1  UNL1       -0.3040
     17 C           2.7428   75.8776   21.4345 C.3     1  UNL1        0.1122
     18 C           3.5991   75.4439   22.6246 C.3     1  UNL1        0.1122
     19 C           1.3446   74.5471   19.8072 C.ar    1  UNL1        0.0488
     20 C           0.5486   75.6339   19.4092 C.ar    1  UNL1        0.0154
     21 C          -0.6626   75.4166   18.7475 C.ar    1  UNL1        0.0135
     22 C          -1.0956   74.1143   18.4769 C.ar    1  UNL1        0.0683
     23 CL         -2.6257   73.8812   17.6424 Cl      1  UNL1       -0.0814
     24 C          -0.3078   73.0209   18.8740 C.ar    1  UNL1        0.0694
     25 CL         -0.8181   71.3677   18.5598 Cl      1  UNL1       -0.0813
     26 C           0.9057   73.2412   19.5364 C.ar    1  UNL1        0.0268
     27 C          12.1127   77.7775   25.9009 C.2     1  UNL1        0.2443
     28 O          11.7404   78.9677   25.7152 O.2     1  UNL1       -0.2730
     29 N          13.3587   77.3129   25.3515 N.am    1  UNL1       -0.2825
     30 H          13.5169   76.2825   25.2852 H       1  UNL1        0.1549
     31 C          14.3321   78.1718   24.7365 C.ar    1  UNL1        0.0535
     32 C          15.1099   77.7399   23.6495 C.ar    1  UNL1        0.0353
     33 C          16.0273   78.6186   23.0678 C.ar    1  UNL1        0.1002
     34 N          16.1549   79.8858   23.5432 N.ar    1  UNL1       -0.2422
     35 C          15.4028   80.3354   24.5824 C.ar    1  UNL1        0.1002
     36 C          14.4728   79.4897   25.1916 C.ar    1  UNL1        0.0353
     37 C          10.8998   77.2979   28.0688 C.3     1  UNL1        0.0569
     38 N           4.6443   77.9479   30.5350 N.pl3   1  UNL1       -0.3570
     39 C           5.9554   77.6729   30.0357 C.ar    1  UNL1        0.0430
     40 C           6.7058   78.6990   29.4105 C.ar    1  UNL1        0.0142
     41 C           7.9969   78.4424   28.9164 C.ar    1  UNL1        0.0024
     42 C           8.5088   77.1536   29.0665 C.ar    1  UNL1        0.0132
     43 C           9.7267   76.6054   28.7096 C.ar    1  UNL1       -0.0017
     44 C           9.6728   75.2752   29.1179 C.ar    1  UNL1        0.0681
     45 N           8.4839   75.0084   29.7040 N.ar    1  UNL1       -0.3522
     46 C           7.7857   76.1566   29.6681 C.ar    1  UNL1        0.0576
     47 C           6.5032   76.3793   30.1667 C.ar    1  UNL1        0.0310
     48 H           4.0814   77.2001   30.9983 H       1  UNL1        0.1424
     49 H           4.2276   78.9015   30.4453 H       1  UNL1        0.1424
     50 H           8.1787   74.0963   30.1106 H       1  UNL1        0.1660
@<TRIPOS>BOND
     1    38    39    1
     2    39    40   ar
     3    40    41   ar
     4    41    42   ar
     5    42    43   ar
     6    43    37    1
     7    37     1    1
     8     1     2    1
     9     2     3   am
    10     3     4    2
    11     3     6    1
    12     6     7   ar
    13     7     8   ar
    14     8     9   ar
    15     9    13    1
    16    13    14    1
    17    14    15    1
    18    15    16    1
    19    16    19    1
    20    19    20   ar
    21    20    21   ar
    22    21    22   ar
    23    22    23    1
    24    22    24   ar
    25    24    25    1
    26    24    26   ar
    27    16    17    1
    28    17    18    1
    29     9    10   ar
    30    10    11   ar
    31    11    12    1
    32     1    27    1
    33    27    28    2
    34    27    29   am
    35    29    31    1
    36    31    32   ar
    37    32    33   ar
    38    33    34   ar
    39    34    35   ar
    40    35    36   ar
    41    43    44   ar
    42    44    45   ar
    43    45    46   ar
    44    46    47   ar
    45    47    39   ar
    46    46    42   ar
    47    11     6   ar
    48    36    31   ar
    49    18    13    1
    50    26    19   ar
    51    38    48    1
    52    38    49    1
    53     2     5    1
    54    29    30    1
    55    45    50    1
@<TRIPOS>MOLECULE
*****
 50 55 0 0 0
SMALL
GASTEIGER

@<TRIPOS>ATOM
      1 C          10.2242   78.0530   27.7998 C.3     1  UNL1        0.1535
      2 N           9.0631   77.6979   26.9764 N.am    1  UNL1       -0.2945
      3 C           9.1965   77.2120   25.6309 C.2     1  UNL1        0.2483
      4 O          10.3376   77.1580   25.0959 O.2     1  UNL1       -0.2701
      5 H           8.1138   77.9861   27.2981 H       1  UNL1        0.1501
      6 C           8.0035   76.7842   24.8601 C.ar    1  UNL1        0.0808
      7 C           8.0703   76.6569   23.4608 C.ar    1  UNL1        0.0080
      8 C           6.9504   76.2556   22.7288 C.ar    1  UNL1        0.0148
      9 C           5.7391   75.9781   23.3774 C.ar    1  UNL1        0.0502
     10 C           5.6651   76.1087   24.7730 C.ar    1  UNL1        0.0443
     11 C           6.7832   76.5114   25.5100 C.ar    1  UNL1        0.1457
     12 F           6.6743   76.6111   26.8593 F       1  UNL1       -0.2040
     13 N           4.5906   75.5593   22.6164 N.pl3   1  UNL1       -0.3040
     14 C           4.6296   74.3214   21.8288 C.3     1  UNL1        0.1122
     15 C           3.8779   74.5167   20.5116 C.3     1  UNL1        0.1122
     16 N           2.5673   75.1281   20.7636 N.pl3   1  UNL1       -0.3040
     17 C           2.5283   76.3657   21.5518 C.3     1  UNL1        0.1122
     18 C           3.2799   76.1702   22.8690 C.3     1  UNL1        0.1122
     19 C           1.4209   74.7135   19.9971 C.ar    1  UNL1        0.0488
     20 C           0.6294   75.6586   19.3236 C.ar    1  UNL1        0.0154
     21 C          -0.4826   75.2488   18.5836 C.ar    1  UNL1        0.0135
     22 C          -0.8202   73.8934   18.5081 C.ar    1  UNL1        0.0683
     23 CL         -2.2270   73.4167   17.5671 Cl      1  UNL1       -0.0814
     24 C          -0.0363   72.9412   19.1811 C.ar    1  UNL1        0.0694
     25 CL         -0.4292   71.2284   19.1182 Cl      1  UNL1       -0.0813
     26 C           1.0778   73.3542   19.9214 C.ar    1  UNL1        0.0268
     27 C          10.0119   79.3819   28.4821 C.2     1  UNL1        0.2443
     28 O           9.7654   80.3954   27.7736 O.2     1  UNL1       -0.2730
     29 N          10.1748   79.5139   29.9056 N.am    1  UNL1       -0.2825
     30 H          10.6341   78.7332   30.4257 H       1  UNL1        0.1549
     31 C           9.8954   80.7196   30.6347 C.ar    1  UNL1        0.0535
     32 C          10.2964   81.9774   30.1547 C.ar    1  UNL1        0.0353
     33 C           9.9813   83.1253   30.8863 C.ar    1  UNL1        0.1002
     34 N           9.2802   83.0245   32.0466 N.ar    1  UNL1       -0.2422
     35 C           8.8648   81.8219   32.5252 C.ar    1  UNL1        0.1002
     36 C           9.1576   80.6498   31.8240 C.ar    1  UNL1        0.0353
     37 C          10.5649   76.9347   28.8080 C.3     1  UNL1        0.0569
     38 N           4.3611   76.0621   31.3352 N.pl3   1  UNL1       -0.3570
     39 C           5.6667   76.1146   30.7551 C.ar    1  UNL1        0.0430
     40 C           6.3634   77.3462   30.6870 C.ar    1  UNL1        0.0142
     41 C           7.6485   77.4117   30.1203 C.ar    1  UNL1        0.0024
     42 C           8.2088   76.2298   29.6357 C.ar    1  UNL1        0.0132
     43 C           9.4347   75.9705   29.0516 C.ar    1  UNL1       -0.0017
     44 C           9.4385   74.6050   28.7789 C.ar    1  UNL1        0.0681
     45 N           8.2762   74.0403   29.1769 N.ar    1  UNL1       -0.3522
     46 C           7.5377   75.0361   29.6966 C.ar    1  UNL1        0.0576
     47 C           6.2626   74.9392   30.2511 C.ar    1  UNL1        0.0310
     48 H           3.8376   75.1602   31.3917 H       1  UNL1        0.1424
     49 H           3.9092   76.9247   31.7129 H       1  UNL1        0.1424
     50 H           8.0142   73.0321   29.1034 H       1  UNL1        0.1660
@<TRIPOS>BOND
     1    38    39    1
     2    39    40   ar
     3    40    41   ar
     4    41    42   ar
     5    42    43   ar
     6    43    37    1
     7    37     1    1
     8     1     2    1
     9     2     3   am
    10     3     4    2
    11     3     6    1
    12     6     7   ar
    13     7     8   ar
    14     8     9   ar
    15     9    13    1
    16    13    14    1
    17    14    15    1
    18    15    16    1
    19    16    19    1
    20    19    20   ar
    21    20    21   ar
    22    21    22   ar
    23    22    23    1
    24    22    24   ar
    25    24    25    1
    26    24    26   ar
    27    16    17    1
    28    17    18    1
    29     9    10   ar
    30    10    11   ar
    31    11    12    1
    32     1    27    1
    33    27    28    2
    34    27    29   am
    35    29    31    1
    36    31    32   ar
    37    32    33   ar
    38    33    34   ar
    39    34    35   ar
    40    35    36   ar
    41    43    44   ar
    42    44    45   ar
    43    45    46   ar
    44    46    47   ar
    45    47    39   ar
    46    46    42   ar
    47    11     6   ar
    48    36    31   ar
    49    18    13    1
    50    26    19   ar
    51    38    48    1
    52    38    49    1
    53     2     5    1
    54    29    30    1
    55    45    50    1
@<TRIPOS>MOLECULE
*****
 50 55 0 0 0
SMALL
GASTEIGER

@<TRIPOS>ATOM
      1 C           7.2439   74.2567   26.1259 C.3     1  UNL1        0.1535
      2 N           7.9667   75.4848   25.7771 N.am    1  UNL1       -0.2945
      3 C           9.0558   75.9853   26.5693 C.2     1  UNL1        0.2483
      4 O           9.3627   75.4062   27.6472 O.2     1  UNL1       -0.2701
      5 H           7.5615   76.1160   25.0525 H       1  UNL1        0.1501
      6 C           9.8158   77.1840   26.1379 C.ar    1  UNL1        0.0808
      7 C          11.1990   77.0989   25.8965 C.ar    1  UNL1        0.0080
      8 C          11.9207   78.2240   25.4912 C.ar    1  UNL1        0.0148
      9 C          11.2783   79.4585   25.3236 C.ar    1  UNL1        0.0502
     10 C           9.8993   79.5506   25.5685 C.ar    1  UNL1        0.0443
     11 C           9.1726   78.4272   25.9756 C.ar    1  UNL1        0.1457
     12 F           7.8380   78.5548   26.1877 F       1  UNL1       -0.2040
     13 N          12.0283   80.6125   24.9000 N.pl3   1  UNL1       -0.3040
     14 C          13.4952   80.6067   24.9484 C.3     1  UNL1        0.1122
     15 C          14.0087   81.9792   25.3851 C.3     1  UNL1        0.1122
     16 N          13.3525   83.0357   24.6053 N.pl3   1  UNL1       -0.3040
     17 C          11.8855   83.0411   24.5564 C.3     1  UNL1        0.1122
     18 C          11.3723   81.6686   24.1196 C.3     1  UNL1        0.1122
     19 C          14.1017   84.1926   24.1882 C.ar    1  UNL1        0.0488
     20 C          14.7566   84.2126   22.9457 C.ar    1  UNL1        0.0154
     21 C          15.4834   85.3380   22.5489 C.ar    1  UNL1        0.0135
     22 C          15.5680   86.4552   23.3864 C.ar    1  UNL1        0.0683
     23 CL         16.4921   87.8526   22.8523 Cl      1  UNL1       -0.0814
     24 C          14.9190   86.4432   24.6325 C.ar    1  UNL1        0.0694
     25 CL         15.0053   87.8235   25.7186 Cl      1  UNL1       -0.0813
     26 C          14.1909   85.3147   25.0275 C.ar    1  UNL1        0.0268
     27 C           6.3980   74.4635   27.3581 C.2     1  UNL1        0.2443
     28 O           5.7626   73.4819   27.8298 O.2     1  UNL1       -0.2730
     29 N           6.2443   75.7725   27.9353 N.am    1  UNL1       -0.2825
     30 H           6.5578   76.5989   27.3787 H       1  UNL1        0.1549
     31 C           5.5371   76.0296   29.1590 C.ar    1  UNL1        0.0535
     32 C           6.1561   75.8764   30.4106 C.ar    1  UNL1        0.0353
     33 C           5.4360   76.1615   31.5736 C.ar    1  UNL1        0.1002
     34 N           4.1507   76.5964   31.4915 N.ar    1  UNL1       -0.2422
     35 C           3.5330   76.7700   30.2931 C.ar    1  UNL1        0.1002
     36 C           4.2174   76.4979   29.1062 C.ar    1  UNL1        0.0353
     37 C           6.4114   73.7340   24.9356 C.3     1  UNL1        0.0569
     38 N           2.0430   78.7620   23.8076 N.pl3   1  UNL1       -0.3570
     39 C           3.0303   77.7349   23.9269 C.ar    1  UNL1        0.0430
     40 C           3.1181   76.9704   25.1163 C.ar    1  UNL1        0.0142
     41 C           4.0835   75.9564   25.2463 C.ar    1  UNL1        0.0024
     42 C           4.9410   75.7302   24.1698 C.ar    1  UNL1        0.0132
     43 C           5.9600   74.8136   23.9884 C.ar    1  UNL1       -0.0017
     44 C           6.4584   75.0553   22.7108 C.ar    1  UNL1        0.0681
     45 N           5.7817   76.0677   22.1232 N.ar    1  UNL1       -0.3522
     46 C           4.8621   76.4690   23.0179 C.ar    1  UNL1        0.0576
     47 C           3.9172   77.4814   22.8593 C.ar    1  UNL1        0.0310
     48 H           1.9680   79.3320   22.9358 H       1  UNL1        0.1424
     49 H           1.3798   78.9590   24.5901 H       1  UNL1        0.1424
     50 H           5.9382   76.4498   21.1640 H       1  UNL1        0.1660
@<TRIPOS>BOND
     1    38    39    1
     2    39    40   ar
     3    40    41   ar
     4    41    42   ar
     5    42    43   ar
     6    43    37    1
     7    37     1    1
     8     1     2    1
     9     2     3   am
    10     3     4    2
    11     3     6    1
    12     6     7   ar
    13     7     8   ar
    14     8     9   ar
    15     9    13    1
    16    13    14    1
    17    14    15    1
    18    15    16    1
    19    16    19    1
    20    19    20   ar
    21    20    21   ar
    22    21    22   ar
    23    22    23    1
    24    22    24   ar
    25    24    25    1
    26    24    26   ar
    27    16    17    1
    28    17    18    1
    29     9    10   ar
    30    10    11   ar
    31    11    12    1
    32     1    27    1
    33    27    28    2
    34    27    29   am
    35    29    31    1
    36    31    32   ar
    37    32    33   ar
    38    33    34   ar
    39    34    35   ar
    40    35    36   ar
    41    43    44   ar
    42    44    45   ar
    43    45    46   ar
    44    46    47   ar
    45    47    39   ar
    46    46    42   ar
    47    11     6   ar
    48    36    31   ar
    49    18    13    1
    50    26    19   ar
    51    38    48    1
    52    38    49    1
    53     2     5    1
    54    29    30    1
    55    45    50    1
@<TRIPOS>MOLECULE
*****
 50 55 0 0 0
SMALL
GASTEIGER

@<TRIPOS>ATOM
      1 C           7.8051   74.8057   25.2874 C.3     1  UNL1        0.1535
      2 N           8.3961   76.1479   25.3253 N.am    1  UNL1       -0.2945
      3 C           9.7571   76.3760   25.7249 C.2     1  UNL1        0.2483
      4 O          10.4580   75.4112   26.1363 O.2     1  UNL1       -0.2701
      5 H           7.7654   76.9753   25.2506 H       1  UNL1        0.1501
      6 C          10.3430   77.7377   25.6698 C.ar    1  UNL1        0.0808
      7 C          11.5621   77.9597   25.0039 C.ar    1  UNL1        0.0080
      8 C          12.1198   79.2392   24.9493 C.ar    1  UNL1        0.0148
      9 C          11.4754   80.3226   25.5623 C.ar    1  UNL1        0.0502
     10 C          10.2614   80.1059   26.2328 C.ar    1  UNL1        0.0443
     11 C           9.6997   78.8265   26.2914 C.ar    1  UNL1        0.1457
     12 F           8.5170   78.6618   26.9368 F       1  UNL1       -0.2040
     13 N          12.0539   81.6397   25.4966 N.pl3   1  UNL1       -0.3040
     14 C          11.8621   82.4793   24.3081 C.3     1  UNL1        0.1122
     15 C          13.1441   83.2555   24.0048 C.3     1  UNL1        0.1122
     16 N          13.6459   83.8989   25.2251 N.pl3   1  UNL1       -0.3040
     17 C          13.8370   83.0593   26.4139 C.3     1  UNL1        0.1122
     18 C          12.5549   82.2833   26.7171 C.3     1  UNL1        0.1122
     19 C          14.2306   85.2131   25.1571 C.ar    1  UNL1        0.0488
     20 C          14.6302   85.7567   23.9251 C.ar    1  UNL1        0.0154
     21 C          15.1987   87.0317   23.8674 C.ar    1  UNL1        0.0135
     22 C          15.3778   87.7785   25.0365 C.ar    1  UNL1        0.0683
     23 CL         16.0970   89.3791   24.9235 Cl      1  UNL1       -0.0814
     24 C          14.9841   87.2418   26.2739 C.ar    1  UNL1        0.0694
     25 CL         15.1975   88.1438   27.7681 Cl      1  UNL1       -0.0813
     26 C          14.4141   85.9643   26.3290 C.ar    1  UNL1        0.0268
     27 C           6.6126   74.7183   26.2077 C.2     1  UNL1        0.2443
     28 O           5.5376   75.2800   25.8631 O.2     1  UNL1       -0.2730
     29 N           6.7199   74.0846   27.4950 N.am    1  UNL1       -0.2825
     30 H           7.6735   73.8688   27.8625 H       1  UNL1        0.1549
     31 C           5.6079   73.8782   28.3806 C.ar    1  UNL1        0.0535
     32 C           4.8448   72.6996   28.3385 C.ar    1  UNL1        0.0353
     33 C           3.7872   72.5324   29.2361 C.ar    1  UNL1        0.1002
     34 N           3.5090   73.4985   30.1511 N.ar    1  UNL1       -0.2422
     35 C           4.2419   74.6409   30.2254 C.ar    1  UNL1        0.1002
     36 C           5.3088   74.8472   29.3477 C.ar    1  UNL1        0.0353
     37 C           7.4528   74.3843   23.8447 C.3     1  UNL1        0.0569
     38 N          13.2601   72.4752   20.9695 N.pl3   1  UNL1       -0.3570
     39 C          12.0295   72.9860   21.4877 C.ar    1  UNL1        0.0430
     40 C          11.2938   72.2351   22.4372 C.ar    1  UNL1        0.0142
     41 C          10.0827   72.7264   22.9559 C.ar    1  UNL1        0.0024
     42 C           9.6384   73.9706   22.5086 C.ar    1  UNL1        0.0132
     43 C           8.5207   74.7152   22.8365 C.ar    1  UNL1       -0.0017
     44 C           8.6091   75.8784   22.0762 C.ar    1  UNL1        0.0681
     45 N           9.7274   75.8625   21.3163 N.ar    1  UNL1       -0.3522
     46 C          10.3451   74.6998   21.5879 C.ar    1  UNL1        0.0576
     47 C          11.5477   74.2394   21.0544 C.ar    1  UNL1        0.0310
     48 H          13.8118   73.0196   20.2695 H       1  UNL1        0.1424
     49 H          13.6283   71.5494   21.2827 H       1  UNL1        0.1424
     50 H          10.0478   76.6096   20.6607 H       1  UNL1        0.1660
@<TRIPOS>BOND
     1    38    39    1
     2    39    40   ar
     3    40    41   ar
     4    41    42   ar
     5    42    43   ar
     6    43    37    1
     7    37     1    1
     8     1     2    1
     9     2     3   am
    10     3     4    2
    11     3     6    1
    12     6     7   ar
    13     7     8   ar
    14     8     9   ar
    15     9    13    1
    16    13    14    1
    17    14    15    1
    18    15    16    1
    19    16    19    1
    20    19    20   ar
    21    20    21   ar
    22    21    22   ar
    23    22    23    1
    24    22    24   ar
    25    24    25    1
    26    24    26   ar
    27    16    17    1
    28    17    18    1
    29     9    10   ar
    30    10    11   ar
    31    11    12    1
    32     1    27    1
    33    27    28    2
    34    27    29   am
    35    29    31    1
    36    31    32   ar
    37    32    33   ar
    38    33    34   ar
    39    34    35   ar
    40    35    36   ar
    41    43    44   ar
    42    44    45   ar
    43    45    46   ar
    44    46    47   ar
    45    47    39   ar
    46    46    42   ar
    47    11     6   ar
    48    36    31   ar
    49    18    13    1
    50    26    19   ar
    51    38    48    1
    52    38    49    1
    53     2     5    1
    54    29    30    1
    55    45    50    1
@<TRIPOS>MOLECULE
*****
 50 55 0 0 0
SMALL
GASTEIGER

@<TRIPOS>ATOM
      1 C          11.1476   78.0731   25.4152 C.3     1  UNL1        0.1535
      2 N           9.8945   77.6678   24.7689 N.am    1  UNL1       -0.2945
      3 C           9.4102   78.2972   23.5717 C.2     1  UNL1        0.2483
      4 O          10.0289   79.2858   23.0908 O.2     1  UNL1       -0.2701
      5 H           9.2401   77.0455   25.2907 H       1  UNL1        0.1501
      6 C           8.1824   77.8032   22.9016 C.ar    1  UNL1        0.0808
      7 C           7.2375   77.0468   23.6185 C.ar    1  UNL1        0.0080
      8 C           6.0799   76.5777   22.9933 C.ar    1  UNL1        0.0148
      9 C           5.8436   76.8490   21.6385 C.ar    1  UNL1        0.0502
     10 C           6.7857   77.5986   20.9168 C.ar    1  UNL1        0.0443
     11 C           7.9468   78.0694   21.5380 C.ar    1  UNL1        0.1457
     12 F           8.8255   78.8034   20.8089 F       1  UNL1       -0.2040
     13 N           4.6450   76.3667   21.0027 N.pl3   1  UNL1       -0.3040
     14 C           3.5670   77.2954   20.6429 C.3     1  UNL1        0.1122
     15 C           2.2082   76.6411   20.8950 C.3     1  UNL1        0.1122
     16 N           2.1786   75.2958   20.3082 N.pl3   1  UNL1       -0.3040
     17 C           3.2571   74.3672   20.6676 C.3     1  UNL1        0.1122
     18 C           4.6157   75.0217   20.4152 C.3     1  UNL1        0.1122
     19 C           0.9772   74.8118   19.6788 C.ar    1  UNL1        0.0488
     20 C          -0.0390   75.7022   19.2944 C.ar    1  UNL1        0.0154
     21 C          -1.2027   75.2248   18.6861 C.ar    1  UNL1        0.0135
     22 C          -1.3683   73.8550   18.4562 C.ar    1  UNL1        0.0683
     23 CL         -2.8468   73.2925   17.6884 Cl      1  UNL1       -0.0814
     24 C          -0.3587   72.9565   18.8402 C.ar    1  UNL1        0.0694
     25 CL         -0.5293   71.2264   18.5759 Cl      1  UNL1       -0.0813
     26 C           0.8066   73.4373   19.4489 C.ar    1  UNL1        0.0268
     27 C          10.9843   78.1297   26.9141 C.2     1  UNL1        0.2443
     28 O          11.7779   77.4677   27.6365 O.2     1  UNL1       -0.2730
     29 N           9.8913   78.8513   27.5097 N.am    1  UNL1       -0.2825
     30 H           9.1079   79.1614   26.8922 H       1  UNL1        0.1549
     31 C           9.7272   79.0302   28.9255 C.ar    1  UNL1        0.0535
     32 C          10.1974   80.1811   29.5793 C.ar    1  UNL1        0.0353
     33 C           9.9937   80.3228   30.9544 C.ar    1  UNL1        0.1002
     34 N           9.3334   79.3592   31.6497 N.ar    1  UNL1       -0.2422
     35 C           8.8527   78.2438   31.0392 C.ar    1  UNL1        0.1002
     36 C           9.0336   78.0636   29.6659 C.ar    1  UNL1        0.0353
     37 C          12.3200   77.1602   24.9966 C.3     1  UNL1        0.0569
     38 N          10.3940   71.4330   21.9755 N.pl3   1  UNL1       -0.3570
     39 C          10.8113   72.7012   22.4870 C.ar    1  UNL1        0.0430
     40 C          10.7851   72.9465   23.8819 C.ar    1  UNL1        0.0142
     41 C          11.1941   74.1886   24.3985 C.ar    1  UNL1        0.0024
     42 C          11.6265   75.1601   23.4958 C.ar    1  UNL1        0.0132
     43 C          12.0977   76.4452   23.6905 C.ar    1  UNL1       -0.0017
     44 C          12.3834   76.9361   22.4191 C.ar    1  UNL1        0.0681
     45 N          12.1090   76.0033   21.4796 N.ar    1  UNL1       -0.3522
     46 C          11.6511   74.9287   22.1450 C.ar    1  UNL1        0.0576
     47 C          11.2508   73.7087   21.6025 C.ar    1  UNL1        0.0310
     48 H          10.4092   71.2399   20.9492 H       1  UNL1        0.1424
     49 H          10.0674   70.6784   22.6195 H       1  UNL1        0.1424
     50 H          12.2386   76.0990   20.4478 H       1  UNL1        0.1660
@<TRIPOS>BOND
     1    38    39    1
     2    39    40   ar
     3    40    41   ar
     4    41    42   ar
     5    42    43   ar
     6    43    37    1
     7    37     1    1
     8     1     2    1
     9     2     3   am
    10     3     4    2
    11     3     6    1
    12     6     7   ar
    13     7     8   ar
    14     8     9   ar
    15     9    13    1
    16    13    14    1
    17    14    15    1
    18    15    16    1
    19    16    19    1
    20    19    20   ar
    21    20    21   ar
    22    21    22   ar
    23    22    23    1
    24    22    24   ar
    25    24    25    1
    26    24    26   ar
    27    16    17    1
    28    17    18    1
    29     9    10   ar
    30    10    11   ar
    31    11    12    1
    32     1    27    1
    33    27    28    2
    34    27    29   am
    35    29    31    1
    36    31    32   ar
    37    32    33   ar
    38    33    34   ar
    39    34    35   ar
    40    35    36   ar
    41    43    44   ar
    42    44    45   ar
    43    45    46   ar
    44    46    47   ar
    45    47    39   ar
    46    46    42   ar
    47    11     6   ar
    48    36    31   ar
    49    18    13    1
    50    26    19   ar
    51    38    48    1
    52    38    49    1
    53     2     5    1
    54    29    30    1
    55    45    50    1
@<TRIPOS>MOLECULE
*****
 50 55 0 0 0
SMALL
GASTEIGER

@<TRIPOS>ATOM
      1 C          10.7711   79.6189   25.2183 C.3     1  UNL1        0.1535
      2 N           9.5461   79.1129   24.5892 N.am    1  UNL1       -0.2945
      3 C           9.4051   79.0019   23.1637 C.2     1  UNL1        0.2483
      4 O          10.3246   79.4233   22.4099 O.2     1  UNL1       -0.2701
      5 H           8.6872   79.0146   25.1725 H       1  UNL1        0.1501
      6 C           8.1832   78.4072   22.5691 C.ar    1  UNL1        0.0808
      7 C           7.6254   78.9527   21.3985 C.ar    1  UNL1        0.0080
      8 C           6.4743   78.3982   20.8341 C.ar    1  UNL1        0.0148
      9 C           5.8528   77.2914   21.4288 C.ar    1  UNL1        0.0502
     10 C           6.4019   76.7464   22.6000 C.ar    1  UNL1        0.0443
     11 C           7.5535   77.2988   23.1697 C.ar    1  UNL1        0.1457
     12 F           8.0614   76.7331   24.2941 F       1  UNL1       -0.2040
     13 N           4.6697   76.7220   20.8376 N.pl3   1  UNL1       -0.3040
     14 C           3.4838   77.5525   20.5962 C.3     1  UNL1        0.1122
     15 C           2.2158   76.7498   20.8894 C.3     1  UNL1        0.1122
     16 N           2.2823   75.4407   20.2284 N.pl3   1  UNL1       -0.3040
     17 C           3.4686   74.6105   20.4694 C.3     1  UNL1        0.1122
     18 C           4.7364   75.4133   20.1760 C.3     1  UNL1        0.1122
     19 C           1.0970   74.8691   19.6437 C.ar    1  UNL1        0.0488
     20 C           0.0841   75.6935   19.1264 C.ar    1  UNL1        0.0154
     21 C          -1.0641   75.1314   18.5625 C.ar    1  UNL1        0.0135
     22 C          -1.2172   73.7420   18.5097 C.ar    1  UNL1        0.0683
     23 CL         -2.6763   73.0722   17.7925 Cl      1  UNL1       -0.0814
     24 C          -0.2109   72.9095   19.0275 C.ar    1  UNL1        0.0694
     25 CL         -0.3663   71.1584   18.9875 Cl      1  UNL1       -0.0813
     26 C           0.9389   73.4750   19.5914 C.ar    1  UNL1        0.0268
     27 C          10.5071   80.0439   26.6418 C.2     1  UNL1        0.2443
     28 O          10.6714   81.2544   26.9541 O.2     1  UNL1       -0.2730
     29 N          10.1614   79.0754   27.6480 N.am    1  UNL1       -0.2825
     30 H          10.2927   78.0630   27.4266 H       1  UNL1        0.1549
     31 C           9.8022   79.4157   28.9966 C.ar    1  UNL1        0.0535
     32 C          10.0522   80.6940   29.5225 C.ar    1  UNL1        0.0353
     33 C           9.6632   80.9872   30.8321 C.ar    1  UNL1        0.1002
     34 N           9.0357   80.0453   31.5851 N.ar    1  UNL1       -0.2422
     35 C           8.7658   78.8062   31.0955 C.ar    1  UNL1        0.1002
     36 C           9.1364   78.4724   29.7908 C.ar    1  UNL1        0.0353
     37 C          11.9192   78.5910   25.1265 C.3     1  UNL1        0.0569
     38 N          10.7840   72.9027   21.6635 N.pl3   1  UNL1       -0.3570
     39 C          10.9923   74.0344   22.5120 C.ar    1  UNL1        0.0430
     40 C          11.5491   75.2246   21.9826 C.ar    1  UNL1        0.0142
     41 C          11.7579   76.3454   22.8056 C.ar    1  UNL1        0.0024
     42 C          11.3964   76.2448   24.1490 C.ar    1  UNL1        0.0132
     43 C          11.4592   77.1586   25.1845 C.ar    1  UNL1       -0.0017
     44 C          10.9517   76.4968   26.2995 C.ar    1  UNL1        0.0681
     45 N          10.5864   75.2360   25.9752 N.ar    1  UNL1       -0.3522
     46 C          10.8599   75.0945   24.6667 C.ar    1  UNL1        0.0576
     47 C          10.6421   73.9668   23.8770 C.ar    1  UNL1        0.0310
     48 H          10.3739   72.0199   22.0418 H       1  UNL1        0.1424
     49 H          11.0380   72.9401   20.6511 H       1  UNL1        0.1424
     50 H          10.1668   74.5236   26.6132 H       1  UNL1        0.1660
@<TRIPOS>BOND
     1    38    39    1
     2    39    40   ar
     3    40    41   ar
     4    41    42   ar
     5    42    43   ar
     6    43    37    1
     7    37     1    1
     8     1     2    1
     9     2     3   am
    10     3     4    2
    11     3     6    1
    12     6     7   ar
    13     7     8   ar
    14     8     9   ar
    15     9    13    1
    16    13    14    1
    17    14    15    1
    18    15    16    1
    19    16    19    1
    20    19    20   ar
    21    20    21   ar
    22    21    22   ar
    23    22    23    1
    24    22    24   ar
    25    24    25    1
    26    24    26   ar
    27    16    17    1
    28    17    18    1
    29     9    10   ar
    30    10    11   ar
    31    11    12    1
    32     1    27    1
    33    27    28    2
    34    27    29   am
    35    29    31    1
    36    31    32   ar
    37    32    33   ar
    38    33    34   ar
    39    34    35   ar
    40    35    36   ar
    41    43    44   ar
    42    44    45   ar
    43    45    46   ar
    44    46    47   ar
    45    47    39   ar
    46    46    42   ar
    47    11     6   ar
    48    36    31   ar
    49    18    13    1
    50    26    19   ar
    51    38    48    1
    52    38    49    1
    53     2     5    1
    54    29    30    1
    55    45    50    1
@<TRIPOS>MOLECULE
*****
 50 55 0 0 0
SMALL
GASTEIGER

@<TRIPOS>ATOM
      1 C           8.3259   75.9019   25.2946 C.3     1  UNL1        0.1535
      2 N           9.2672   77.0187   25.1572 N.am    1  UNL1       -0.2945
      3 C           8.8371   78.3895   25.1603 C.2     1  UNL1        0.2483
      4 O           7.6052   78.6581   25.2017 O.2     1  UNL1       -0.2701
      5 H          10.2446   76.8158   24.8550 H       1  UNL1        0.1501
      6 C           9.8273   79.4925   25.1035 C.ar    1  UNL1        0.0808
      7 C          10.5808   79.7108   23.9358 C.ar    1  UNL1        0.0080
      8 C          11.5156   80.7469   23.8760 C.ar    1  UNL1        0.0148
      9 C          11.7219   81.5833   24.9818 C.ar    1  UNL1        0.0502
     10 C          10.9768   81.3666   26.1515 C.ar    1  UNL1        0.0443
     11 C          10.0406   80.3298   26.2166 C.ar    1  UNL1        0.1457
     12 F           9.3299   80.1630   27.3610 F       1  UNL1       -0.2040
     13 N          12.6834   82.6529   24.9103 N.pl3   1  UNL1       -0.3040
     14 C          13.6720   82.8388   25.9791 C.3     1  UNL1        0.1122
     15 C          13.8872   84.3305   26.2375 C.3     1  UNL1        0.1122
     16 N          14.1076   85.0363   24.9693 N.pl3   1  UNL1       -0.3040
     17 C          13.1193   84.8497   23.9001 C.3     1  UNL1        0.1122
     18 C          12.9042   83.3581   23.6419 C.3     1  UNL1        0.1122
     19 C          15.0643   86.1103   24.9006 C.ar    1  UNL1        0.0488
     20 C          15.9477   86.2147   23.8135 C.ar    1  UNL1        0.0154
     21 C          16.8746   87.2585   23.7550 C.ar    1  UNL1        0.0135
     22 C          16.9336   88.2087   24.7799 C.ar    1  UNL1        0.0683
     23 CL         18.1138   89.5076   24.6708 Cl      1  UNL1       -0.0814
     24 C          16.0562   88.1106   25.8729 C.ar    1  UNL1        0.0694
     25 CL         16.1013   89.2796   27.1858 Cl      1  UNL1       -0.0813
     26 C          15.1279   87.0642   25.9289 C.ar    1  UNL1        0.0268
     27 C           8.7352   74.7441   24.4179 C.2     1  UNL1        0.2443
     28 O           7.8627   73.8971   24.0846 O.2     1  UNL1       -0.2730
     29 N          10.1109   74.5557   24.0406 N.am    1  UNL1       -0.2825
     30 H          10.8418   75.1083   24.5421 H       1  UNL1        0.1549
     31 C          10.5594   73.5370   23.1327 C.ar    1  UNL1        0.0535
     32 C          11.8827   73.5036   22.6624 C.ar    1  UNL1        0.0353
     33 C          12.2804   72.4794   21.7993 C.ar    1  UNL1        0.1002
     34 N          11.3955   71.5160   21.4294 N.ar    1  UNL1       -0.2422
     35 C          10.1141   71.5142   21.8832 C.ar    1  UNL1        0.1002
     36 C           9.6760   72.5192   22.7488 C.ar    1  UNL1        0.0353
     37 C           8.1630   75.4788   26.7703 C.3     1  UNL1        0.0569
     38 N           8.5272   80.4384   31.3427 N.pl3   1  UNL1       -0.3570
     39 C           8.5837   79.3603   30.4055 C.ar    1  UNL1        0.0430
     40 C           7.4020   78.9178   29.7616 C.ar    1  UNL1        0.0142
     41 C           7.4436   77.8596   28.8367 C.ar    1  UNL1        0.0024
     42 C           8.6803   77.2695   28.5757 C.ar    1  UNL1        0.0132
     43 C           9.0430   76.2436   27.7229 C.ar    1  UNL1       -0.0017
     44 C          10.4180   76.0925   27.8820 C.ar    1  UNL1        0.0681
     45 N          10.8899   76.9820   28.7845 N.ar    1  UNL1       -0.3522
     46 C           9.8261   77.6921   29.1981 C.ar    1  UNL1        0.0576
     47 C           9.8170   78.7372   30.1203 C.ar    1  UNL1        0.0310
     48 H           9.3914   80.7740   31.8235 H       1  UNL1        0.1424
     49 H           7.6208   80.9088   31.5619 H       1  UNL1        0.1424
     50 H          11.8826   77.0975   29.0873 H       1  UNL1        0.1660
@<TRIPOS>BOND
     1    38    39    1
     2    39    40   ar
     3    40    41   ar
     4    41    42   ar
     5    42    43   ar
     6    43    37    1
     7    37     1    1
     8     1     2    1
     9     2     3   am
    10     3     4    2
    11     3     6    1
    12     6     7   ar
    13     7     8   ar
    14     8     9   ar
    15     9    13    1
    16    13    14    1
    17    14    15    1
    18    15    16    1
    19    16    19    1
    20    19    20   ar
    21    20    21   ar
    22    21    22   ar
    23    22    23    1
    24    22    24   ar
    25    24    25    1
    26    24    26   ar
    27    16    17    1
    28    17    18    1
    29     9    10   ar
    30    10    11   ar
    31    11    12    1
    32     1    27    1
    33    27    28    2
    34    27    29   am
    35    29    31    1
    36    31    32   ar
    37    32    33   ar
    38    33    34   ar
    39    34    35   ar
    40    35    36   ar
    41    43    44   ar
    42    44    45   ar
    43    45    46   ar
    44    46    47   ar
    45    47    39   ar
    46    46    42   ar
    47    11     6   ar
    48    36    31   ar
    49    18    13    1
    50    26    19   ar
    51    38    48    1
    52    38    49    1
    53     2     5    1
    54    29    30    1
    55    45    50    1
