@<TRIPOS>MOLECULE
*****
 50 55 0 0 0
SMALL
GASTEIGER

@<TRIPOS>ATOM
      1 O          -9.1608  -12.2194   31.2131 O.2     1  UNL1       -0.2701
      2 C          -9.4872  -12.2926   29.9965 C.2     1  UNL1        0.2483
      3 N         -10.6683  -11.6199   29.5336 N.am    1  UNL1       -0.2945
      4 H         -10.7878  -11.4648   28.5068 H       1  UNL1        0.1501
      5 C          -8.6255  -13.0464   29.0583 C.ar    1  UNL1        0.0808
      6 C          -9.1757  -14.0906   28.2979 C.ar    1  UNL1        0.0080
      7 C          -8.3808  -14.8187   27.4092 C.ar    1  UNL1        0.0148
      8 C          -7.0177  -14.5129   27.2531 C.ar    1  UNL1        0.0502
      9 C          -6.4727  -13.4533   27.9993 C.ar    1  UNL1        0.0443
     10 C          -7.2654  -12.7242   28.8911 C.ar    1  UNL1        0.1457
     11 F          -6.7086  -11.6771   29.5504 F       1  UNL1       -0.2040
     12 N          -6.1949  -15.2628   26.3311 N.pl3   1  UNL1       -0.3040
     13 C          -5.7397  -14.6465   25.0763 C.3     1  UNL1        0.1122
     14 C          -5.5679  -15.7039   23.9813 C.3     1  UNL1        0.1122
     15 N          -4.7402  -16.8298   24.4417 N.pl3   1  UNL1       -0.3041
     16 C          -4.5102  -17.0315   25.8797 C.3     1  UNL1        0.1122
     17 C          -5.7407  -16.6152   26.6915 C.3     1  UNL1        0.1122
     18 C          -4.0881  -17.6821   23.4735 C.ar    1  UNL1        0.0479
     19 C          -2.6851  -17.7558   23.4189 C.ar    1  UNL1        0.0145
     20 C          -2.0547  -18.5685   22.4751 C.ar    1  UNL1        0.0012
     21 C          -2.8126  -19.3270   21.5817 C.ar    1  UNL1        0.0039
     22 C          -4.2159  -19.2957   21.6365 C.ar    1  UNL1        0.0726
     23 C          -4.8452  -18.4535   22.5707 C.ar    1  UNL1        0.0184
     24 C          -5.0381  -20.0805   20.6447 C.3     1  UNL1        0.4186
     25 F          -5.7013  -19.2022   19.8083 F       1  UNL1       -0.1659
     26 F          -5.9680  -20.8694   21.2995 F       1  UNL1       -0.1659
     27 F          -4.2315  -20.9072   19.8818 F       1  UNL1       -0.1659
     28 C         -11.6202  -10.9965   30.4580 C.3     1  UNL1        0.1535
     29 C         -12.2975  -12.0561   31.2843 C.2     1  UNL1        0.2443
     30 O         -13.5481  -12.0085   31.4390 O.2     1  UNL1       -0.2730
     31 N         -11.5325  -13.1297   31.8579 N.am    1  UNL1       -0.2825
     32 H         -10.5690  -13.2961   31.4890 H       1  UNL1        0.1549
     33 C         -12.0473  -14.0555   32.8297 C.ar    1  UNL1        0.0535
     34 C         -11.7265  -13.8828   34.1830 C.ar    1  UNL1        0.0353
     35 C         -12.2430  -14.7656   35.1345 C.ar    1  UNL1        0.1002
     36 N         -13.0665  -15.7764   34.7506 N.ar    1  UNL1       -0.2422
     37 C         -13.4121  -15.9574   33.4485 C.ar    1  UNL1        0.1002
     38 C         -12.9164  -15.0978   32.4648 C.ar    1  UNL1        0.0353
     39 C         -10.9131   -9.9808   31.3723 C.3     1  UNL1        0.0569
     40 C         -11.3426   -8.5768   31.0581 C.ar    1  UNL1       -0.0016
     41 C         -12.6435   -8.0829   31.0790 C.ar    1  UNL1        0.0681
     42 N         -12.6483   -6.7548   30.8235 N.ar    1  UNL1       -0.3523
     43 C         -11.3616   -6.4051   30.6511 C.ar    1  UNL1        0.0564
     44 C         -10.8604   -5.1317   30.3855 C.ar    1  UNL1        0.0174
     45 C          -9.4665   -4.9861   30.2619 C.ar    1  UNL1        0.0073
     46 C          -8.6134   -6.1038   30.4078 C.ar    1  UNL1        0.0301
     47 I          -6.5269   -5.8637   30.2254 I       1  UNL1       -0.0425
     48 C          -9.1488   -7.3772   30.6773 C.ar    1  UNL1        0.0069
     49 C         -10.5345   -7.4897   30.7903 C.ar    1  UNL1        0.0135
     50 H         -13.4831   -6.1287   30.7854 H       1  UNL1        0.1660
@<TRIPOS>BOND
     1     1     2    2
     2     2     3   am
     3     3    28    1
     4    28    39    1
     5    39    40    1
     6    40    41   ar
     7    41    42   ar
     8    42    43   ar
     9    43    44   ar
    10    44    45   ar
    11    45    46   ar
    12    46    47    1
    13    46    48   ar
    14    48    49   ar
    15    28    29    1
    16    29    30    2
    17    29    31   am
    18    31    33    1
    19    33    34   ar
    20    34    35   ar
    21    35    36   ar
    22    36    37   ar
    23    37    38   ar
    24     2     5    1
    25     5     6   ar
    26     6     7   ar
    27     7     8   ar
    28     8    12    1
    29    12    13    1
    30    13    14    1
    31    14    15    1
    32    15    18    1
    33    18    19   ar
    34    19    20   ar
    35    20    21   ar
    36    21    22   ar
    37    22    24    1
    38    24    25    1
    39    24    26    1
    40    24    27    1
    41    22    23   ar
    42    15    16    1
    43    16    17    1
    44     8     9   ar
    45     9    10   ar
    46    10    11    1
    47    49    40   ar
    48    38    33   ar
    49    10     5   ar
    50    49    43   ar
    51    17    12    1
    52    23    18   ar
    53     3     4    1
    54    42    50    1
    55    31    32    1
@<TRIPOS>MOLECULE
*****
 50 55 0 0 0
SMALL
GASTEIGER

@<TRIPOS>ATOM
      1 O         -10.3202  -12.5563   29.7183 O.2     1  UNL1       -0.2701
      2 C          -9.0726  -12.6975   29.8430 C.2     1  UNL1        0.2483
      3 N          -8.4123  -12.1972   31.0157 N.am    1  UNL1       -0.2945
      4 H          -7.4495  -12.5405   31.2346 H       1  UNL1        0.1501
      5 C          -8.3141  -13.4082   28.7891 C.ar    1  UNL1        0.0808
      6 C          -8.9485  -14.4049   28.0306 C.ar    1  UNL1        0.0080
      7 C          -8.2514  -15.0919   27.0337 C.ar    1  UNL1        0.0148
      8 C          -6.9048  -14.7911   26.7653 C.ar    1  UNL1        0.0502
      9 C          -6.2767  -13.7781   27.5109 C.ar    1  UNL1        0.0443
     10 C          -6.9713  -13.0903   28.5108 C.ar    1  UNL1        0.1457
     11 F          -6.3398  -12.0854   29.1683 F       1  UNL1       -0.2040
     12 N          -6.1834  -15.4983   25.7314 N.pl3   1  UNL1       -0.3040
     13 C          -6.3808  -15.1453   24.3180 C.3     1  UNL1        0.1122
     14 C          -6.1745  -16.3673   23.4176 C.3     1  UNL1        0.1122
     15 N          -4.8983  -17.0411   23.7042 N.pl3   1  UNL1       -0.3041
     16 C          -4.1914  -16.7683   24.9639 C.3     1  UNL1        0.1122
     17 C          -5.1849  -16.5137   26.1018 C.3     1  UNL1        0.1122
     18 C          -4.3044  -17.9035   22.7079 C.ar    1  UNL1        0.0479
     19 C          -4.9938  -19.0378   22.2442 C.ar    1  UNL1        0.0145
     20 C          -4.4149  -19.8784   21.2921 C.ar    1  UNL1        0.0012
     21 C          -3.1478  -19.5944   20.7806 C.ar    1  UNL1        0.0039
     22 C          -2.4515  -18.4502   21.2036 C.ar    1  UNL1        0.0726
     23 C          -3.0277  -17.6225   22.1839 C.ar    1  UNL1        0.0184
     24 C          -1.0641  -18.1634   20.6855 C.3     1  UNL1        0.4186
     25 F          -0.7681  -16.8293   20.8930 F       1  UNL1       -0.1659
     26 F          -0.9839  -18.4381   19.3312 F       1  UNL1       -0.1659
     27 F          -0.1241  -18.9408   21.3399 F       1  UNL1       -0.1659
     28 C          -9.1047  -11.3596   31.9996 C.3     1  UNL1        0.1535
     29 C         -10.0086  -12.2115   32.8490 C.2     1  UNL1        0.2443
     30 O          -9.7631  -12.3297   34.0802 O.2     1  UNL1       -0.2730
     31 N         -11.1589  -12.8513   32.2705 N.am    1  UNL1       -0.2825
     32 H         -11.4876  -12.5164   31.3368 H       1  UNL1        0.1549
     33 C         -11.9488  -13.8473   32.9417 C.ar    1  UNL1        0.0535
     34 C         -12.4971  -14.9044   32.2027 C.ar    1  UNL1        0.0353
     35 C         -13.2459  -15.8879   32.8534 C.ar    1  UNL1        0.1002
     36 N         -13.4268  -15.8283   34.1992 N.ar    1  UNL1       -0.2422
     37 C         -12.8907  -14.8268   34.9457 C.ar    1  UNL1        0.1002
     38 C         -12.1362  -13.8223   34.3342 C.ar    1  UNL1        0.0353
     39 C          -8.0972  -10.6064   32.8858 C.3     1  UNL1        0.0569
     40 C          -7.2500   -9.6721   32.0710 C.ar    1  UNL1       -0.0016
     41 C          -5.9212   -9.8637   31.7045 C.ar    1  UNL1        0.0681
     42 N          -5.5033   -8.8580   30.9023 N.ar    1  UNL1       -0.3523
     43 C          -6.5592   -8.0394   30.7522 C.ar    1  UNL1        0.0564
     44 C          -6.6220   -6.8719   29.9932 C.ar    1  UNL1        0.0174
     45 C          -7.8434   -6.1745   29.9590 C.ar    1  UNL1        0.0073
     46 C          -8.9637   -6.6557   30.6742 C.ar    1  UNL1        0.0301
     47 I         -10.7871   -5.5996   30.6050 I       1  UNL1       -0.0425
     48 C          -8.8703   -7.8388   31.4309 C.ar    1  UNL1        0.0069
     49 C          -7.6451   -8.5050   31.4478 C.ar    1  UNL1        0.0135
     50 H          -4.5565   -8.7519   30.4750 H       1  UNL1        0.1660
@<TRIPOS>BOND
     1     1     2    2
     2     2     3   am
     3     3    28    1
     4    28    39    1
     5    39    40    1
     6    40    41   ar
     7    41    42   ar
     8    42    43   ar
     9    43    44   ar
    10    44    45   ar
    11    45    46   ar
    12    46    47    1
    13    46    48   ar
    14    48    49   ar
    15    28    29    1
    16    29    30    2
    17    29    31   am
    18    31    33    1
    19    33    34   ar
    20    34    35   ar
    21    35    36   ar
    22    36    37   ar
    23    37    38   ar
    24     2     5    1
    25     5     6   ar
    26     6     7   ar
    27     7     8   ar
    28     8    12    1
    29    12    13    1
    30    13    14    1
    31    14    15    1
    32    15    18    1
    33    18    19   ar
    34    19    20   ar
    35    20    21   ar
    36    21    22   ar
    37    22    24    1
    38    24    25    1
    39    24    26    1
    40    24    27    1
    41    22    23   ar
    42    15    16    1
    43    16    17    1
    44     8     9   ar
    45     9    10   ar
    46    10    11    1
    47    49    40   ar
    48    38    33   ar
    49    10     5   ar
    50    49    43   ar
    51    17    12    1
    52    23    18   ar
    53     3     4    1
    54    42    50    1
    55    31    32    1
@<TRIPOS>MOLECULE
*****
 50 55 0 0 0
SMALL
GASTEIGER

@<TRIPOS>ATOM
      1 O          -6.3632  -10.7128   30.6814 O.2     1  UNL1       -0.2701
      2 C          -7.3245  -11.5296   30.6541 C.2     1  UNL1        0.2483
      3 N          -8.3147  -11.5000   31.6934 N.am    1  UNL1       -0.2945
      4 H          -9.2267  -11.9846   31.5317 H       1  UNL1        0.1501
      5 C          -7.4322  -12.4857   29.5293 C.ar    1  UNL1        0.0808
      6 C          -6.2878  -12.8118   28.7842 C.ar    1  UNL1        0.0080
      7 C          -6.3663  -13.7084   27.7157 C.ar    1  UNL1        0.0148
      8 C          -7.5907  -14.3078   27.3730 C.ar    1  UNL1        0.0502
      9 C          -8.7318  -13.9970   28.1332 C.ar    1  UNL1        0.0443
     10 C          -8.6567  -13.0983   29.2019 C.ar    1  UNL1        0.1457
     11 F          -9.7725  -12.8692   29.9391 F       1  UNL1       -0.2040
     12 N          -7.6726  -15.2387   26.2702 N.pl3   1  UNL1       -0.3040
     13 C          -6.4639  -15.5988   25.5147 C.3     1  UNL1        0.1122
     14 C          -6.8103  -15.9340   24.0607 C.3     1  UNL1        0.1122
     15 N          -7.8970  -16.9224   23.9776 N.pl3   1  UNL1       -0.3041
     16 C          -8.7497  -17.1754   25.1481 C.3     1  UNL1        0.1122
     17 C          -8.9538  -15.8929   25.9606 C.3     1  UNL1        0.1122
     18 C          -8.0666  -17.7004   22.7714 C.ar    1  UNL1        0.0479
     19 C          -6.9564  -18.0325   21.9750 C.ar    1  UNL1        0.0145
     20 C          -7.1214  -18.7723   20.8029 C.ar    1  UNL1        0.0012
     21 C          -8.3916  -19.2012   20.4148 C.ar    1  UNL1        0.0039
     22 C          -9.5128  -18.9100   21.2093 C.ar    1  UNL1        0.0726
     23 C          -9.3441  -18.1402   22.3742 C.ar    1  UNL1        0.0184
     24 C         -10.8924  -19.3345   20.7709 C.3     1  UNL1        0.4186
     25 F         -10.8936  -19.5331   19.4030 F       1  UNL1       -0.1659
     26 F         -11.8243  -18.3608   21.0864 F       1  UNL1       -0.1659
     27 F         -11.2677  -20.5104   21.3974 F       1  UNL1       -0.1659
     28 C          -8.1564  -10.6742   32.8943 C.3     1  UNL1        0.1535
     29 C          -7.9984   -9.2298   32.5032 C.2     1  UNL1        0.2443
     30 O          -7.6266   -8.3952   33.3722 O.2     1  UNL1       -0.2730
     31 N          -8.2320   -8.8146   31.1467 N.am    1  UNL1       -0.2825
     32 H          -8.2629   -9.5523   30.4072 H       1  UNL1        0.1549
     33 C          -8.3182   -7.4420   30.7284 C.ar    1  UNL1        0.0535
     34 C          -9.5612   -6.9121   30.3564 C.ar    1  UNL1        0.0353
     35 C          -9.6548   -5.5725   29.9716 C.ar    1  UNL1        0.1002
     36 N          -8.5482   -4.7832   29.9747 N.ar    1  UNL1       -0.2422
     37 C          -7.3330   -5.2628   30.3495 C.ar    1  UNL1        0.1002
     38 C          -7.1952   -6.5972   30.7403 C.ar    1  UNL1        0.0353
     39 C          -9.3603  -10.8407   33.8380 C.3     1  UNL1        0.0569
     40 C         -10.6567  -10.7317   33.0884 C.ar    1  UNL1       -0.0016
     41 C         -11.1928   -9.5792   32.5217 C.ar    1  UNL1        0.0681
     42 N         -12.3327   -9.8682   31.8535 N.ar    1  UNL1       -0.3523
     43 C         -12.5150  -11.1936   31.9858 C.ar    1  UNL1        0.0564
     44 C         -13.5477  -11.9621   31.4509 C.ar    1  UNL1        0.0174
     45 C         -13.5329  -13.3470   31.6979 C.ar    1  UNL1        0.0073
     46 C         -12.4958  -13.9275   32.4633 C.ar    1  UNL1        0.0301
     47 I         -12.4880  -16.0059   32.8167 I       1  UNL1       -0.0425
     48 C         -11.4654  -13.1259   32.9892 C.ar    1  UNL1        0.0069
     49 C         -11.5103  -11.7562   32.7302 C.ar    1  UNL1        0.0135
     50 H         -12.9365   -9.1973   31.3286 H       1  UNL1        0.1660
@<TRIPOS>BOND
     1     1     2    2
     2     2     3   am
     3     3    28    1
     4    28    39    1
     5    39    40    1
     6    40    41   ar
     7    41    42   ar
     8    42    43   ar
     9    43    44   ar
    10    44    45   ar
    11    45    46   ar
    12    46    47    1
    13    46    48   ar
    14    48    49   ar
    15    28    29    1
    16    29    30    2
    17    29    31   am
    18    31    33    1
    19    33    34   ar
    20    34    35   ar
    21    35    36   ar
    22    36    37   ar
    23    37    38   ar
    24     2     5    1
    25     5     6   ar
    26     6     7   ar
    27     7     8   ar
    28     8    12    1
    29    12    13    1
    30    13    14    1
    31    14    15    1
    32    15    18    1
    33    18    19   ar
    34    19    20   ar
    35    20    21   ar
    36    21    22   ar
    37    22    24    1
    38    24    25    1
    39    24    26    1
    40    24    27    1
    41    22    23   ar
    42    15    16    1
    43    16    17    1
    44     8     9   ar
    45     9    10   ar
    46    10    11    1
    47    49    40   ar
    48    38    33   ar
    49    10     5   ar
    50    49    43   ar
    51    17    12    1
    52    23    18   ar
    53     3     4    1
    54    42    50    1
    55    31    32    1
@<TRIPOS>MOLECULE
*****
 50 55 0 0 0
SMALL
GASTEIGER

@<TRIPOS>ATOM
      1 O          -9.0971  -12.0873   31.7321 O.2     1  UNL1       -0.2701
      2 C          -9.4995  -11.9560   30.5435 C.2     1  UNL1        0.2483
      3 N         -10.5389  -11.0122   30.2430 N.am    1  UNL1       -0.2945
      4 H         -10.6812  -10.7217   29.2490 H       1  UNL1        0.1501
      5 C          -8.8676  -12.7570   29.4711 C.ar    1  UNL1        0.0808
      6 C          -9.6469  -13.6572   28.7271 C.ar    1  UNL1        0.0080
      7 C          -9.0714  -14.4268   27.7131 C.ar    1  UNL1        0.0148
      8 C          -7.7034  -14.3071   27.4127 C.ar    1  UNL1        0.0502
      9 C          -6.9284  -13.3898   28.1440 C.ar    1  UNL1        0.0443
     10 C          -7.5013  -12.6198   29.1609 C.ar    1  UNL1        0.1457
     11 F          -6.7261  -11.7106   29.8040 F       1  UNL1       -0.2040
     12 N          -7.1075  -15.0998   26.3612 N.pl3   1  UNL1       -0.3040
     13 C          -5.7491  -15.6391   26.5207 C.3     1  UNL1        0.1122
     14 C          -5.0505  -15.7654   25.1633 C.3     1  UNL1        0.1122
     15 N          -5.8834  -16.4914   24.1918 N.pl3   1  UNL1       -0.3041
     16 C          -7.3224  -16.6603   24.4406 C.3     1  UNL1        0.1122
     17 C          -7.8965  -15.4396   25.1665 C.3     1  UNL1        0.1122
     18 C          -5.2665  -17.1078   23.0391 C.ar    1  UNL1        0.0479
     19 C          -5.9869  -18.0187   22.2465 C.ar    1  UNL1        0.0145
     20 C          -5.3873  -18.6245   21.1411 C.ar    1  UNL1        0.0012
     21 C          -4.0671  -18.3224   20.8036 C.ar    1  UNL1        0.0039
     22 C          -3.3360  -17.3918   21.5602 C.ar    1  UNL1        0.0726
     23 C          -3.9361  -16.8061   22.6893 C.ar    1  UNL1        0.0184
     24 C          -1.8955  -17.0955   21.2244 C.3     1  UNL1        0.4186
     25 F          -1.5357  -15.8876   21.7921 F       1  UNL1       -0.1659
     26 F          -1.7211  -17.0194   19.8533 F       1  UNL1       -0.1659
     27 F          -1.0626  -18.0882   21.7110 F       1  UNL1       -0.1659
     28 C         -11.2868  -10.3184   31.2958 C.3     1  UNL1        0.1535
     29 C         -11.9299  -11.3240   32.2121 C.2     1  UNL1        0.2443
     30 O         -12.5728  -10.9163   33.2173 O.2     1  UNL1       -0.2730
     31 N         -11.8438  -12.7298   31.9231 N.am    1  UNL1       -0.2825
     32 H         -11.5553  -13.0150   30.9600 H       1  UNL1        0.1549
     33 C         -12.2328  -13.7657   32.8407 C.ar    1  UNL1        0.0535
     34 C         -11.6517  -13.8106   34.1152 C.ar    1  UNL1        0.0353
     35 C         -12.0431  -14.8010   35.0193 C.ar    1  UNL1        0.1002
     36 N         -12.9953  -15.7056   34.6697 N.ar    1  UNL1       -0.2422
     37 C         -13.5916  -15.6754   33.4486 C.ar    1  UNL1        0.1002
     38 C         -13.2284  -14.7022   32.5141 C.ar    1  UNL1        0.0353
     39 C         -10.3662   -9.3816   32.0973 C.3     1  UNL1        0.0569
     40 C          -9.9783   -8.1784   31.2874 C.ar    1  UNL1       -0.0016
     41 C         -10.8040   -7.4500   30.4362 C.ar    1  UNL1        0.0681
     42 N         -10.1417   -6.3819   29.9362 N.ar    1  UNL1       -0.3523
     43 C          -8.9093   -6.4251   30.4716 C.ar    1  UNL1        0.0564
     44 C          -7.8684   -5.5199   30.2703 C.ar    1  UNL1        0.0174
     45 C          -6.6587   -5.7464   30.9520 C.ar    1  UNL1        0.0073
     46 C          -6.5185   -6.8590   31.8127 C.ar    1  UNL1        0.0301
     47 I          -4.6997   -7.1774   32.8302 I       1  UNL1       -0.0425
     48 C          -7.5880   -7.7551   31.9972 C.ar    1  UNL1        0.0069
     49 C          -8.7726   -7.5055   31.3046 C.ar    1  UNL1        0.0135
     50 H         -10.5203   -5.6629   29.2805 H       1  UNL1        0.1660
@<TRIPOS>BOND
     1     1     2    2
     2     2     3   am
     3     3    28    1
     4    28    39    1
     5    39    40    1
     6    40    41   ar
     7    41    42   ar
     8    42    43   ar
     9    43    44   ar
    10    44    45   ar
    11    45    46   ar
    12    46    47    1
    13    46    48   ar
    14    48    49   ar
    15    28    29    1
    16    29    30    2
    17    29    31   am
    18    31    33    1
    19    33    34   ar
    20    34    35   ar
    21    35    36   ar
    22    36    37   ar
    23    37    38   ar
    24     2     5    1
    25     5     6   ar
    26     6     7   ar
    27     7     8   ar
    28     8    12    1
    29    12    13    1
    30    13    14    1
    31    14    15    1
    32    15    18    1
    33    18    19   ar
    34    19    20   ar
    35    20    21   ar
    36    21    22   ar
    37    22    24    1
    38    24    25    1
    39    24    26    1
    40    24    27    1
    41    22    23   ar
    42    15    16    1
    43    16    17    1
    44     8     9   ar
    45     9    10   ar
    46    10    11    1
    47    49    40   ar
    48    38    33   ar
    49    10     5   ar
    50    49    43   ar
    51    17    12    1
    52    23    18   ar
    53     3     4    1
    54    42    50    1
    55    31    32    1
@<TRIPOS>MOLECULE
*****
 50 55 0 0 0
SMALL
GASTEIGER

@<TRIPOS>ATOM
      1 O          -6.4706  -10.8364   30.7357 O.2     1  UNL1       -0.2701
      2 C          -7.4989  -11.5675   30.7339 C.2     1  UNL1        0.2483
      3 N          -8.4755  -11.4265   31.7770 N.am    1  UNL1       -0.2945
      4 H          -9.4271  -11.8343   31.6322 H       1  UNL1        0.1501
      5 C          -7.6968  -12.5384   29.6343 C.ar    1  UNL1        0.0808
      6 C          -6.5910  -12.9757   28.8879 C.ar    1  UNL1        0.0080
      7 C          -6.7542  -13.8883   27.8428 C.ar    1  UNL1        0.0148
      8 C          -8.0273  -14.3928   27.5256 C.ar    1  UNL1        0.0502
      9 C          -9.1309  -13.9706   28.2875 C.ar    1  UNL1        0.0443
     10 C          -8.9709  -13.0556   29.3327 C.ar    1  UNL1        0.1457
     11 F         -10.0562  -12.7175   30.0735 F       1  UNL1       -0.2040
     12 N          -8.1971  -15.3402   26.4472 N.pl3   1  UNL1       -0.3040
     13 C          -7.4063  -15.2079   25.2149 C.3     1  UNL1        0.1122
     14 C          -8.1817  -15.7487   24.0095 C.3     1  UNL1        0.1122
     15 N          -8.6951  -17.1044   24.2606 N.pl3   1  UNL1       -0.3041
     16 C          -8.7719  -17.6167   25.6365 C.3     1  UNL1        0.1122
     17 C          -9.1002  -16.4890   26.6199 C.3     1  UNL1        0.1122
     18 C          -9.0420  -17.9566   23.1460 C.ar    1  UNL1        0.0479
     19 C         -10.3806  -18.3204   22.9161 C.ar    1  UNL1        0.0145
     20 C         -10.7145  -19.1543   21.8477 C.ar    1  UNL1        0.0012
     21 C          -9.7221  -19.6270   20.9876 C.ar    1  UNL1        0.0039
     22 C          -8.3816  -19.2526   21.1765 C.ar    1  UNL1        0.0726
     23 C          -8.0475  -18.4352   22.2712 C.ar    1  UNL1        0.0184
     24 C          -7.3010  -19.7962   20.2751 C.3     1  UNL1        0.4186
     25 F          -6.6809  -18.7460   19.6244 F       1  UNL1       -0.1659
     26 F          -7.8395  -20.6558   19.3333 F       1  UNL1       -0.1659
     27 F          -6.3556  -20.4946   21.0063 F       1  UNL1       -0.1659
     28 C          -8.2380  -10.5879   32.9558 C.3     1  UNL1        0.1535
     29 C          -7.9478   -9.1751   32.5268 C.2     1  UNL1        0.2443
     30 O          -7.3949   -8.3871   33.3412 O.2     1  UNL1       -0.2730
     31 N          -8.2630   -8.7415   31.1927 N.am    1  UNL1       -0.2825
     32 H          -8.4548   -9.4738   30.4723 H       1  UNL1        0.1549
     33 C          -8.2253   -7.3706   30.7617 C.ar    1  UNL1        0.0535
     34 C          -9.4149   -6.7360   30.3790 C.ar    1  UNL1        0.0353
     35 C          -9.3876   -5.3971   29.9818 C.ar    1  UNL1        0.1002
     36 N          -8.2154   -4.7091   29.9831 N.ar    1  UNL1       -0.2422
     37 C          -7.0490   -5.2912   30.3680 C.ar    1  UNL1        0.1002
     38 C          -7.0318   -6.6288   30.7714 C.ar    1  UNL1        0.0353
     39 C          -9.4495  -10.6173   33.9039 C.3     1  UNL1        0.0569
     40 C         -10.7397  -10.5650   33.1378 C.ar    1  UNL1       -0.0016
     41 C         -11.3034   -9.4429   32.5379 C.ar    1  UNL1        0.0681
     42 N         -12.4262   -9.7817   31.8642 N.ar    1  UNL1       -0.3523
     43 C         -12.5704  -11.1086   32.0261 C.ar    1  UNL1        0.0564
     44 C         -13.5734  -11.9202   31.4984 C.ar    1  UNL1        0.0174
     45 C         -13.5200  -13.2978   31.7784 C.ar    1  UNL1        0.0073
     46 C         -12.4751  -13.8287   32.5688 C.ar    1  UNL1        0.0301
     47 I         -12.4094  -15.8970   32.9717 I       1  UNL1       -0.0425
     48 C         -11.4753  -12.9843   33.0867 C.ar    1  UNL1        0.0069
     49 C         -11.5581  -11.6229   32.7947 C.ar    1  UNL1        0.0135
     50 H         -13.0437   -9.1418   31.3169 H       1  UNL1        0.1660
@<TRIPOS>BOND
     1     1     2    2
     2     2     3   am
     3     3    28    1
     4    28    39    1
     5    39    40    1
     6    40    41   ar
     7    41    42   ar
     8    42    43   ar
     9    43    44   ar
    10    44    45   ar
    11    45    46   ar
    12    46    47    1
    13    46    48   ar
    14    48    49   ar
    15    28    29    1
    16    29    30    2
    17    29    31   am
    18    31    33    1
    19    33    34   ar
    20    34    35   ar
    21    35    36   ar
    22    36    37   ar
    23    37    38   ar
    24     2     5    1
    25     5     6   ar
    26     6     7   ar
    27     7     8   ar
    28     8    12    1
    29    12    13    1
    30    13    14    1
    31    14    15    1
    32    15    18    1
    33    18    19   ar
    34    19    20   ar
    35    20    21   ar
    36    21    22   ar
    37    22    24    1
    38    24    25    1
    39    24    26    1
    40    24    27    1
    41    22    23   ar
    42    15    16    1
    43    16    17    1
    44     8     9   ar
    45     9    10   ar
    46    10    11    1
    47    49    40   ar
    48    38    33   ar
    49    10     5   ar
    50    49    43   ar
    51    17    12    1
    52    23    18   ar
    53     3     4    1
    54    42    50    1
    55    31    32    1
@<TRIPOS>MOLECULE
*****
 50 55 0 0 0
SMALL
GASTEIGER

@<TRIPOS>ATOM
      1 O          -6.4611  -11.8856   30.2512 O.2     1  UNL1       -0.2701
      2 C          -7.2370  -12.2237   29.3155 C.2     1  UNL1        0.2483
      3 N          -8.5652  -11.6811   29.2596 N.am    1  UNL1       -0.2945
      4 H          -9.0995  -11.7530   28.3641 H       1  UNL1        0.1501
      5 C          -6.7512  -13.1521   28.2701 C.ar    1  UNL1        0.0808
      6 C          -5.5003  -12.9301   27.6722 C.ar    1  UNL1        0.0080
      7 C          -5.0232  -13.7904   26.6804 C.ar    1  UNL1        0.0148
      8 C          -5.7825  -14.8998   26.2695 C.ar    1  UNL1        0.0502
      9 C          -7.0254  -15.1333   26.8839 C.ar    1  UNL1        0.0443
     10 C          -7.5064  -14.2726   27.8754 C.ar    1  UNL1        0.1457
     11 F          -8.6867  -14.5674   28.4764 F       1  UNL1       -0.2040
     12 N          -5.2883  -15.7931   25.2462 N.pl3   1  UNL1       -0.3040
     13 C          -4.5988  -17.0366   25.6199 C.3     1  UNL1        0.1122
     14 C          -3.5641  -17.4253   24.5592 C.3     1  UNL1        0.1122
     15 N          -4.1506  -17.4364   23.2100 N.pl3   1  UNL1       -0.3041
     16 C          -5.4280  -16.7533   22.9596 C.3     1  UNL1        0.1122
     17 C          -5.5541  -15.4986   23.8293 C.3     1  UNL1        0.1122
     18 C          -3.5097  -18.1908   22.1568 C.ar    1  UNL1        0.0479
     19 C          -4.2657  -19.0290   21.3185 C.ar    1  UNL1        0.0145
     20 C          -3.6452  -19.7680   20.3099 C.ar    1  UNL1        0.0012
     21 C          -2.2665  -19.6732   20.1151 C.ar    1  UNL1        0.0039
     22 C          -1.4932  -18.8187   20.9182 C.ar    1  UNL1        0.0726
     23 C          -2.1195  -18.0983   21.9510 C.ar    1  UNL1        0.0184
     24 C           0.0029  -18.7464   20.7391 C.3     1  UNL1        0.4186
     25 F           0.6199  -19.3402   21.8242 F       1  UNL1       -0.1659
     26 F           0.4192  -17.4294   20.6483 F       1  UNL1       -0.1659
     27 F           0.3925  -19.4028   19.5842 F       1  UNL1       -0.1659
     28 C          -9.1258  -10.8842   30.3550 C.3     1  UNL1        0.1535
     29 C          -9.4371   -9.4949   29.8679 C.2     1  UNL1        0.2443
     30 O          -9.4564   -9.2687   28.6275 O.2     1  UNL1       -0.2730
     31 N          -9.7456   -8.4486   30.8045 N.am    1  UNL1       -0.2825
     32 H          -9.9925   -8.7235   31.7820 H       1  UNL1        0.1549
     33 C          -9.8410   -7.0575   30.4549 C.ar    1  UNL1        0.0535
     34 C         -11.0839   -6.4136   30.5248 C.ar    1  UNL1        0.0353
     35 C         -11.1782   -5.0561   30.2089 C.ar    1  UNL1        0.1002
     36 N         -10.0665   -4.3602   29.8523 N.ar    1  UNL1       -0.2422
     37 C          -8.8443   -4.9519   29.7950 C.ar    1  UNL1        0.1002
     38 C          -8.7060   -6.3080   30.1018 C.ar    1  UNL1        0.0353
     39 C         -10.3943  -11.5453   30.9218 C.3     1  UNL1        0.0569
     40 C         -10.1603  -12.0678   32.3099 C.ar    1  UNL1       -0.0016
     41 C          -9.2374  -11.5853   33.2331 C.ar    1  UNL1        0.0681
     42 N          -9.3593  -12.2418   34.4094 N.ar    1  UNL1       -0.3523
     43 C         -10.3567  -13.1270   34.2390 C.ar    1  UNL1        0.0564
     44 C         -10.8644  -14.0196   35.1818 C.ar    1  UNL1        0.0174
     45 C         -11.9333  -14.8482   34.7942 C.ar    1  UNL1        0.0073
     46 C         -12.4673  -14.7652   33.4879 C.ar    1  UNL1        0.0301
     47 I         -14.0734  -16.0111   32.9284 I       1  UNL1       -0.0425
     48 C         -11.9346  -13.8528   32.5580 C.ar    1  UNL1        0.0069
     49 C         -10.8730  -13.0481   32.9713 C.ar    1  UNL1        0.0135
     50 H          -8.8009  -12.0791   35.2766 H       1  UNL1        0.1660
@<TRIPOS>BOND
     1     1     2    2
     2     2     3   am
     3     3    28    1
     4    28    39    1
     5    39    40    1
     6    40    41   ar
     7    41    42   ar
     8    42    43   ar
     9    43    44   ar
    10    44    45   ar
    11    45    46   ar
    12    46    47    1
    13    46    48   ar
    14    48    49   ar
    15    28    29    1
    16    29    30    2
    17    29    31   am
    18    31    33    1
    19    33    34   ar
    20    34    35   ar
    21    35    36   ar
    22    36    37   ar
    23    37    38   ar
    24     2     5    1
    25     5     6   ar
    26     6     7   ar
    27     7     8   ar
    28     8    12    1
    29    12    13    1
    30    13    14    1
    31    14    15    1
    32    15    18    1
    33    18    19   ar
    34    19    20   ar
    35    20    21   ar
    36    21    22   ar
    37    22    24    1
    38    24    25    1
    39    24    26    1
    40    24    27    1
    41    22    23   ar
    42    15    16    1
    43    16    17    1
    44     8     9   ar
    45     9    10   ar
    46    10    11    1
    47    49    40   ar
    48    38    33   ar
    49    10     5   ar
    50    49    43   ar
    51    17    12    1
    52    23    18   ar
    53     3     4    1
    54    42    50    1
    55    31    32    1
@<TRIPOS>MOLECULE
*****
 50 55 0 0 0
SMALL
GASTEIGER

@<TRIPOS>ATOM
      1 O          -5.9619  -11.1554   30.4364 O.2     1  UNL1       -0.2701
      2 C          -7.0734  -11.7432   30.5412 C.2     1  UNL1        0.2483
      3 N          -7.9263  -11.4609   31.6613 N.am    1  UNL1       -0.2945
      4 H          -8.9322  -11.7402   31.6092 H       1  UNL1        0.1501
      5 C          -7.4941  -12.6925   29.4864 C.ar    1  UNL1        0.0808
      6 C          -6.5244  -13.2981   28.6714 C.ar    1  UNL1        0.0080
      7 C          -6.8984  -14.1940   27.6668 C.ar    1  UNL1        0.0148
      8 C          -8.2517  -14.5129   27.4597 C.ar    1  UNL1        0.0502
      9 C          -9.2202  -13.9223   28.2904 C.ar    1  UNL1        0.0443
     10 C          -8.8490  -13.0236   29.2953 C.ar    1  UNL1        0.1457
     11 F          -9.8132  -12.5192   30.1059 F       1  UNL1       -0.2040
     12 N          -8.6397  -15.4427   26.4233 N.pl3   1  UNL1       -0.3040
     13 C          -9.1146  -16.7884   26.7767 C.3     1  UNL1        0.1122
     14 C          -8.7692  -17.7946   25.6745 C.3     1  UNL1        0.1122
     15 N          -9.2094  -17.3214   24.3528 N.pl3   1  UNL1       -0.3041
     16 C          -9.5381  -15.9024   24.1536 C.3     1  UNL1        0.1122
     17 C          -8.6417  -15.0094   25.0171 C.3     1  UNL1        0.1122
     18 C          -9.3975  -18.2701   23.2787 C.ar    1  UNL1        0.0479
     19 C         -10.6256  -18.9368   23.1230 C.ar    1  UNL1        0.0145
     20 C         -10.8033  -19.8631   22.0940 C.ar    1  UNL1        0.0012
     21 C          -9.7651  -20.1287   21.1998 C.ar    1  UNL1        0.0039
     22 C          -8.5392  -19.4527   21.3141 C.ar    1  UNL1        0.0726
     23 C          -8.3565  -18.5416   22.3698 C.ar    1  UNL1        0.0184
     24 C          -7.4006  -19.7688   20.3763 C.3     1  UNL1        0.4186
     25 F          -7.8733  -20.5402   19.3313 F       1  UNL1       -0.1659
     26 F          -6.4047  -20.4664   21.0377 F       1  UNL1       -0.1659
     27 F          -6.8474  -18.6075   19.8650 F       1  UNL1       -0.1659
     28 C          -7.4767  -10.6470   32.7946 C.3     1  UNL1        0.1535
     29 C          -7.5927   -9.1864   32.4518 C.2     1  UNL1        0.2443
     30 O          -7.6269   -8.3374   33.3836 O.2     1  UNL1       -0.2730
     31 N          -7.6258   -8.7628   31.0783 N.am    1  UNL1       -0.2825
     32 H          -7.3198   -9.4447   30.3480 H       1  UNL1        0.1549
     33 C          -7.9499   -7.4277   30.6550 C.ar    1  UNL1        0.0535
     34 C          -6.9970   -6.4099   30.7969 C.ar    1  UNL1        0.0353
     35 C          -7.2979   -5.1157   30.3657 C.ar    1  UNL1        0.1002
     36 N          -8.5029   -4.8498   29.7959 N.ar    1  UNL1       -0.2422
     37 C          -9.4396   -5.8199   29.6263 C.ar    1  UNL1        0.1002
     38 C          -9.1796   -7.1274   30.0448 C.ar    1  UNL1        0.0353
     39 C          -8.2968  -10.9632   34.0575 C.3     1  UNL1        0.0569
     40 C          -9.5782  -11.6648   33.7110 C.ar    1  UNL1       -0.0016
     41 C          -9.9298  -12.9670   34.0536 C.ar    1  UNL1        0.0681
     42 N         -11.1909  -13.2380   33.6466 N.ar    1  UNL1       -0.3523
     43 C         -11.6408  -12.1155   33.0590 C.ar    1  UNL1        0.0564
     44 C         -12.8994  -11.9007   32.4996 C.ar    1  UNL1        0.0174
     45 C         -13.1682  -10.6329   31.9522 C.ar    1  UNL1        0.0073
     46 C         -12.1847   -9.6178   31.9782 C.ar    1  UNL1        0.0301
     47 I         -12.6093   -7.7225   31.1583 I       1  UNL1       -0.0425
     48 C         -10.9231   -9.8640   32.5514 C.ar    1  UNL1        0.0069
     49 C         -10.6860  -11.1318   33.0822 C.ar    1  UNL1        0.0135
     50 H         -11.7114  -14.1334   33.7789 H       1  UNL1        0.1660
@<TRIPOS>BOND
     1     1     2    2
     2     2     3   am
     3     3    28    1
     4    28    39    1
     5    39    40    1
     6    40    41   ar
     7    41    42   ar
     8    42    43   ar
     9    43    44   ar
    10    44    45   ar
    11    45    46   ar
    12    46    47    1
    13    46    48   ar
    14    48    49   ar
    15    28    29    1
    16    29    30    2
    17    29    31   am
    18    31    33    1
    19    33    34   ar
    20    34    35   ar
    21    35    36   ar
    22    36    37   ar
    23    37    38   ar
    24     2     5    1
    25     5     6   ar
    26     6     7   ar
    27     7     8   ar
    28     8    12    1
    29    12    13    1
    30    13    14    1
    31    14    15    1
    32    15    18    1
    33    18    19   ar
    34    19    20   ar
    35    20    21   ar
    36    21    22   ar
    37    22    24    1
    38    24    25    1
    39    24    26    1
    40    24    27    1
    41    22    23   ar
    42    15    16    1
    43    16    17    1
    44     8     9   ar
    45     9    10   ar
    46    10    11    1
    47    49    40   ar
    48    38    33   ar
    49    10     5   ar
    50    49    43   ar
    51    17    12    1
    52    23    18   ar
    53     3     4    1
    54    42    50    1
    55    31    32    1
@<TRIPOS>MOLECULE
*****
 50 55 0 0 0
SMALL
GASTEIGER

@<TRIPOS>ATOM
      1 O          -9.9926  -14.2475   29.2796 O.2     1  UNL1       -0.2701
      2 C          -8.9366  -13.6902   28.8720 C.2     1  UNL1        0.2483
      3 N          -8.5196  -12.4438   29.4503 N.am    1  UNL1       -0.2945
      4 H          -7.5343  -12.1270   29.3035 H       1  UNL1        0.1501
      5 C          -8.1261  -14.3500   27.8240 C.ar    1  UNL1        0.0808
      6 C          -8.7510  -15.1963   26.8941 C.ar    1  UNL1        0.0080
      7 C          -8.0057  -15.8333   25.8988 C.ar    1  UNL1        0.0148
      8 C          -6.6178  -15.6310   25.8042 C.ar    1  UNL1        0.0502
      9 C          -5.9964  -14.7666   26.7225 C.ar    1  UNL1        0.0443
     10 C          -6.7396  -14.1294   27.7211 C.ar    1  UNL1        0.1457
     11 F          -6.1056  -13.2638   28.5518 F       1  UNL1       -0.2040
     12 N          -5.8461  -16.2861   24.7725 N.pl3   1  UNL1       -0.3040
     13 C          -6.3034  -16.2572   23.3756 C.3     1  UNL1        0.1122
     14 C          -5.8519  -17.5161   22.6286 C.3     1  UNL1        0.1122
     15 N          -4.4092  -17.7537   22.7919 N.pl3   1  UNL1       -0.3041
     16 C          -3.6719  -17.0792   23.8701 C.3     1  UNL1        0.1122
     17 C          -4.5557  -16.9078   25.1096 C.3     1  UNL1        0.1122
     18 C          -3.7079  -18.5838   21.8389 C.ar    1  UNL1        0.0479
     19 C          -4.4112  -19.2492   20.8194 C.ar    1  UNL1        0.0145
     20 C          -3.7359  -20.0618   19.9070 C.ar    1  UNL1        0.0012
     21 C          -2.3509  -20.2129   19.9905 C.ar    1  UNL1        0.0039
     22 C          -1.6211  -19.5337   20.9800 C.ar    1  UNL1        0.0726
     23 C          -2.3101  -18.7391   21.9137 C.ar    1  UNL1        0.0184
     24 C          -0.1300  -19.7286   21.1002 C.3     1  UNL1        0.4186
     25 F           0.1464  -21.0804   21.1833 F       1  UNL1       -0.1659
     26 F           0.3534  -19.0986   22.2339 F       1  UNL1       -0.1659
     27 F           0.5253  -19.2013   20.0008 F       1  UNL1       -0.1659
     28 C          -9.3730  -11.6922   30.3755 C.3     1  UNL1        0.1535
     29 C          -8.5228  -10.8252   31.2641 C.2     1  UNL1        0.2443
     30 O          -8.4356  -11.1020   32.4911 O.2     1  UNL1       -0.2730
     31 N          -7.7896   -9.7181   30.7127 N.am    1  UNL1       -0.2825
     32 H          -7.6599   -9.6841   29.6763 H       1  UNL1        0.1549
     33 C          -7.1322   -8.7139   31.5039 C.ar    1  UNL1        0.0535
     34 C          -7.8557   -7.5934   31.9342 C.ar    1  UNL1        0.0353
     35 C          -7.2282   -6.6261   32.7229 C.ar    1  UNL1        0.1002
     36 N          -5.9273   -6.7804   33.0849 N.ar    1  UNL1       -0.2422
     37 C          -5.2054   -7.8659   32.7001 C.ar    1  UNL1        0.1002
     38 C          -5.7943   -8.8562   31.9096 C.ar    1  UNL1        0.0353
     39 C         -10.3900  -10.8301   29.6073 C.3     1  UNL1        0.0569
     40 C         -11.3085  -10.1059   30.5487 C.ar    1  UNL1       -0.0016
     41 C         -12.1437  -10.6830   31.5007 C.ar    1  UNL1        0.0681
     42 N         -12.7651   -9.7252   32.2259 N.ar    1  UNL1       -0.3523
     43 C         -12.3222   -8.5500   31.7461 C.ar    1  UNL1        0.0564
     44 C         -12.6636   -7.2735   32.1901 C.ar    1  UNL1        0.0174
     45 C         -12.0607   -6.1728   31.5542 C.ar    1  UNL1        0.0073
     46 C         -11.1377   -6.3703   30.5019 C.ar    1  UNL1        0.0301
     47 I         -10.2401   -4.7079   29.5661 I       1  UNL1       -0.0425
     48 C         -10.8115   -7.6716   30.0763 C.ar    1  UNL1        0.0069
     49 C         -11.4288   -8.7416   30.7239 C.ar    1  UNL1        0.0135
     50 H         -13.4390   -9.8734   33.0097 H       1  UNL1        0.1660
@<TRIPOS>BOND
     1     1     2    2
     2     2     3   am
     3     3    28    1
     4    28    39    1
     5    39    40    1
     6    40    41   ar
     7    41    42   ar
     8    42    43   ar
     9    43    44   ar
    10    44    45   ar
    11    45    46   ar
    12    46    47    1
    13    46    48   ar
    14    48    49   ar
    15    28    29    1
    16    29    30    2
    17    29    31   am
    18    31    33    1
    19    33    34   ar
    20    34    35   ar
    21    35    36   ar
    22    36    37   ar
    23    37    38   ar
    24     2     5    1
    25     5     6   ar
    26     6     7   ar
    27     7     8   ar
    28     8    12    1
    29    12    13    1
    30    13    14    1
    31    14    15    1
    32    15    18    1
    33    18    19   ar
    34    19    20   ar
    35    20    21   ar
    36    21    22   ar
    37    22    24    1
    38    24    25    1
    39    24    26    1
    40    24    27    1
    41    22    23   ar
    42    15    16    1
    43    16    17    1
    44     8     9   ar
    45     9    10   ar
    46    10    11    1
    47    49    40   ar
    48    38    33   ar
    49    10     5   ar
    50    49    43   ar
    51    17    12    1
    52    23    18   ar
    53     3     4    1
    54    42    50    1
    55    31    32    1
