@<TRIPOS>MOLECULE
*****
 45 50 0 0 0
SMALL
GASTEIGER

@<TRIPOS>ATOM
      1 C          60.9693   89.7811    9.4485 C.ar    1  UNL1        0.0702
      2 C          61.8391   88.7033    9.6489 C.ar    1  UNL1        0.0191
      3 C          61.8968   88.0668   10.8893 C.ar    1  UNL1        0.0356
      4 C          61.0924   88.5296   11.9439 C.ar    1  UNL1        0.1318
      5 N          60.2698   89.5943   11.7315 N.ar    1  UNL1       -0.2279
      6 C          60.1934   90.2260   10.5304 C.ar    1  UNL1        0.1149
      7 N          61.1176   87.8973   13.2399 N.pl3   1  UNL1       -0.2932
      8 C          61.8079   88.5318   14.3715 C.3     1  UNL1        0.0923
      9 C          61.0533   88.2816   15.6833 C.3     1  UNL1        0.0252
     10 C          60.6693   86.8027   15.8949 C.3     1  UNL1        0.0472
     11 C          59.9705   86.2215   14.6486 C.3     1  UNL1        0.0252
     12 C          60.7422   86.4819   13.3505 C.3     1  UNL1        0.0923
     13 C          61.8413   85.9351   16.3982 C.3     1  UNL1        0.2054
     14 O          62.0294   84.7859   15.5784 O.3     1  UNL1       -0.4755
     15 C          63.1745   84.5288   14.8125 C.ar    1  UNL1        0.1388
     16 C          64.4684   84.8544   15.2571 C.ar    1  UNL1        0.0369
     17 C          65.5746   84.5866   14.4491 C.ar    1  UNL1        0.0033
     18 C          65.4041   83.9894   13.1982 C.ar    1  UNL1        0.0066
     19 C          64.1197   83.6442   12.7418 C.ar    1  UNL1        0.0785
     20 C          63.0092   83.9287   13.5581 C.ar    1  UNL1        0.0433
     21 C          63.9520   83.0125   11.4102 C.2     1  UNL1        0.3381
     22 O          62.8354   83.0665   10.8292 O.2     1  UNL1       -0.2451
     23 O          65.0062   82.3663   10.7651 O.3     1  UNL1       -0.4771
     24 H          65.9523   82.3745   11.1230 H       1  UNL1        0.2954
     25 C          60.0819   90.0511    7.0836 C.2     1  UNL1        0.2839
     26 O          59.2356   89.1301    7.2348 O.2     1  UNL1       -0.2665
     27 N          60.9396   90.4394    8.1713 N.am    1  UNL1       -0.2766
     28 H          61.6267   91.2093    8.0191 H       1  UNL1        0.1553
     29 C          57.6149   91.0886    5.2604 C.3     1  UNL1        0.0345
     30 C          59.0851   91.1623    4.9793 C.ar    1  UNL1        0.0202
     31 C          60.1511   90.7301    5.7780 C.ar    1  UNL1        0.1946
     32 O          61.3001   91.0359    5.2015 O.2     1  UNL1       -0.4492
     33 C          61.0344   91.6219    4.0595 C.ar    1  UNL1        0.1456
     34 C          61.9442   92.0999    3.1228 C.ar    1  UNL1        0.0433
     35 C          61.4431   92.7012    1.9522 C.ar    1  UNL1        0.0331
     36 I          62.8582   93.3305    0.5017 I       1  UNL1       -0.0424
     37 C          60.0354   92.8169    1.7522 C.ar    1  UNL1        0.0056
     38 C          59.1459   92.3091    2.7255 C.ar    1  UNL1        0.0032
     39 C          59.6842   91.7194    3.8677 C.ar    1  UNL1        0.0337
     40 C          59.4756   93.4573    0.5449 C.ar    1  UNL1        0.0004
     41 C          58.1508   93.2027    0.1527 C.ar    1  UNL1        0.0000
     42 C          57.6329   93.7946   -1.0035 C.ar    1  UNL1        0.0000
     43 C          58.4356   94.6349   -1.7800 C.ar    1  UNL1        0.0000
     44 C          59.7590   94.8810   -1.4041 C.ar    1  UNL1        0.0000
     45 C          60.2807   94.2910   -0.2486 C.ar    1  UNL1        0.0000
@<TRIPOS>BOND
     1    29    30    1
     2    30    31   ar
     3    31    25    1
     4    25    26    2
     5    25    27   am
     6    27     1    1
     7     1     2   ar
     8     2     3   ar
     9     3     4   ar
    10     4     7    1
    11     7     8    1
    12     8     9    1
    13     9    10    1
    14    10    13    1
    15    13    14    1
    16    14    15    1
    17    15    16   ar
    18    16    17   ar
    19    17    18   ar
    20    18    19   ar
    21    19    21    1
    22    21    22    2
    23    21    23    1
    24    19    20   ar
    25    10    11    1
    26    11    12    1
    27     4     5   ar
    28     5     6   ar
    29    31    32   ar
    30    32    33   ar
    31    33    34   ar
    32    34    35   ar
    33    35    36    1
    34    35    37   ar
    35    37    40    1
    36    40    41   ar
    37    41    42   ar
    38    42    43   ar
    39    43    44   ar
    40    44    45   ar
    41    37    38   ar
    42    38    39   ar
    43    39    30   ar
    44     6     1   ar
    45    39    33   ar
    46    12     7    1
    47    45    40   ar
    48    20    15   ar
    49    27    28    1
    50    23    24    1
@<TRIPOS>MOLECULE
*****
 45 50 0 0 0
SMALL
GASTEIGER

@<TRIPOS>ATOM
      1 C          61.2676   89.7697    9.6445 C.ar    1  UNL1        0.0702
      2 C          61.8155   88.4853    9.7367 C.ar    1  UNL1        0.0191
      3 C          61.9556   87.8676   10.9801 C.ar    1  UNL1        0.0356
      4 C          61.5642   88.5527   12.1424 C.ar    1  UNL1        0.1318
      5 N          61.0540   89.8106   12.0297 N.ar    1  UNL1       -0.2279
      6 C          60.9037   90.4295   10.8289 C.ar    1  UNL1        0.1149
      7 N          61.6871   87.9490   13.4463 N.pl3   1  UNL1       -0.2932
      8 C          62.9589   87.3554   13.8821 C.3     1  UNL1        0.0923
      9 C          63.1887   87.5915   15.3802 C.3     1  UNL1        0.0252
     10 C          61.9658   87.2337   16.2498 C.3     1  UNL1        0.0472
     11 C          60.6792   87.8850   15.7022 C.3     1  UNL1        0.0252
     12 C          60.4694   87.6353   14.2049 C.3     1  UNL1        0.0923
     13 C          61.8225   85.7193   16.5057 C.3     1  UNL1        0.2054
     14 O          62.9004   84.9885   15.9294 O.3     1  UNL1       -0.4755
     15 C          62.7542   83.8635   15.1067 C.ar    1  UNL1        0.1388
     16 C          63.6638   82.7910   15.1264 C.ar    1  UNL1        0.0369
     17 C          63.4773   81.6988   14.2775 C.ar    1  UNL1        0.0033
     18 C          62.3846   81.6617   13.4085 C.ar    1  UNL1        0.0066
     19 C          61.4569   82.7180   13.3837 C.ar    1  UNL1        0.0785
     20 C          61.6594   83.8204   14.2346 C.ar    1  UNL1        0.0433
     21 C          60.3019   82.6674   12.4543 C.2     1  UNL1        0.3381
     22 O          60.2575   81.7807   11.5605 O.2     1  UNL1       -0.2451
     23 O          59.2432   83.5704   12.5478 O.3     1  UNL1       -0.4771
     24 H          59.1615   84.2397   13.3019 H       1  UNL1        0.2954
     25 C          60.1756   90.0354    7.3663 C.2     1  UNL1        0.2839
     26 O          59.2997   89.1665    7.6213 O.2     1  UNL1       -0.2665
     27 N          61.1521   90.3998    8.3580 N.am    1  UNL1       -0.2766
     28 H          61.8616   91.1267    8.1210 H       1  UNL1        0.1553
     29 C          57.5867   90.8613    5.6052 C.3     1  UNL1        0.0345
     30 C          59.0387   91.0205    5.2702 C.ar    1  UNL1        0.0202
     31 C          60.1568   90.6800    6.0418 C.ar    1  UNL1        0.1946
     32 O          61.2635   91.0419    5.4170 O.2     1  UNL1       -0.4492
     33 C          60.9222   91.5770    4.2702 C.ar    1  UNL1        0.1456
     34 C          61.7670   92.0852    3.2897 C.ar    1  UNL1        0.0433
     35 C          61.1890   92.6198    2.1222 C.ar    1  UNL1        0.0331
     36 I          62.5108   93.2964    0.6065 I       1  UNL1       -0.0424
     37 C          59.7709   92.6397    1.9693 C.ar    1  UNL1        0.0056
     38 C          58.9493   92.1042    2.9864 C.ar    1  UNL1        0.0032
     39 C          59.5628   91.5827    4.1239 C.ar    1  UNL1        0.0337
     40 C          59.1304   93.2085    0.7661 C.ar    1  UNL1        0.0004
     41 C          58.0194   92.5758    0.1839 C.ar    1  UNL1        0.0000
     42 C          57.4305   93.1068   -0.9679 C.ar    1  UNL1        0.0000
     43 C          57.9521   94.2649   -1.5511 C.ar    1  UNL1        0.0000
     44 C          59.0664   94.8914   -0.9860 C.ar    1  UNL1        0.0000
     45 C          59.6582   94.3636    0.1659 C.ar    1  UNL1        0.0000
@<TRIPOS>BOND
     1    29    30    1
     2    30    31   ar
     3    31    25    1
     4    25    26    2
     5    25    27   am
     6    27     1    1
     7     1     2   ar
     8     2     3   ar
     9     3     4   ar
    10     4     7    1
    11     7     8    1
    12     8     9    1
    13     9    10    1
    14    10    13    1
    15    13    14    1
    16    14    15    1
    17    15    16   ar
    18    16    17   ar
    19    17    18   ar
    20    18    19   ar
    21    19    21    1
    22    21    22    2
    23    21    23    1
    24    19    20   ar
    25    10    11    1
    26    11    12    1
    27     4     5   ar
    28     5     6   ar
    29    31    32   ar
    30    32    33   ar
    31    33    34   ar
    32    34    35   ar
    33    35    36    1
    34    35    37   ar
    35    37    40    1
    36    40    41   ar
    37    41    42   ar
    38    42    43   ar
    39    43    44   ar
    40    44    45   ar
    41    37    38   ar
    42    38    39   ar
    43    39    30   ar
    44     6     1   ar
    45    39    33   ar
    46    12     7    1
    47    45    40   ar
    48    20    15   ar
    49    27    28    1
    50    23    24    1
@<TRIPOS>MOLECULE
*****
 45 50 0 0 0
SMALL
GASTEIGER

@<TRIPOS>ATOM
      1 C          62.4268   84.9724   12.6215 C.ar    1  UNL1        0.0702
      2 C          62.2649   84.5612   11.2937 C.ar    1  UNL1        0.0191
      3 C          61.5232   83.4172   10.9967 C.ar    1  UNL1        0.0356
      4 C          60.9585   82.6667   12.0414 C.ar    1  UNL1        0.1318
      5 N          61.1481   83.0742   13.3272 N.ar    1  UNL1       -0.2279
      6 C          61.8622   84.1878   13.6395 C.ar    1  UNL1        0.1149
      7 N          60.1807   81.4812   11.7780 N.pl3   1  UNL1       -0.2932
      8 C          60.5349   80.5811   10.6716 C.3     1  UNL1        0.0923
      9 C          60.2723   79.1181   11.0502 C.3     1  UNL1        0.0252
     10 C          58.8754   78.8866   11.6624 C.3     1  UNL1        0.0472
     11 C          58.5886   79.8898   12.7986 C.3     1  UNL1        0.0252
     12 C          58.8564   81.3444   12.3980 C.3     1  UNL1        0.0923
     13 C          57.7515   78.8205   10.6079 C.3     1  UNL1        0.2054
     14 O          57.1861   80.1050   10.3667 O.3     1  UNL1       -0.4755
     15 C          57.6670   81.0268    9.4270 C.ar    1  UNL1        0.1388
     16 C          58.1130   80.6399    8.1506 C.ar    1  UNL1        0.0369
     17 C          58.5931   81.5980    7.2563 C.ar    1  UNL1        0.0033
     18 C          58.6283   82.9457    7.6210 C.ar    1  UNL1        0.0066
     19 C          58.1743   83.3539    8.8877 C.ar    1  UNL1        0.0785
     20 C          57.7029   82.3795    9.7871 C.ar    1  UNL1        0.0433
     21 C          58.2193   84.7881    9.2636 C.2     1  UNL1        0.3381
     22 O          58.5426   85.1168   10.4360 O.2     1  UNL1       -0.2451
     23 O          57.9269   85.7977    8.3471 O.3     1  UNL1       -0.4771
     24 H          57.7621   85.6136    7.3661 H       1  UNL1        0.2954
     25 C          62.7300   87.4893   12.7846 C.2     1  UNL1        0.2839
     26 O          61.5290   87.7114   12.4753 O.2     1  UNL1       -0.2665
     27 N          63.2131   86.1401   12.9106 N.am    1  UNL1       -0.2766
     28 H          64.2107   85.9863   13.1738 H       1  UNL1        0.1553
     29 C          64.8912   87.8444   15.1698 C.3     1  UNL1        0.0345
     30 C          64.5341   88.8054   14.0767 C.ar    1  UNL1        0.0202
     31 C          63.6126   88.6419   13.0348 C.ar    1  UNL1        0.1946
     32 O          63.6386   89.6969   12.2395 O.2     1  UNL1       -0.4492
     33 C          64.5110   90.5460   12.7251 C.ar    1  UNL1        0.1456
     34 C          64.8519   91.7932   12.2134 C.ar    1  UNL1        0.0433
     35 C          65.8224   92.5520   12.8957 C.ar    1  UNL1        0.0331
     36 I          66.2462   94.4897   12.1419 I       1  UNL1       -0.0424
     37 C          66.4366   92.0357   14.0751 C.ar    1  UNL1        0.0056
     38 C          66.0538   90.7673   14.5660 C.ar    1  UNL1        0.0032
     39 C          65.0879   90.0512   13.8617 C.ar    1  UNL1        0.0337
     40 C          67.4704   92.7967   14.8055 C.ar    1  UNL1        0.0004
     41 C          68.8333   92.5803   14.5424 C.ar    1  UNL1        0.0000
     42 C          69.8082   93.2880   15.2525 C.ar    1  UNL1        0.0000
     43 C          69.4301   94.2069   16.2354 C.ar    1  UNL1        0.0000
     44 C          68.0764   94.4164   16.5129 C.ar    1  UNL1        0.0000
     45 C          67.0983   93.7108   15.8050 C.ar    1  UNL1        0.0000
@<TRIPOS>BOND
     1    29    30    1
     2    30    31   ar
     3    31    25    1
     4    25    26    2
     5    25    27   am
     6    27     1    1
     7     1     2   ar
     8     2     3   ar
     9     3     4   ar
    10     4     7    1
    11     7     8    1
    12     8     9    1
    13     9    10    1
    14    10    13    1
    15    13    14    1
    16    14    15    1
    17    15    16   ar
    18    16    17   ar
    19    17    18   ar
    20    18    19   ar
    21    19    21    1
    22    21    22    2
    23    21    23    1
    24    19    20   ar
    25    10    11    1
    26    11    12    1
    27     4     5   ar
    28     5     6   ar
    29    31    32   ar
    30    32    33   ar
    31    33    34   ar
    32    34    35   ar
    33    35    36    1
    34    35    37   ar
    35    37    40    1
    36    40    41   ar
    37    41    42   ar
    38    42    43   ar
    39    43    44   ar
    40    44    45   ar
    41    37    38   ar
    42    38    39   ar
    43    39    30   ar
    44     6     1   ar
    45    39    33   ar
    46    12     7    1
    47    45    40   ar
    48    20    15   ar
    49    27    28    1
    50    23    24    1
