@<TRIPOS>MOLECULE
*****
 28 31 0 0 0
SMALL
GASTEIGER

@<TRIPOS>ATOM
      1 C          46.2746   15.2639  -26.0149 C.3     1  UNL1        0.0138
      2 C          46.4550   13.9745  -26.7851 C.3     1  UNL1        0.1087
      3 C          46.9469   12.8048  -26.1570 C.3     1  UNL1        0.0893
      4 N          47.1426   11.6721  -26.8908 N.4     1  UNL1        0.3475
      5 C          46.8413   11.6041  -28.2176 C.3     1  UNL1        0.0950
      6 C          47.0529   10.4092  -28.9247 C.3     1  UNL1        0.0923
      7 C          46.7369   10.3260  -30.2811 C.3     1  UNL1        0.1695
      8 F          46.9448    9.1680  -30.9552 F       1  UNL1       -0.2370
      9 C          46.2060   11.4322  -30.9444 C.3     1  UNL1        0.0714
     10 C          45.9878   12.6305  -30.2586 C.3     1  UNL1        0.1761
     11 F          45.4708   13.6811  -30.9459 F       1  UNL1       -0.2365
     12 C          46.3048   12.7312  -28.8837 C.3     1  UNL1        0.1411
     13 C          46.1084   13.9189  -28.1501 C.2     1  UNL1        0.1637
     14 O          45.6231   14.9399  -28.7118 O.2     1  UNL1       -0.2956
     15 H          47.5185   10.8213  -26.4111 H       1  UNL1        0.2374
     16 C          47.2657   12.7717  -24.7106 C.3     1  UNL1        0.0516
     17 C          48.5631   13.0678  -24.2731 C.3     1  UNL1        0.0071
     18 C          48.8784   13.0214  -22.9124 C.3     1  UNL1        0.0162
     19 C          47.9028   12.6669  -21.9597 C.3     1  UNL1        0.0577
     20 C          46.6052   12.3548  -22.4107 C.3     1  UNL1        0.0162
     21 C          46.2927   12.4016  -23.7719 C.3     1  UNL1        0.0071
     22 N          48.2273   12.6198  -20.5503 N.3     1  UNL1       -0.2692
     23 C          49.4911   13.0791  -19.9911 C.3     1  UNL1        0.0779
     24 C          49.4694   12.6732  -18.5238 C.3     1  UNL1        0.0853
     25 C          48.0026   12.4146  -18.1930 C.3     1  UNL1        0.2797
     26 F          47.8719   11.3566  -17.3090 F       1  UNL1       -0.2028
     27 F          47.4401   13.5521  -17.6366 F       1  UNL1       -0.2028
     28 C          47.3319   12.1012  -19.5257 C.3     1  UNL1        0.1394
@<TRIPOS>BOND
     1     1     2    1
     2     2     3    1
     3     3    16    1
     4    16    17    1
     5    17    18    1
     6    18    19    1
     7    19    22    1
     8    22    23    1
     9    23    24    1
    10    24    25    1
    11    25    26    1
    12    25    27    1
    13    25    28    1
    14    19    20    1
    15    20    21    1
    16     3     4    1
    17     4     5    1
    18     5     6    1
    19     6     7    1
    20     7     8    1
    21     7     9    1
    22     9    10    1
    23    10    11    1
    24    10    12    1
    25    12    13    1
    26    13    14    2
    27    13     2    1
    28    21    16    1
    29    12     5    1
    30    28    22    1
    31     4    15    1
@<TRIPOS>MOLECULE
*****
 28 31 0 0 0
SMALL
GASTEIGER

@<TRIPOS>ATOM
      1 C          46.3441   15.2421  -25.7073 C.3     1  UNL1        0.0138
      2 C          46.4834   13.9855  -26.5379 C.3     1  UNL1        0.1087
      3 C          46.8966   12.7620  -25.9576 C.3     1  UNL1        0.0893
      4 N          47.0579   11.6589  -26.7433 N.4     1  UNL1        0.3475
      5 C          46.7945   11.6734  -28.0797 C.3     1  UNL1        0.0950
      6 C          46.9678   10.5063  -28.8415 C.3     1  UNL1        0.0923
      7 C          46.6898   10.5078  -30.2088 C.3     1  UNL1        0.1695
      8 F          46.8602    9.3760  -30.9358 F       1  UNL1       -0.2370
      9 C          46.2356   11.6719  -30.8287 C.3     1  UNL1        0.0714
     10 C          46.0566   12.8438  -30.0881 C.3     1  UNL1        0.1761
     11 F          45.6143   13.9529  -30.7344 F       1  UNL1       -0.2365
     12 C          46.3359   12.8588  -28.7015 C.3     1  UNL1        0.1411
     13 C          46.1766   14.0166  -27.9131 C.2     1  UNL1        0.1637
     14 O          45.7605   15.0882  -28.4346 O.2     1  UNL1       -0.2956
     15 H          47.3757   10.7668  -26.2978 H       1  UNL1        0.2374
     16 C          47.1686   12.6397  -24.5065 C.3     1  UNL1        0.0516
     17 C          48.4834   12.7274  -24.0312 C.3     1  UNL1        0.0071
     18 C          48.7524   12.5952  -22.6662 C.3     1  UNL1        0.0162
     19 C          47.7103   12.3614  -21.7472 C.3     1  UNL1        0.0577
     20 C          46.3932   12.2583  -22.2365 C.3     1  UNL1        0.0162
     21 C          46.1272   12.3907  -23.6018 C.3     1  UNL1        0.0071
     22 N          47.9870   12.2257  -20.3333 N.3     1  UNL1       -0.2692
     23 C          46.9899   11.8446  -19.3427 C.3     1  UNL1        0.0779
     24 C          47.6651   12.0083  -17.9878 C.3     1  UNL1        0.0853
     25 C          49.1630   12.0272  -18.2774 C.3     1  UNL1        0.2797
     26 F          49.8205   12.9080  -17.4350 F       1  UNL1       -0.2028
     27 F          49.6879   10.7552  -18.1144 F       1  UNL1       -0.2028
     28 C          49.2927   12.4609  -19.7330 C.3     1  UNL1        0.1394
@<TRIPOS>BOND
     1     1     2    1
     2     2     3    1
     3     3    16    1
     4    16    17    1
     5    17    18    1
     6    18    19    1
     7    19    22    1
     8    22    23    1
     9    23    24    1
    10    24    25    1
    11    25    26    1
    12    25    27    1
    13    25    28    1
    14    19    20    1
    15    20    21    1
    16     3     4    1
    17     4     5    1
    18     5     6    1
    19     6     7    1
    20     7     8    1
    21     7     9    1
    22     9    10    1
    23    10    11    1
    24    10    12    1
    25    12    13    1
    26    13    14    2
    27    13     2    1
    28    21    16    1
    29    12     5    1
    30    28    22    1
    31     4    15    1
@<TRIPOS>MOLECULE
*****
 28 31 0 0 0
SMALL
GASTEIGER

@<TRIPOS>ATOM
      1 C          54.3049    8.7840  -28.9868 C.3     1  UNL1        0.0138
      2 C          52.9221    8.4510  -29.5021 C.3     1  UNL1        0.1087
      3 C          51.7595    8.9363  -28.8562 C.3     1  UNL1        0.0893
      4 N          50.5273    8.5785  -29.3185 N.4     1  UNL1        0.3475
      5 C          50.3637    7.7933  -30.4196 C.3     1  UNL1        0.0950
      6 C          49.0716    7.4625  -30.8596 C.3     1  UNL1        0.0923
      7 C          48.8933    6.6684  -31.9928 C.3     1  UNL1        0.1695
      8 F          47.6419    6.3545  -32.4098 F       1  UNL1       -0.2370
      9 C          50.0009    6.1980  -32.6982 C.3     1  UNL1        0.0714
     10 C          51.2951    6.5159  -32.2767 C.3     1  UNL1        0.1761
     11 F          52.3426    6.0343  -32.9936 F       1  UNL1       -0.2365
     12 C          51.4923    7.3185  -31.1286 C.3     1  UNL1        0.1411
     13 C          52.7771    7.6616  -30.6607 C.2     1  UNL1        0.1637
     14 O          53.8049    7.2622  -31.2752 O.2     1  UNL1       -0.2956
     15 H          49.6799    8.9375  -28.8202 H       1  UNL1        0.2374
     16 C          51.8379    9.8273  -27.6752 C.3     1  UNL1        0.0516
     17 C          51.1116    9.5203  -26.5175 C.3     1  UNL1        0.0071
     18 C          51.1645   10.3641  -25.4047 C.3     1  UNL1        0.0162
     19 C          51.9388   11.5408  -25.4307 C.3     1  UNL1        0.0577
     20 C          52.6528   11.8498  -26.6052 C.3     1  UNL1        0.0162
     21 C          52.5978   11.0045  -27.7165 C.3     1  UNL1        0.0071
     22 N          51.9959   12.4149  -24.2788 N.3     1  UNL1       -0.2692
     23 C          53.2348   12.8552  -23.6528 C.3     1  UNL1        0.0779
     24 C          52.8224   13.5933  -22.3866 C.3     1  UNL1        0.0853
     25 C          51.3517   13.9494  -22.5819 C.3     1  UNL1        0.2797
     26 F          50.6554   13.8561  -21.3885 F       1  UNL1       -0.2028
     27 F          51.2436   15.2385  -23.0787 F       1  UNL1       -0.2028
     28 C          50.8217   12.9515  -23.6051 C.3     1  UNL1        0.1394
@<TRIPOS>BOND
     1     1     2    1
     2     2     3    1
     3     3    16    1
     4    16    17    1
     5    17    18    1
     6    18    19    1
     7    19    22    1
     8    22    23    1
     9    23    24    1
    10    24    25    1
    11    25    26    1
    12    25    27    1
    13    25    28    1
    14    19    20    1
    15    20    21    1
    16     3     4    1
    17     4     5    1
    18     5     6    1
    19     6     7    1
    20     7     8    1
    21     7     9    1
    22     9    10    1
    23    10    11    1
    24    10    12    1
    25    12    13    1
    26    13    14    2
    27    13     2    1
    28    21    16    1
    29    12     5    1
    30    28    22    1
    31     4    15    1
@<TRIPOS>MOLECULE
*****
 28 31 0 0 0
SMALL
GASTEIGER

@<TRIPOS>ATOM
      1 C          50.8307    8.7425  -24.2027 C.3     1  UNL1        0.0138
      2 C          50.7284   10.2433  -24.3632 C.3     1  UNL1        0.1087
      3 C          50.7703   10.8512  -25.6411 C.3     1  UNL1        0.0893
      4 N          50.7232   12.2100  -25.7477 N.4     1  UNL1        0.3475
      5 C          50.5941   13.0206  -24.6605 C.3     1  UNL1        0.0950
      6 C          50.5405   14.4141  -24.8268 C.3     1  UNL1        0.0923
      7 C          50.3968   15.2522  -23.7206 C.3     1  UNL1        0.1695
      8 F          50.3460   16.5964  -23.8915 F       1  UNL1       -0.2370
      9 C          50.3041   14.7091  -22.4393 C.3     1  UNL1        0.0714
     10 C          50.3553   13.3247  -22.2525 C.3     1  UNL1        0.1761
     11 F          50.2628   12.8417  -20.9870 F       1  UNL1       -0.2365
     12 C          50.5025   12.4619  -23.3637 C.3     1  UNL1        0.1411
     13 C          50.5650   11.0603  -23.2264 C.2     1  UNL1        0.1637
     14 O          50.4771   10.5291  -22.0847 O.2     1  UNL1       -0.2956
     15 H          50.7679   12.6412  -26.7002 H       1  UNL1        0.2374
     16 C          50.8707   10.0497  -26.8830 C.3     1  UNL1        0.0516
     17 C          52.0938    9.9582  -27.5598 C.3     1  UNL1        0.0071
     18 C          52.1944    9.2197  -28.7420 C.3     1  UNL1        0.0162
     19 C          51.0686    8.5643  -29.2785 C.3     1  UNL1        0.0577
     20 C          49.8391    8.6756  -28.5997 C.3     1  UNL1        0.0162
     21 C          49.7412    9.4150  -27.4181 C.3     1  UNL1        0.0071
     22 N          51.1714    7.7980  -30.5017 N.3     1  UNL1       -0.2692
     23 C          50.0263    7.2599  -31.2229 C.3     1  UNL1        0.0779
     24 C          50.6031    6.3814  -32.3246 C.3     1  UNL1        0.0853
     25 C          52.0552    6.8227  -32.4809 C.3     1  UNL1        0.2797
     26 F          52.8753    5.7421  -32.7596 F       1  UNL1       -0.2028
     27 F          52.1550    7.7526  -33.5033 F       1  UNL1       -0.2028
     28 C          52.4318    7.4681  -31.1521 C.3     1  UNL1        0.1394
@<TRIPOS>BOND
     1     1     2    1
     2     2     3    1
     3     3    16    1
     4    16    17    1
     5    17    18    1
     6    18    19    1
     7    19    22    1
     8    22    23    1
     9    23    24    1
    10    24    25    1
    11    25    26    1
    12    25    27    1
    13    25    28    1
    14    19    20    1
    15    20    21    1
    16     3     4    1
    17     4     5    1
    18     5     6    1
    19     6     7    1
    20     7     8    1
    21     7     9    1
    22     9    10    1
    23    10    11    1
    24    10    12    1
    25    12    13    1
    26    13    14    2
    27    13     2    1
    28    21    16    1
    29    12     5    1
    30    28    22    1
    31     4    15    1
@<TRIPOS>MOLECULE
*****
 28 31 0 0 0
SMALL
GASTEIGER

@<TRIPOS>ATOM
      1 C          52.6278   11.6667  -25.5775 C.3     1  UNL1        0.0138
      2 C          51.9087   10.7096  -26.5024 C.3     1  UNL1        0.1087
      3 C          50.6512   10.1580  -26.1576 C.3     1  UNL1        0.0893
      4 N          50.0519    9.2615  -26.9924 N.4     1  UNL1        0.3475
      5 C          50.6016    8.8982  -28.1847 C.3     1  UNL1        0.0950
      6 C          49.9374    7.9778  -29.0119 C.3     1  UNL1        0.0923
      7 C          50.4866    7.6080  -30.2401 C.3     1  UNL1        0.1695
      8 F          49.8378    6.7187  -31.0318 F       1  UNL1       -0.2370
      9 C          51.7016    8.1530  -30.6552 C.3     1  UNL1        0.0714
     10 C          52.3782    9.0706  -29.8465 C.3     1  UNL1        0.1761
     11 F          53.5585    9.5734  -30.2911 F       1  UNL1       -0.2365
     12 C          51.8354    9.4541  -28.5979 C.3     1  UNL1        0.1411
     13 C          52.4822   10.3712  -27.7445 C.2     1  UNL1        0.1637
     14 O          53.5796   10.8926  -28.0870 O.2     1  UNL1       -0.2956
     15 H          49.1282    8.8556  -26.7142 H       1  UNL1        0.2374
     16 C          49.9580   10.5230  -24.9002 C.3     1  UNL1        0.0516
     17 C          50.1435    9.7477  -23.7484 C.3     1  UNL1        0.0071
     18 C          49.4798   10.0730  -22.5623 C.3     1  UNL1        0.0162
     19 C          48.6065   11.1772  -22.5065 C.3     1  UNL1        0.0577
     20 C          48.4136   11.9413  -23.6743 C.3     1  UNL1        0.0162
     21 C          49.0782   11.6136  -24.8589 C.3     1  UNL1        0.0071
     22 N          47.9197   11.5163  -21.2788 N.3     1  UNL1       -0.2692
     23 C          46.4764   11.4312  -21.1043 C.3     1  UNL1        0.0779
     24 C          46.1836   12.0519  -19.7452 C.3     1  UNL1        0.0853
     25 C          47.5132   12.0423  -18.9968 C.3     1  UNL1        0.2797
     26 F          47.6497   13.1755  -18.2125 F       1  UNL1       -0.2028
     27 F          47.5916   10.9149  -18.1950 F       1  UNL1       -0.2028
     28 C          48.5893   11.9894  -20.0753 C.3     1  UNL1        0.1394
@<TRIPOS>BOND
     1     1     2    1
     2     2     3    1
     3     3    16    1
     4    16    17    1
     5    17    18    1
     6    18    19    1
     7    19    22    1
     8    22    23    1
     9    23    24    1
    10    24    25    1
    11    25    26    1
    12    25    27    1
    13    25    28    1
    14    19    20    1
    15    20    21    1
    16     3     4    1
    17     4     5    1
    18     5     6    1
    19     6     7    1
    20     7     8    1
    21     7     9    1
    22     9    10    1
    23    10    11    1
    24    10    12    1
    25    12    13    1
    26    13    14    2
    27    13     2    1
    28    21    16    1
    29    12     5    1
    30    28    22    1
    31     4    15    1
@<TRIPOS>MOLECULE
*****
 28 31 0 0 0
SMALL
GASTEIGER

@<TRIPOS>ATOM
      1 C          49.8754   13.4696  -24.2864 C.3     1  UNL1        0.0138
      2 C          48.7821   13.0653  -23.3221 C.3     1  UNL1        0.1087
      3 C          47.4963   12.6920  -23.7820 C.3     1  UNL1        0.0893
      4 N          46.5191   12.3787  -22.8837 N.4     1  UNL1        0.3475
      5 C          46.7425   12.3698  -21.5399 C.3     1  UNL1        0.0950
      6 C          45.7035   12.0299  -20.6583 C.3     1  UNL1        0.0923
      7 C          45.9253   12.0067  -19.2810 C.3     1  UNL1        0.1695
      8 F          44.9158   11.6772  -18.4378 F       1  UNL1       -0.2370
      9 C          47.1847   12.3208  -18.7703 C.3     1  UNL1        0.0714
     10 C          48.2320   12.6617  -19.6310 C.3     1  UNL1        0.1761
     11 F          49.4400   12.9615  -19.0884 F       1  UNL1       -0.2365
     12 C          48.0224   12.6915  -21.0296 C.3     1  UNL1        0.1411
     13 C          49.0447   13.0344  -21.9377 C.2     1  UNL1        0.1637
     14 O          50.2004   13.3178  -21.5162 O.2     1  UNL1       -0.2956
     15 H          45.5715   12.1171  -23.2428 H       1  UNL1        0.2374
     16 C          47.1708   12.6350  -25.2262 C.3     1  UNL1        0.0516
     17 C          47.4179   11.4636  -25.9534 C.3     1  UNL1        0.0071
     18 C          47.1314   11.4058  -27.3200 C.3     1  UNL1        0.0162
     19 C          46.6000   12.5247  -27.9914 C.3     1  UNL1        0.0577
     20 C          46.3702   13.7036  -27.2551 C.3     1  UNL1        0.0162
     21 C          46.6579   13.7587  -25.8888 C.3     1  UNL1        0.0071
     22 N          46.3014   12.4661  -29.4061 N.3     1  UNL1       -0.2692
     23 C          46.5586   11.3031  -30.2439 C.3     1  UNL1        0.0779
     24 C          46.2700   11.7461  -31.6717 C.3     1  UNL1        0.0853
     25 C          45.4127   13.0018  -31.5444 C.3     1  UNL1        0.2797
     26 F          45.7249   13.9187  -32.5343 F       1  UNL1       -0.2028
     27 F          44.0717   12.6649  -31.6349 F       1  UNL1       -0.2028
     28 C          45.7153   13.5651  -30.1606 C.3     1  UNL1        0.1394
@<TRIPOS>BOND
     1     1     2    1
     2     2     3    1
     3     3    16    1
     4    16    17    1
     5    17    18    1
     6    18    19    1
     7    19    22    1
     8    22    23    1
     9    23    24    1
    10    24    25    1
    11    25    26    1
    12    25    27    1
    13    25    28    1
    14    19    20    1
    15    20    21    1
    16     3     4    1
    17     4     5    1
    18     5     6    1
    19     6     7    1
    20     7     8    1
    21     7     9    1
    22     9    10    1
    23    10    11    1
    24    10    12    1
    25    12    13    1
    26    13    14    2
    27    13     2    1
    28    21    16    1
    29    12     5    1
    30    28    22    1
    31     4    15    1
@<TRIPOS>MOLECULE
*****
 28 31 0 0 0
SMALL
GASTEIGER

@<TRIPOS>ATOM
      1 C          49.3573    9.3102  -28.2491 C.3     1  UNL1        0.0138
      2 C          50.7279    8.8857  -28.7282 C.3     1  UNL1        0.1087
      3 C          51.9027    9.2898  -28.0491 C.3     1  UNL1        0.0893
      4 N          53.1249    8.9290  -28.5347 N.4     1  UNL1        0.3475
      5 C          53.2658    8.1481  -29.6420 C.3     1  UNL1        0.0950
      6 C          54.5483    7.7971  -30.0943 C.3     1  UNL1        0.0923
      7 C          54.7029    6.9884  -31.2207 C.3     1  UNL1        0.1695
      8 F          55.9452    6.6549  -31.6496 F       1  UNL1       -0.2370
      9 C          53.5810    6.5213  -31.9054 C.3     1  UNL1        0.0714
     10 C          52.2960    6.8593  -31.4713 C.3     1  UNL1        0.1761
     11 F          51.2340    6.3829  -32.1702 F       1  UNL1       -0.2365
     12 C          52.1228    7.6799  -30.3322 C.3     1  UNL1        0.1411
     13 C          50.8484    8.0528  -29.8587 C.2     1  UNL1        0.1637
     14 O          49.8080    7.6448  -30.4458 O.2     1  UNL1       -0.2956
     15 H          53.9820    9.2477  -28.0255 H       1  UNL1        0.2374
     16 C          51.8478   10.1075  -26.8149 C.3     1  UNL1        0.0516
     17 C          52.3019   11.4325  -26.8326 C.3     1  UNL1        0.0071
     18 C          52.2713   12.2063  -25.6693 C.3     1  UNL1        0.0162
     19 C          51.7943   11.6660  -24.4586 C.3     1  UNL1        0.0577
     20 C          51.3550   10.3275  -24.4468 C.3     1  UNL1        0.0162
     21 C          51.3870    9.5560  -25.6114 C.3     1  UNL1        0.0071
     22 N          51.7605   12.4663  -23.2534 N.3     1  UNL1       -0.2692
     23 C          52.8297   13.3668  -22.8452 C.3     1  UNL1        0.0779
     24 C          52.4587   13.8481  -21.4491 C.3     1  UNL1        0.0853
     25 C          50.9654   13.5705  -21.3047 C.3     1  UNL1        0.2797
     26 F          50.6558   13.1785  -20.0130 F       1  UNL1       -0.2028
     27 F          50.2439   14.7091  -21.6260 F       1  UNL1       -0.2028
     28 C          50.6573   12.4605  -22.3030 C.3     1  UNL1        0.1394
@<TRIPOS>BOND
     1     1     2    1
     2     2     3    1
     3     3    16    1
     4    16    17    1
     5    17    18    1
     6    18    19    1
     7    19    22    1
     8    22    23    1
     9    23    24    1
    10    24    25    1
    11    25    26    1
    12    25    27    1
    13    25    28    1
    14    19    20    1
    15    20    21    1
    16     3     4    1
    17     4     5    1
    18     5     6    1
    19     6     7    1
    20     7     8    1
    21     7     9    1
    22     9    10    1
    23    10    11    1
    24    10    12    1
    25    12    13    1
    26    13    14    2
    27    13     2    1
    28    21    16    1
    29    12     5    1
    30    28    22    1
    31     4    15    1
@<TRIPOS>MOLECULE
*****
 28 31 0 0 0
SMALL
GASTEIGER

@<TRIPOS>ATOM
      1 C          46.8545   16.1404  -23.9754 C.3     1  UNL1        0.0138
      2 C          46.8250   14.9576  -24.9179 C.3     1  UNL1        0.1087
      3 C          47.2261   13.6680  -24.4931 C.3     1  UNL1        0.0893
      4 N          47.2326   12.6328  -25.3810 N.4     1  UNL1        0.3475
      5 C          46.8235   12.7797  -26.6720 C.3     1  UNL1        0.0950
      6 C          46.8407   11.6781  -27.5430 C.3     1  UNL1        0.0923
      7 C          46.4129   11.8156  -28.8638 C.3     1  UNL1        0.1695
      8 F          46.4331   10.7461  -29.6971 F       1  UNL1       -0.2370
      9 C          45.9630   13.0516  -29.3280 C.3     1  UNL1        0.0714
     10 C          45.9381   14.1602  -28.4770 C.3     1  UNL1        0.1761
     11 F          45.4938   15.3433  -28.9733 F       1  UNL1       -0.2365
     12 C          46.3703   14.0373  -27.1358 C.3     1  UNL1        0.1411
     13 C          46.3695   15.1266  -26.2409 C.2     1  UNL1        0.1637
     14 O          45.9629   16.2600  -26.6199 O.2     1  UNL1       -0.2956
     15 H          47.5441   11.6897  -25.0510 H       1  UNL1        0.2374
     16 C          47.6502   13.4032  -23.0985 C.3     1  UNL1        0.0516
     17 C          48.8709   13.9066  -22.6308 C.3     1  UNL1        0.0071
     18 C          49.2884   13.6470  -21.3226 C.3     1  UNL1        0.0162
     19 C          48.4964   12.8677  -20.4562 C.3     1  UNL1        0.0577
     20 C          47.2781   12.3520  -20.9407 C.3     1  UNL1        0.0162
     21 C          46.8633   12.6129  -22.2493 C.3     1  UNL1        0.0071
     22 N          48.9265   12.5991  -19.1009 N.3     1  UNL1       -0.2692
     23 C          50.3183   12.6080  -18.6727 C.3     1  UNL1        0.0779
     24 C          50.3163   12.0965  -17.2386 C.3     1  UNL1        0.0853
     25 C          48.8804   12.2588  -16.7490 C.3     1  UNL1        0.2797
     26 F          48.5184   11.2129  -15.9167 F       1  UNL1       -0.2028
     27 F          48.7508   13.4573  -16.0659 F       1  UNL1       -0.2028
     28 C          48.0195   12.2813  -18.0069 C.3     1  UNL1        0.1394
@<TRIPOS>BOND
     1     1     2    1
     2     2     3    1
     3     3    16    1
     4    16    17    1
     5    17    18    1
     6    18    19    1
     7    19    22    1
     8    22    23    1
     9    23    24    1
    10    24    25    1
    11    25    26    1
    12    25    27    1
    13    25    28    1
    14    19    20    1
    15    20    21    1
    16     3     4    1
    17     4     5    1
    18     5     6    1
    19     6     7    1
    20     7     8    1
    21     7     9    1
    22     9    10    1
    23    10    11    1
    24    10    12    1
    25    12    13    1
    26    13    14    2
    27    13     2    1
    28    21    16    1
    29    12     5    1
    30    28    22    1
    31     4    15    1
@<TRIPOS>MOLECULE
*****
 28 31 0 0 0
SMALL
GASTEIGER

@<TRIPOS>ATOM
      1 C          53.1080   10.2454  -27.6446 C.3     1  UNL1        0.0138
      2 C          52.1035    9.4332  -28.4318 C.3     1  UNL1        0.1087
      3 C          50.7903    9.2182  -27.9483 C.3     1  UNL1        0.0893
      4 N          49.9241    8.4416  -28.6600 N.4     1  UNL1        0.3475
      5 C          50.2607    7.8871  -29.8579 C.3     1  UNL1        0.0950
      6 C          49.3270    7.1032  -30.5551 C.3     1  UNL1        0.0923
      7 C          49.6582    6.5404  -31.7881 C.3     1  UNL1        0.1695
      8 F          48.7499    5.7851  -32.4537 F       1  UNL1       -0.2370
      9 C          50.9222    6.7548  -32.3376 C.3     1  UNL1        0.0714
     10 C          51.8656    7.5320  -31.6595 C.3     1  UNL1        0.1761
     11 F          53.0834    7.7119  -32.2323 F       1  UNL1       -0.2365
     12 C          51.5456    8.1078  -30.4078 C.3     1  UNL1        0.1411
     13 C          52.4642    8.8941  -29.6830 C.2     1  UNL1        0.1637
     14 O          53.6157    9.1180  -30.1494 O.2     1  UNL1       -0.2956
     15 H          48.9617    8.2844  -28.2800 H       1  UNL1        0.2374
     16 C          50.3212    9.8124  -26.6748 C.3     1  UNL1        0.0516
     17 C          50.6319    9.1931  -25.4574 C.3     1  UNL1        0.0071
     18 C          50.1786    9.7357  -24.2519 C.3     1  UNL1        0.0162
     19 C          49.3943   10.9061  -24.2399 C.3     1  UNL1        0.0577
     20 C          49.0732   11.5126  -25.4702 C.3     1  UNL1        0.0162
     21 C          49.5275   10.9678  -26.6741 C.3     1  UNL1        0.0071
     22 N          48.9254   11.4700  -22.9924 N.3     1  UNL1       -0.2692
     23 C          49.5430   12.6124  -22.3334 C.3     1  UNL1        0.0779
     24 C          48.8511   12.7385  -20.9830 C.3     1  UNL1        0.0853
     25 C          47.5489   11.9547  -21.1163 C.3     1  UNL1        0.2797
     26 F          47.2379   11.3037  -19.9343 F       1  UNL1       -0.2028
     27 F          46.5165   12.8151  -21.4539 F       1  UNL1       -0.2028
     28 C          47.7853   10.9578  -22.2451 C.3     1  UNL1        0.1394
@<TRIPOS>BOND
     1     1     2    1
     2     2     3    1
     3     3    16    1
     4    16    17    1
     5    17    18    1
     6    18    19    1
     7    19    22    1
     8    22    23    1
     9    23    24    1
    10    24    25    1
    11    25    26    1
    12    25    27    1
    13    25    28    1
    14    19    20    1
    15    20    21    1
    16     3     4    1
    17     4     5    1
    18     5     6    1
    19     6     7    1
    20     7     8    1
    21     7     9    1
    22     9    10    1
    23    10    11    1
    24    10    12    1
    25    12    13    1
    26    13    14    2
    27    13     2    1
    28    21    16    1
    29    12     5    1
    30    28    22    1
    31     4    15    1
