@<TRIPOS>MOLECULE
*****
 46 51 0 0 0
SMALL
GASTEIGER

@<TRIPOS>ATOM
      1 C          -7.5292  -13.9232   27.8396 C.ar    1  UNL1        0.0702
      2 C          -7.0173  -12.8968   28.6483 C.ar    1  UNL1        0.0191
      3 C          -7.8228  -12.3026   29.6211 C.ar    1  UNL1        0.0356
      4 C          -9.1458  -12.7446   29.7939 C.ar    1  UNL1        0.1318
      5 N          -9.6086  -13.7623   29.0145 N.ar    1  UNL1       -0.2279
      6 C          -8.8420  -14.3559   28.0622 C.ar    1  UNL1        0.1149
      7 N         -10.0099  -12.1567   30.7905 N.pl3   1  UNL1       -0.2932
      8 C          -9.5489  -12.0559   32.1838 C.3     1  UNL1        0.0923
      9 C         -10.1688  -10.8277   32.8545 C.3     1  UNL1        0.0252
     10 C         -11.7184  -10.8691   32.8380 C.3     1  UNL1        0.0472
     11 C         -12.2855  -11.7257   31.6779 C.3     1  UNL1        0.0252
     12 C         -11.3755  -11.7261   30.4435 C.3     1  UNL1        0.0923
     13 C         -12.3044   -9.4420   32.8056 C.3     1  UNL1        0.2054
     14 O         -12.3139   -8.9167   31.4766 O.3     1  UNL1       -0.4755
     15 C         -11.4472   -7.9294   30.9794 C.ar    1  UNL1        0.1388
     16 C         -11.9223   -6.6164   30.9059 C.ar    1  UNL1        0.0369
     17 C         -11.1059   -5.5932   30.4227 C.ar    1  UNL1        0.0033
     18 C          -9.8033   -5.8714   30.0041 C.ar    1  UNL1        0.0066
     19 C          -9.3025   -7.1838   30.0629 C.ar    1  UNL1        0.0785
     20 C         -10.1291   -8.2074   30.5641 C.ar    1  UNL1        0.0433
     21 C          -7.9177   -7.4943   29.6297 C.2     1  UNL1        0.3381
     22 O          -6.9863   -6.6851   29.8847 O.2     1  UNL1       -0.2451
     23 O          -7.6066   -8.6741   28.9545 O.3     1  UNL1       -0.4771
     24 H          -8.2817   -9.4132   28.8085 H       1  UNL1        0.2954
     25 C          -7.2058  -14.9715   25.5502 C.2     1  UNL1        0.2839
     26 O          -8.4436  -14.9901   25.3131 O.2     1  UNL1       -0.2665
     27 N          -6.7229  -14.5776   26.8449 N.am    1  UNL1       -0.2766
     28 H          -5.7518  -14.8574   27.1119 H       1  UNL1        0.1553
     29 C          -3.1278  -16.8757   21.5764 C.ar    1  UNL1       -0.0001
     30 C          -4.0035  -16.1820   20.7046 C.ar    1  UNL1        0.0031
     31 C          -5.1545  -15.5478   21.2039 C.ar    1  UNL1        0.0375
     32 C          -5.3953  -15.6167   22.5729 C.ar    1  UNL1        0.1452
     33 O          -6.4032  -15.0979   23.2307 O.2     1  UNL1       -0.4492
     34 C          -6.2497  -15.3944   24.5093 C.ar    1  UNL1        0.1946
     35 C          -5.0822  -16.1445   24.6906 C.ar    1  UNL1        0.0202
     36 C          -4.5334  -16.6903   25.9742 C.3     1  UNL1        0.0345
     37 C          -4.5468  -16.2753   23.4239 C.ar    1  UNL1        0.0337
     38 C          -3.3954  -16.9144   22.9615 C.ar    1  UNL1        0.0028
     39 C          -1.8087  -18.9376   20.9283 C.ar    1  UNL1       -0.0222
     40 C          -0.6155  -19.4932   20.4321 C.ar    1  UNL1       -0.0043
     41 C           0.4446  -18.6720   20.0430 C.ar    1  UNL1       -0.0003
     42 C           0.3351  -17.2866   20.1578 C.ar    1  UNL1       -0.0000
     43 C          -0.8355  -16.7169   20.6607 C.ar    1  UNL1       -0.0003
     44 C          -1.9152  -17.5280   21.0455 C.ar    1  UNL1       -0.0040
     45 C          -3.8659  -20.2031   20.2771 C.3     1  UNL1        0.0050
     46 C          -2.8985  -19.8701   21.4087 C.3     1  UNL1        0.0264
@<TRIPOS>BOND
     1    45    46    1
     2    46    39    1
     3    39    40   ar
     4    40    41   ar
     5    41    42   ar
     6    42    43   ar
     7    43    44   ar
     8    44    29    1
     9    29    30   ar
    10    30    31   ar
    11    31    32   ar
    12    32    33   ar
    13    33    34   ar
    14    34    25    1
    15    25    26    2
    16    25    27   am
    17    27     1    1
    18     1     2   ar
    19     2     3   ar
    20     3     4   ar
    21     4     7    1
    22     7     8    1
    23     8     9    1
    24     9    10    1
    25    10    13    1
    26    13    14    1
    27    14    15    1
    28    15    16   ar
    29    16    17   ar
    30    17    18   ar
    31    18    19   ar
    32    19    21    1
    33    21    22    2
    34    21    23    1
    35    19    20   ar
    36    10    11    1
    37    11    12    1
    38     4     5   ar
    39     5     6   ar
    40    34    35   ar
    41    35    36    1
    42    35    37   ar
    43    37    38   ar
    44    44    39   ar
    45    38    29   ar
    46    37    32   ar
    47     6     1   ar
    48    12     7    1
    49    20    15   ar
    50    27    28    1
    51    23    24    1
@<TRIPOS>MOLECULE
*****
 46 51 0 0 0
SMALL
GASTEIGER

@<TRIPOS>ATOM
      1 C          -7.3361  -13.8131   27.8764 C.ar    1  UNL1        0.0702
      2 C          -8.6776  -14.1472   28.1174 C.ar    1  UNL1        0.0191
      3 C          -9.4149  -13.4443   29.0716 C.ar    1  UNL1        0.0356
      4 C          -8.8102  -12.3931   29.7823 C.ar    1  UNL1        0.1318
      5 N          -7.5147  -12.0709   29.5083 N.ar    1  UNL1       -0.2279
      6 C          -6.7784  -12.7409   28.5831 C.ar    1  UNL1        0.1149
      7 N          -9.5399  -11.6408   30.7759 N.pl3   1  UNL1       -0.2932
      8 C         -10.0771  -10.3149   30.4336 C.3     1  UNL1        0.0923
      9 C         -11.3571  -10.0457   31.2284 C.3     1  UNL1        0.0252
     10 C         -11.1232  -10.1151   32.7594 C.3     1  UNL1        0.0472
     11 C          -9.9168  -11.0083   33.1443 C.3     1  UNL1        0.0252
     12 C          -9.6872  -12.1527   32.1496 C.3     1  UNL1        0.0923
     13 C         -12.4029  -10.5745   33.4890 C.3     1  UNL1        0.2054
     14 O         -12.9966  -11.6976   32.8345 O.3     1  UNL1       -0.4755
     15 C         -12.8732  -13.0386   33.2341 C.ar    1  UNL1        0.1388
     16 C         -12.6234  -13.3000   34.5848 C.ar    1  UNL1        0.0369
     17 C         -12.4935  -14.6124   35.0406 C.ar    1  UNL1        0.0033
     18 C         -12.6096  -15.6809   34.1494 C.ar    1  UNL1        0.0066
     19 C         -12.8558  -15.4457   32.7853 C.ar    1  UNL1        0.0785
     20 C         -12.9983  -14.1186   32.3369 C.ar    1  UNL1        0.0433
     21 C         -12.9902  -16.5706   31.8271 C.2     1  UNL1        0.3381
     22 O         -13.5086  -16.3704   30.6964 O.2     1  UNL1       -0.2451
     23 O         -12.5422  -17.8548   32.1347 O.3     1  UNL1       -0.4771
     24 H         -12.0250  -18.0645   32.9785 H       1  UNL1        0.2954
     25 C          -7.0663  -14.9389   25.6170 C.2     1  UNL1        0.2839
     26 O          -8.3099  -14.9748   25.4147 O.2     1  UNL1       -0.2665
     27 N          -6.5517  -14.4963   26.8834 N.am    1  UNL1       -0.2766
     28 H          -5.5715  -14.7595   27.1335 H       1  UNL1        0.1553
     29 C          -3.0914  -16.9656   21.5997 C.ar    1  UNL1       -0.0001
     30 C          -3.9623  -16.2565   20.7356 C.ar    1  UNL1        0.0031
     31 C          -5.0907  -15.5917   21.2465 C.ar    1  UNL1        0.0375
     32 C          -5.3138  -15.6462   22.6192 C.ar    1  UNL1        0.1452
     33 O          -6.2996  -15.0992   23.2875 O.2     1  UNL1       -0.4492
     34 C          -6.1353  -15.3912   24.5657 C.ar    1  UNL1        0.1946
     35 C          -4.9837  -16.1680   24.7358 C.ar    1  UNL1        0.0202
     36 C          -4.4301  -16.7187   26.0153 C.3     1  UNL1        0.0345
     37 C          -4.4694  -16.3196   23.4626 C.ar    1  UNL1        0.0337
     38 C          -3.3403  -16.9891   22.9885 C.ar    1  UNL1        0.0028
     39 C          -1.8425  -19.0608   20.9201 C.ar    1  UNL1       -0.0222
     40 C          -0.6695  -19.6487   20.4127 C.ar    1  UNL1       -0.0043
     41 C           0.4159  -18.8576   20.0312 C.ar    1  UNL1       -0.0003
     42 C           0.3523  -17.4710   20.1648 C.ar    1  UNL1       -0.0000
     43 C          -0.7975  -16.8699   20.6789 C.ar    1  UNL1       -0.0003
     44 C          -1.9023  -17.6502   21.0563 C.ar    1  UNL1       -0.0040
     45 C          -3.9602  -20.2217   20.2681 C.3     1  UNL1        0.0050
     46 C          -2.9610  -19.9634   21.3915 C.3     1  UNL1        0.0264
@<TRIPOS>BOND
     1    45    46    1
     2    46    39    1
     3    39    40   ar
     4    40    41   ar
     5    41    42   ar
     6    42    43   ar
     7    43    44   ar
     8    44    29    1
     9    29    30   ar
    10    30    31   ar
    11    31    32   ar
    12    32    33   ar
    13    33    34   ar
    14    34    25    1
    15    25    26    2
    16    25    27   am
    17    27     1    1
    18     1     2   ar
    19     2     3   ar
    20     3     4   ar
    21     4     7    1
    22     7     8    1
    23     8     9    1
    24     9    10    1
    25    10    13    1
    26    13    14    1
    27    14    15    1
    28    15    16   ar
    29    16    17   ar
    30    17    18   ar
    31    18    19   ar
    32    19    21    1
    33    21    22    2
    34    21    23    1
    35    19    20   ar
    36    10    11    1
    37    11    12    1
    38     4     5   ar
    39     5     6   ar
    40    34    35   ar
    41    35    36    1
    42    35    37   ar
    43    37    38   ar
    44    44    39   ar
    45    38    29   ar
    46    37    32   ar
    47     6     1   ar
    48    12     7    1
    49    20    15   ar
    50    27    28    1
    51    23    24    1
@<TRIPOS>MOLECULE
*****
 46 51 0 0 0
SMALL
GASTEIGER

@<TRIPOS>ATOM
      1 C          -5.3281  -11.8777   27.9428 C.ar    1  UNL1        0.0702
      2 C          -6.1350  -12.1521   29.0578 C.ar    1  UNL1        0.0191
      3 C          -6.3429  -11.1733   30.0309 C.ar    1  UNL1        0.0356
      4 C          -5.7488   -9.9080   29.8832 C.ar    1  UNL1        0.1318
      5 N          -4.9933   -9.6589   28.7766 N.ar    1  UNL1       -0.2279
      6 C          -4.7783  -10.5964   27.8164 C.ar    1  UNL1        0.1149
      7 N          -5.9414   -8.8684   30.8669 N.pl3   1  UNL1       -0.2932
      8 C          -5.0187   -7.7234   30.9043 C.3     1  UNL1        0.0923
      9 C          -5.7518   -6.4741   31.3985 C.3     1  UNL1        0.0252
     10 C          -6.3661   -6.6727   32.8079 C.3     1  UNL1        0.0472
     11 C          -6.6637   -8.1588   33.1310 C.3     1  UNL1        0.0252
     12 C          -7.0046   -8.9789   31.8808 C.3     1  UNL1        0.0923
     13 C          -7.6322   -5.8078   32.9809 C.3     1  UNL1        0.2054
     14 O          -8.2244   -5.4993   31.7174 O.3     1  UNL1       -0.4755
     15 C          -9.3314   -6.1519   31.1499 C.ar    1  UNL1        0.1388
     16 C         -10.6077   -5.6861   31.4807 C.ar    1  UNL1        0.0369
     17 C         -11.7444   -6.2933   30.9459 C.ar    1  UNL1        0.0033
     18 C         -11.6187   -7.3768   30.0744 C.ar    1  UNL1        0.0066
     19 C         -10.3474   -7.8680   29.7292 C.ar    1  UNL1        0.0785
     20 C          -9.2057   -7.2407   30.2635 C.ar    1  UNL1        0.0433
     21 C         -10.1966   -9.0132   28.7979 C.2     1  UNL1        0.3381
     22 O          -9.7559  -10.1133   29.2256 O.2     1  UNL1       -0.2451
     23 O         -10.5451   -8.9154   27.4512 O.3     1  UNL1       -0.4771
     24 H         -11.0000   -8.0993   27.0634 H       1  UNL1        0.2954
     25 C          -5.9242  -14.0210   26.7196 C.2     1  UNL1        0.2839
     26 O          -6.7241  -14.3888   27.6216 O.2     1  UNL1       -0.2665
     27 N          -5.1115  -12.8508   26.9064 N.am    1  UNL1       -0.2766
     28 H          -4.2624  -12.7426   26.3065 H       1  UNL1        0.1553
     29 C          -5.2062  -17.5162   21.8911 C.ar    1  UNL1       -0.0001
     30 C          -5.9468  -16.4570   21.3099 C.ar    1  UNL1        0.0031
     31 C          -6.3637  -15.3644   22.0901 C.ar    1  UNL1        0.0375
     32 C          -6.0178  -15.3557   23.4382 C.ar    1  UNL1        0.1452
     33 O          -6.3079  -14.4386   24.3283 O.2     1  UNL1       -0.4492
     34 C          -5.7905  -14.8160   25.4841 C.ar    1  UNL1        0.1946
     35 C          -5.1308  -16.0415   25.3366 C.ar    1  UNL1        0.0202
     36 C          -4.4112  -16.8278   26.3905 C.3     1  UNL1        0.0345
     37 C          -5.2915  -16.3704   24.0046 C.ar    1  UNL1        0.0337
     38 C          -4.8612  -17.4687   23.2586 C.ar    1  UNL1        0.0028
     39 C          -3.5603  -18.6118   20.3093 C.ar    1  UNL1       -0.0222
     40 C          -3.2074  -19.7247   19.5246 C.ar    1  UNL1       -0.0043
     41 C          -4.0164  -20.8624   19.4978 C.ar    1  UNL1       -0.0003
     42 C          -5.1959  -20.8999   20.2407 C.ar    1  UNL1       -0.0000
     43 C          -5.5702  -19.8006   21.0147 C.ar    1  UNL1       -0.0003
     44 C          -4.7619  -18.6532   21.0619 C.ar    1  UNL1       -0.0040
     45 C          -1.2134  -17.7470   20.2690 C.3     1  UNL1        0.0050
     46 C          -2.6926  -17.3745   20.2454 C.3     1  UNL1        0.0264
@<TRIPOS>BOND
     1    45    46    1
     2    46    39    1
     3    39    40   ar
     4    40    41   ar
     5    41    42   ar
     6    42    43   ar
     7    43    44   ar
     8    44    29    1
     9    29    30   ar
    10    30    31   ar
    11    31    32   ar
    12    32    33   ar
    13    33    34   ar
    14    34    25    1
    15    25    26    2
    16    25    27   am
    17    27     1    1
    18     1     2   ar
    19     2     3   ar
    20     3     4   ar
    21     4     7    1
    22     7     8    1
    23     8     9    1
    24     9    10    1
    25    10    13    1
    26    13    14    1
    27    14    15    1
    28    15    16   ar
    29    16    17   ar
    30    17    18   ar
    31    18    19   ar
    32    19    21    1
    33    21    22    2
    34    21    23    1
    35    19    20   ar
    36    10    11    1
    37    11    12    1
    38     4     5   ar
    39     5     6   ar
    40    34    35   ar
    41    35    36    1
    42    35    37   ar
    43    37    38   ar
    44    44    39   ar
    45    38    29   ar
    46    37    32   ar
    47     6     1   ar
    48    12     7    1
    49    20    15   ar
    50    27    28    1
    51    23    24    1
@<TRIPOS>MOLECULE
*****
 46 51 0 0 0
SMALL
GASTEIGER

@<TRIPOS>ATOM
      1 C          -7.5688  -14.4391   27.4148 C.ar    1  UNL1        0.0702
      2 C          -8.9125  -14.7785   27.6352 C.ar    1  UNL1        0.0191
      3 C          -9.6526  -14.1127   28.6135 C.ar    1  UNL1        0.0356
      4 C          -9.0485  -13.0932   29.3695 C.ar    1  UNL1        0.1318
      5 N          -7.7506  -12.7642   29.1153 N.ar    1  UNL1       -0.2279
      6 C          -7.0115  -13.3983   28.1674 C.ar    1  UNL1        0.1149
      7 N          -9.7810  -12.3797   30.3892 N.pl3   1  UNL1       -0.2932
      8 C         -10.6083  -13.1283   31.3478 C.3     1  UNL1        0.0923
      9 C         -10.6538  -12.3924   32.6890 C.3     1  UNL1        0.0252
     10 C         -11.2179  -10.9549   32.5512 C.3     1  UNL1        0.0472
     11 C         -11.0225  -10.3651   31.1316 C.3     1  UNL1        0.0252
     12 C          -9.7693  -10.9071   30.4334 C.3     1  UNL1        0.0923
     13 C         -10.6124  -10.0235   33.6221 C.3     1  UNL1        0.2054
     14 O          -9.2837  -10.4233   33.9639 O.3     1  UNL1       -0.4755
     15 C          -8.1152  -10.0581   33.2750 C.ar    1  UNL1        0.1388
     16 C          -7.3834  -11.0685   32.6435 C.ar    1  UNL1        0.0369
     17 C          -6.2157  -10.7655   31.9424 C.ar    1  UNL1        0.0033
     18 C          -5.7635   -9.4467   31.8661 C.ar    1  UNL1        0.0066
     19 C          -6.4779   -8.4125   32.4961 C.ar    1  UNL1        0.0785
     20 C          -7.6620   -8.7260   33.1903 C.ar    1  UNL1        0.0433
     21 C          -6.0152   -7.0049   32.4173 C.2     1  UNL1        0.3381
     22 O          -4.8222   -6.7557   32.0978 O.2     1  UNL1       -0.2451
     23 O          -6.8718   -5.9348   32.6738 O.3     1  UNL1       -0.4771
     24 H          -7.8633   -6.0562   32.8337 H       1  UNL1        0.2954
     25 C          -7.0630  -15.0045   24.9920 C.2     1  UNL1        0.2839
     26 O          -8.1753  -14.5679   24.5911 O.2     1  UNL1       -0.2665
     27 N          -6.7813  -15.0838   26.3988 N.am    1  UNL1       -0.2766
     28 H          -6.0081  -15.7149   26.7092 H       1  UNL1        0.1553
     29 C          -2.8016  -17.0746   21.3040 C.ar    1  UNL1       -0.0001
     30 C          -3.6669  -16.4757   20.3551 C.ar    1  UNL1        0.0031
     31 C          -4.8516  -15.8418   20.7684 C.ar    1  UNL1        0.0375
     32 C          -5.1361  -15.8151   22.1305 C.ar    1  UNL1        0.1452
     33 O          -6.1798  -15.2798   22.7151 O.2     1  UNL1       -0.4492
     34 C          -6.0609  -15.4745   24.0167 C.ar    1  UNL1        0.1946
     35 C          -4.8792  -16.1724   24.2909 C.ar    1  UNL1        0.0202
     36 C          -4.3584  -16.6030   25.6289 C.3     1  UNL1        0.0345
     37 C          -4.2981  -16.3813   23.0552 C.ar    1  UNL1        0.0337
     38 C          -3.1142  -17.0174   22.6790 C.ar    1  UNL1        0.0028
     39 C          -1.4018  -19.1374   20.8600 C.ar    1  UNL1       -0.0222
     40 C          -0.1773  -19.6915   20.4447 C.ar    1  UNL1       -0.0043
     41 C           0.8699  -18.8695   20.0237 C.ar    1  UNL1       -0.0003
     42 C           0.7158  -17.4836   20.0257 C.ar    1  UNL1       -0.0000
     43 C          -0.4867  -16.9142   20.4471 C.ar    1  UNL1       -0.0003
     44 C          -1.5537  -17.7271   20.8624 C.ar    1  UNL1       -0.0040
     45 C          -3.5591  -20.2857   20.3262 C.3     1  UNL1        0.0050
     46 C          -2.4783  -20.0640   21.3798 C.3     1  UNL1        0.0264
@<TRIPOS>BOND
     1    45    46    1
     2    46    39    1
     3    39    40   ar
     4    40    41   ar
     5    41    42   ar
     6    42    43   ar
     7    43    44   ar
     8    44    29    1
     9    29    30   ar
    10    30    31   ar
    11    31    32   ar
    12    32    33   ar
    13    33    34   ar
    14    34    25    1
    15    25    26    2
    16    25    27   am
    17    27     1    1
    18     1     2   ar
    19     2     3   ar
    20     3     4   ar
    21     4     7    1
    22     7     8    1
    23     8     9    1
    24     9    10    1
    25    10    13    1
    26    13    14    1
    27    14    15    1
    28    15    16   ar
    29    16    17   ar
    30    17    18   ar
    31    18    19   ar
    32    19    21    1
    33    21    22    2
    34    21    23    1
    35    19    20   ar
    36    10    11    1
    37    11    12    1
    38     4     5   ar
    39     5     6   ar
    40    34    35   ar
    41    35    36    1
    42    35    37   ar
    43    37    38   ar
    44    44    39   ar
    45    38    29   ar
    46    37    32   ar
    47     6     1   ar
    48    12     7    1
    49    20    15   ar
    50    27    28    1
    51    23    24    1
@<TRIPOS>MOLECULE
*****
 46 51 0 0 0
SMALL
GASTEIGER

@<TRIPOS>ATOM
      1 C          -7.7054  -13.1962   28.6570 C.ar    1  UNL1        0.0702
      2 C          -7.2509  -12.0929   29.3955 C.ar    1  UNL1        0.0191
      3 C          -8.1546  -11.3130   30.1191 C.ar    1  UNL1        0.0356
      4 C          -9.5205  -11.6446   30.1130 C.ar    1  UNL1        0.1318
      5 N          -9.9308  -12.7379   29.4105 N.ar    1  UNL1       -0.2279
      6 C          -9.0688  -13.5118   28.6999 C.ar    1  UNL1        0.1149
      7 N         -10.4862  -10.8639   30.8502 N.pl3   1  UNL1       -0.2932
      8 C         -10.5960  -11.0317   32.3074 C.3     1  UNL1        0.0923
      9 C         -11.0313   -9.7156   32.9563 C.3     1  UNL1        0.0252
     10 C         -12.3882   -9.2090   32.4035 C.3     1  UNL1        0.0472
     11 C         -12.6866   -9.7263   30.9736 C.3     1  UNL1        0.0252
     12 C         -11.4134   -9.9575   30.1506 C.3     1  UNL1        0.0923
     13 C         -12.4612   -7.6686   32.4577 C.3     1  UNL1        0.2054
     14 O         -12.1171   -7.0898   31.1972 O.3     1  UNL1       -0.4755
     15 C         -10.9071   -6.4433   30.8953 C.ar    1  UNL1        0.1388
     16 C         -10.9153   -5.4735   29.8879 C.ar    1  UNL1        0.0369
     17 C          -9.7440   -4.7966   29.5461 C.ar    1  UNL1        0.0033
     18 C          -8.5479   -5.0834   30.2067 C.ar    1  UNL1        0.0066
     19 C          -8.5110   -6.0574   31.2200 C.ar    1  UNL1        0.0785
     20 C          -9.7005   -6.7260   31.5670 C.ar    1  UNL1        0.0433
     21 C          -7.2497   -6.3678   31.9372 C.2     1  UNL1        0.3381
     22 O          -7.2941   -6.8570   33.0974 O.2     1  UNL1       -0.2451
     23 O          -6.0012   -6.1471   31.3565 O.3     1  UNL1       -0.4771
     24 H          -5.8913   -5.8553   30.3941 H       1  UNL1        0.2954
     25 C          -7.2237  -15.0447   26.9849 C.2     1  UNL1        0.2839
     26 O          -8.4280  -15.4152   26.9507 O.2     1  UNL1       -0.2665
     27 N          -6.8024  -14.0389   27.9204 N.am    1  UNL1       -0.2766
     28 H          -5.7831  -13.9713   28.1419 H       1  UNL1        0.1553
     29 C          -3.3600  -17.4346   23.0597 C.ar    1  UNL1       -0.0001
     30 C          -2.8163  -17.9405   24.2666 C.ar    1  UNL1        0.0031
     31 C          -3.4086  -17.6291   25.5030 C.ar    1  UNL1        0.0375
     32 C          -4.5426  -16.8223   25.4982 C.ar    1  UNL1        0.1452
     33 O          -5.2368  -16.4192   26.5341 O.2     1  UNL1       -0.4492
     34 C          -6.2335  -15.6737   26.0903 C.ar    1  UNL1        0.1946
     35 C          -6.1834  -15.5883   24.6943 C.ar    1  UNL1        0.0202
     36 C          -7.1161  -14.8437   23.7874 C.3     1  UNL1        0.0345
     37 C          -5.0812  -16.3393   24.3343 C.ar    1  UNL1        0.0337
     38 C          -4.5189  -16.6300   23.0905 C.ar    1  UNL1        0.0028
     39 C          -3.2595  -18.7957   20.9269 C.ar    1  UNL1       -0.0222
     40 C          -2.6055  -19.0830   19.7151 C.ar    1  UNL1       -0.0043
     41 C          -1.4704  -18.3663   19.3312 C.ar    1  UNL1       -0.0003
     42 C          -0.9631  -17.3640   20.1574 C.ar    1  UNL1       -0.0000
     43 C          -1.5899  -17.0734   21.3700 C.ar    1  UNL1       -0.0003
     44 C          -2.7391  -17.7768   21.7654 C.ar    1  UNL1       -0.0040
     45 C          -5.5747  -19.5269   20.3247 C.3     1  UNL1        0.0050
     46 C          -4.4387  -19.6504   21.3354 C.3     1  UNL1        0.0264
@<TRIPOS>BOND
     1    45    46    1
     2    46    39    1
     3    39    40   ar
     4    40    41   ar
     5    41    42   ar
     6    42    43   ar
     7    43    44   ar
     8    44    29    1
     9    29    30   ar
    10    30    31   ar
    11    31    32   ar
    12    32    33   ar
    13    33    34   ar
    14    34    25    1
    15    25    26    2
    16    25    27   am
    17    27     1    1
    18     1     2   ar
    19     2     3   ar
    20     3     4   ar
    21     4     7    1
    22     7     8    1
    23     8     9    1
    24     9    10    1
    25    10    13    1
    26    13    14    1
    27    14    15    1
    28    15    16   ar
    29    16    17   ar
    30    17    18   ar
    31    18    19   ar
    32    19    21    1
    33    21    22    2
    34    21    23    1
    35    19    20   ar
    36    10    11    1
    37    11    12    1
    38     4     5   ar
    39     5     6   ar
    40    34    35   ar
    41    35    36    1
    42    35    37   ar
    43    37    38   ar
    44    44    39   ar
    45    38    29   ar
    46    37    32   ar
    47     6     1   ar
    48    12     7    1
    49    20    15   ar
    50    27    28    1
    51    23    24    1
@<TRIPOS>MOLECULE
*****
 46 51 0 0 0
SMALL
GASTEIGER

@<TRIPOS>ATOM
      1 C          -5.5034  -11.9516   28.0398 C.ar    1  UNL1        0.0702
      2 C          -6.2107  -12.1741   29.2313 C.ar    1  UNL1        0.0191
      3 C          -6.3672  -11.1415   30.1573 C.ar    1  UNL1        0.0356
      4 C          -5.8220   -9.8747   29.8856 C.ar    1  UNL1        0.1318
      5 N          -5.1645   -9.6781   28.7081 N.ar    1  UNL1       -0.2279
      6 C          -5.0010  -10.6685   27.7919 C.ar    1  UNL1        0.1149
      7 N          -5.9640   -8.7804   30.8172 N.pl3   1  UNL1       -0.2932
      8 C          -5.0926   -7.6020   30.6921 C.3     1  UNL1        0.0923
      9 C          -5.8284   -6.3509   31.1779 C.3     1  UNL1        0.0252
     10 C          -6.2950   -6.4788   32.6508 C.3     1  UNL1        0.0472
     11 C          -6.4954   -7.9504   33.0931 C.3     1  UNL1        0.0252
     12 C          -6.9190   -8.8632   31.9360 C.3     1  UNL1        0.0923
     13 C          -7.5750   -5.6521   32.8939 C.3     1  UNL1        0.2054
     14 O          -8.2327   -5.3430   31.6635 O.3     1  UNL1       -0.4755
     15 C          -9.3484   -6.0163   31.1389 C.ar    1  UNL1        0.1388
     16 C         -10.6193   -5.5356   31.4690 C.ar    1  UNL1        0.0369
     17 C         -11.7643   -6.1621   30.9756 C.ar    1  UNL1        0.0033
     18 C         -11.6523   -7.2801   30.1468 C.ar    1  UNL1        0.0066
     19 C         -10.3865   -7.7867   29.8034 C.ar    1  UNL1        0.0785
     20 C          -9.2366   -7.1402   30.2954 C.ar    1  UNL1        0.0433
     21 C         -10.2504   -8.9689   28.9170 C.2     1  UNL1        0.3381
     22 O          -9.9134  -10.0806   29.4046 O.2     1  UNL1       -0.2451
     23 O         -10.5009   -8.8925   27.5473 O.3     1  UNL1       -0.4771
     24 H         -10.8736   -8.0617   27.1066 H       1  UNL1        0.2954
     25 C          -6.1848  -14.1433   26.9546 C.2     1  UNL1        0.2839
     26 O          -6.9582  -14.4461   27.9027 O.2     1  UNL1       -0.2665
     27 N          -5.3435  -12.9824   27.0498 N.am    1  UNL1       -0.2766
     28 H          -4.5149  -12.9239   26.4153 H       1  UNL1        0.1553
     29 C          -6.2380  -17.7490   22.1544 C.ar    1  UNL1       -0.0001
     30 C          -4.9357  -17.2047   22.0285 C.ar    1  UNL1        0.0031
     31 C          -4.4593  -16.2681   22.9624 C.ar    1  UNL1        0.0375
     32 C          -5.3007  -15.9058   24.0101 C.ar    1  UNL1        0.1452
     33 O          -5.0488  -15.0562   24.9757 O.2     1  UNL1       -0.4492
     34 C          -6.1115  -15.0049   25.7594 C.ar    1  UNL1        0.1946
     35 C          -7.1045  -15.8654   25.2774 C.ar    1  UNL1        0.0202
     36 C          -8.4646  -16.1115   25.8573 C.3     1  UNL1        0.0345
     37 C          -6.5567  -16.4369   24.1453 C.ar    1  UNL1        0.0337
     38 C          -7.0599  -17.3693   23.2368 C.ar    1  UNL1        0.0028
     39 C          -8.0542  -18.7195   20.6809 C.ar    1  UNL1       -0.0222
     40 C          -8.4574  -19.7081   19.7650 C.ar    1  UNL1       -0.0043
     41 C          -7.5608  -20.6878   19.3341 C.ar    1  UNL1       -0.0003
     42 C          -6.2546  -20.7042   19.8221 C.ar    1  UNL1       -0.0000
     43 C          -5.8394  -19.7401   20.7418 C.ar    1  UNL1       -0.0003
     44 C          -6.7253  -18.7410   21.1765 C.ar    1  UNL1       -0.0040
     45 C         -10.3794  -18.4334   21.5579 C.3     1  UNL1        0.0050
     46 C          -9.0823  -17.7268   21.1764 C.3     1  UNL1        0.0264
@<TRIPOS>BOND
     1    45    46    1
     2    46    39    1
     3    39    40   ar
     4    40    41   ar
     5    41    42   ar
     6    42    43   ar
     7    43    44   ar
     8    44    29    1
     9    29    30   ar
    10    30    31   ar
    11    31    32   ar
    12    32    33   ar
    13    33    34   ar
    14    34    25    1
    15    25    26    2
    16    25    27   am
    17    27     1    1
    18     1     2   ar
    19     2     3   ar
    20     3     4   ar
    21     4     7    1
    22     7     8    1
    23     8     9    1
    24     9    10    1
    25    10    13    1
    26    13    14    1
    27    14    15    1
    28    15    16   ar
    29    16    17   ar
    30    17    18   ar
    31    18    19   ar
    32    19    21    1
    33    21    22    2
    34    21    23    1
    35    19    20   ar
    36    10    11    1
    37    11    12    1
    38     4     5   ar
    39     5     6   ar
    40    34    35   ar
    41    35    36    1
    42    35    37   ar
    43    37    38   ar
    44    44    39   ar
    45    38    29   ar
    46    37    32   ar
    47     6     1   ar
    48    12     7    1
    49    20    15   ar
    50    27    28    1
    51    23    24    1
