@<TRIPOS>MOLECULE
*****
 48 53 0 0 0
SMALL
GASTEIGER

@<TRIPOS>ATOM
      1 O          63.1330   82.0082   10.7294 O.2     1  UNL1       -0.2701
      2 C          62.2242   82.8751   10.6081 C.2     1  UNL1        0.2483
      3 N          61.0579   82.5798    9.8234 N.am    1  UNL1       -0.2945
      4 H          60.2095   83.1794    9.9388 H       1  UNL1        0.1501
      5 C          62.3620   84.1726   11.3071 C.ar    1  UNL1        0.0808
      6 C          62.1022   85.3657   10.6122 C.ar    1  UNL1        0.0080
      7 C          62.2303   86.6023   11.2497 C.ar    1  UNL1        0.0148
      8 C          62.6048   86.6705   12.6000 C.ar    1  UNL1        0.0502
      9 C          62.8543   85.4796   13.3003 C.ar    1  UNL1        0.0443
     10 C          62.7296   84.2399   12.6653 C.ar    1  UNL1        0.1457
     11 F          62.9268   83.1122   13.3939 F       1  UNL1       -0.2040
     12 N          62.7486   87.9457   13.2540 N.pl3   1  UNL1       -0.3040
     13 C          62.6089   88.0612   14.7127 C.3     1  UNL1        0.1122
     14 C          63.8585   88.7257   15.3018 C.3     1  UNL1        0.1122
     15 N          64.2965   89.8673   14.4819 N.pl3   1  UNL1       -0.3040
     16 C          63.4604   90.3215   13.3614 C.3     1  UNL1        0.1122
     17 C          63.1112   89.1315   12.4604 C.3     1  UNL1        0.1122
     18 C          65.5745   90.4794   14.7410 C.ar    1  UNL1        0.0488
     19 C          65.7788   91.2331   15.9079 C.ar    1  UNL1        0.0154
     20 C          67.0226   91.8160   16.1638 C.ar    1  UNL1        0.0135
     21 C          68.0794   91.6497   15.2628 C.ar    1  UNL1        0.0683
     22 CL         69.6300   92.3981   15.6204 Cl      1  UNL1       -0.0814
     23 C          67.8877   90.8908   14.0964 C.ar    1  UNL1        0.0694
     24 CL         69.1925   90.6473   12.9429 Cl      1  UNL1       -0.0813
     25 C          66.6405   90.3087   13.8415 C.ar    1  UNL1        0.0268
     26 C          60.9540   81.3611    9.0167 C.3     1  UNL1        0.1535
     27 C          60.5481   80.2011    9.8888 C.2     1  UNL1        0.2443
     28 O          60.9724   79.0436    9.6212 O.2     1  UNL1       -0.2730
     29 N          59.7698   80.4382   11.0731 N.am    1  UNL1       -0.2825
     30 H          59.6473   81.4281   11.3856 H       1  UNL1        0.1549
     31 C          59.2975   79.3986   11.9446 C.ar    1  UNL1        0.0535
     32 C          59.4003   79.5642   13.3322 C.ar    1  UNL1        0.0353
     33 C          58.9241   78.5650   14.1843 C.ar    1  UNL1        0.1002
     34 N          58.3496   77.4461   13.6689 N.ar    1  UNL1       -0.2422
     35 C          58.2188   77.2660   12.3278 C.ar    1  UNL1        0.1002
     36 C          58.6833   78.2402   11.4404 C.ar    1  UNL1        0.0353
     37 C          59.9403   81.5667    7.8752 C.3     1  UNL1        0.0569
     38 C          59.1438   82.8291    8.0613 C.ar    1  UNL1       -0.0008
     39 C          57.7907   82.8728    8.3830 C.ar    1  UNL1        0.0682
     40 N          57.3386   84.1436    8.3618 N.ar    1  UNL1       -0.3522
     41 C          58.3891   84.9075    8.0196 C.ar    1  UNL1        0.0572
     42 C          58.3884   86.2901    7.8483 C.ar    1  UNL1        0.0170
     43 C          59.5885   86.9077    7.4637 C.ar    1  UNL1        0.0023
     44 C          60.7526   86.1399    7.2585 C.ar    1  UNL1        0.0115
     45 C          60.7337   84.7428    7.4336 C.ar    1  UNL1        0.0588
     46 CL         62.2170   83.8367    7.1776 Cl      1  UNL1       -0.0822
     47 C          59.5203   84.1471    7.8209 C.ar    1  UNL1        0.0237
     48 H          56.3622   84.4617    8.5519 H       1  UNL1        0.1660
@<TRIPOS>BOND
     1     1     2    2
     2     2     3   am
     3     3    26    1
     4    26    37    1
     5    37    38    1
     6    38    39   ar
     7    39    40   ar
     8    40    41   ar
     9    41    42   ar
    10    42    43   ar
    11    43    44   ar
    12    44    45   ar
    13    45    46    1
    14    45    47   ar
    15    26    27    1
    16    27    28    2
    17    27    29   am
    18    29    31    1
    19    31    32   ar
    20    32    33   ar
    21    33    34   ar
    22    34    35   ar
    23    35    36   ar
    24     2     5    1
    25     5     6   ar
    26     6     7   ar
    27     7     8   ar
    28     8    12    1
    29    12    13    1
    30    13    14    1
    31    14    15    1
    32    15    18    1
    33    18    19   ar
    34    19    20   ar
    35    20    21   ar
    36    21    22    1
    37    21    23   ar
    38    23    24    1
    39    23    25   ar
    40    15    16    1
    41    16    17    1
    42     8     9   ar
    43     9    10   ar
    44    10    11    1
    45    47    38   ar
    46    36    31   ar
    47    10     5   ar
    48    47    41   ar
    49    17    12    1
    50    25    18   ar
    51     3     4    1
    52    40    48    1
    53    29    30    1
@<TRIPOS>MOLECULE
*****
 48 53 0 0 0
SMALL
GASTEIGER

@<TRIPOS>ATOM
      1 O          58.7100   82.6365   13.3251 O.2     1  UNL1       -0.2701
      2 C          59.9164   82.8355   13.0136 C.2     1  UNL1        0.2483
      3 N          60.7149   81.7464   12.5242 N.am    1  UNL1       -0.2945
      4 H          61.6097   81.9621   12.0288 H       1  UNL1        0.1501
      5 C          60.4789   84.2000   13.1266 C.ar    1  UNL1        0.0808
      6 C          60.2242   84.9618   14.2794 C.ar    1  UNL1        0.0080
      7 C          60.7404   86.2538   14.4064 C.ar    1  UNL1        0.0148
      8 C          61.5358   86.8045   13.3903 C.ar    1  UNL1        0.0502
      9 C          61.8014   86.0418   12.2421 C.ar    1  UNL1        0.0443
     10 C          61.2846   84.7491   12.1099 C.ar    1  UNL1        0.1457
     11 F          61.6111   84.0266   11.0085 F       1  UNL1       -0.2040
     12 N          62.0580   88.1410   13.5158 N.pl3   1  UNL1       -0.3040
     13 C          62.1431   88.7933   14.8303 C.3     1  UNL1        0.1122
     14 C          63.5798   89.2650   15.0823 C.3     1  UNL1        0.1122
     15 N          64.1595   89.8866   13.8801 N.pl3   1  UNL1       -0.3040
     16 C          63.3116   90.1235   12.7029 C.3     1  UNL1        0.1122
     17 C          62.5788   88.8314   12.3243 C.3     1  UNL1        0.1122
     18 C          65.5676   90.1881   13.8448 C.ar    1  UNL1        0.0488
     19 C          66.2951   90.3296   15.0374 C.ar    1  UNL1        0.0154
     20 C          67.6635   90.6099   15.0013 C.ar    1  UNL1        0.0135
     21 C          68.3245   90.7465   13.7762 C.ar    1  UNL1        0.0683
     22 CL         70.0473   91.0985   13.7721 Cl      1  UNL1       -0.0814
     23 C          67.6075   90.5986   12.5774 C.ar    1  UNL1        0.0694
     24 CL         68.4016   90.7511   11.0159 Cl      1  UNL1       -0.0813
     25 C          66.2364   90.3190   12.6158 C.ar    1  UNL1        0.0268
     26 C          60.2267   80.3648   12.5258 C.3     1  UNL1        0.1535
     27 C          59.6849   80.0103   11.1650 C.2     1  UNL1        0.2443
     28 O          59.2041   78.8608   10.9674 O.2     1  UNL1       -0.2730
     29 N          59.6251   81.0136   10.1382 N.am    1  UNL1       -0.2825
     30 H          59.8057   82.0053   10.4149 H       1  UNL1        0.1549
     31 C          59.1670   80.7657    8.7995 C.ar    1  UNL1        0.0535
     32 C          57.8112   80.9419    8.4923 C.ar    1  UNL1        0.0353
     33 C          57.3644   80.7218    7.1873 C.ar    1  UNL1        0.1002
     34 N          58.2440   80.3545    6.2183 N.ar    1  UNL1       -0.2422
     35 C          59.5680   80.1943    6.4821 C.ar    1  UNL1        0.1002
     36 C          60.0563   80.4030    7.7744 C.ar    1  UNL1        0.0353
     37 C          61.3605   79.4033   12.9293 C.3     1  UNL1        0.0569
     38 C          62.3886   80.0873   13.7883 C.ar    1  UNL1       -0.0008
     39 C          62.4668   79.9744   15.1730 C.ar    1  UNL1        0.0682
     40 N          63.4159   80.7982   15.6635 N.ar    1  UNL1       -0.3522
     41 C          63.9349   81.4413   14.6046 C.ar    1  UNL1        0.0572
     42 C          64.9330   82.4130   14.6318 C.ar    1  UNL1        0.0170
     43 C          65.3268   82.9884   13.4139 C.ar    1  UNL1        0.0023
     44 C          64.7210   82.5873   12.2061 C.ar    1  UNL1        0.0115
     45 C          63.7116   81.6056   12.1981 C.ar    1  UNL1        0.0588
     46 CL         63.0006   81.1338   10.6624 Cl      1  UNL1       -0.0822
     47 C          63.3355   81.0423   13.4305 C.ar    1  UNL1        0.0237
     48 H          63.6753   80.9234   16.6673 H       1  UNL1        0.1660
@<TRIPOS>BOND
     1     1     2    2
     2     2     3   am
     3     3    26    1
     4    26    37    1
     5    37    38    1
     6    38    39   ar
     7    39    40   ar
     8    40    41   ar
     9    41    42   ar
    10    42    43   ar
    11    43    44   ar
    12    44    45   ar
    13    45    46    1
    14    45    47   ar
    15    26    27    1
    16    27    28    2
    17    27    29   am
    18    29    31    1
    19    31    32   ar
    20    32    33   ar
    21    33    34   ar
    22    34    35   ar
    23    35    36   ar
    24     2     5    1
    25     5     6   ar
    26     6     7   ar
    27     7     8   ar
    28     8    12    1
    29    12    13    1
    30    13    14    1
    31    14    15    1
    32    15    18    1
    33    18    19   ar
    34    19    20   ar
    35    20    21   ar
    36    21    22    1
    37    21    23   ar
    38    23    24    1
    39    23    25   ar
    40    15    16    1
    41    16    17    1
    42     8     9   ar
    43     9    10   ar
    44    10    11    1
    45    47    38   ar
    46    36    31   ar
    47    10     5   ar
    48    47    41   ar
    49    17    12    1
    50    25    18   ar
    51     3     4    1
    52    40    48    1
    53    29    30    1
@<TRIPOS>MOLECULE
*****
 48 53 0 0 0
SMALL
GASTEIGER

@<TRIPOS>ATOM
      1 O          61.0720   84.8523   15.9156 O.2     1  UNL1       -0.2701
      2 C          61.6963   85.0014   14.8292 C.2     1  UNL1        0.2483
      3 N          61.5335   84.0384   13.7759 N.am    1  UNL1       -0.2945
      4 H          61.8334   84.2963   12.8083 H       1  UNL1        0.1501
      5 C          62.5616   86.1885   14.6472 C.ar    1  UNL1        0.0808
      6 C          63.2593   86.7133   15.7481 C.ar    1  UNL1        0.0080
      7 C          64.0782   87.8358   15.6015 C.ar    1  UNL1        0.0148
      8 C          64.2291   88.4467   14.3476 C.ar    1  UNL1        0.0502
      9 C          63.5421   87.9181   13.2434 C.ar    1  UNL1        0.0443
     10 C          62.7196   86.7961   13.3863 C.ar    1  UNL1        0.1457
     11 F          62.1175   86.2852   12.2826 F       1  UNL1       -0.2040
     12 N          65.0637   89.6112   14.1989 N.pl3   1  UNL1       -0.3040
     13 C          66.5264   89.5039   14.2971 C.3     1  UNL1        0.1122
     14 C          67.1745   90.0915   13.0381 C.3     1  UNL1        0.1122
     15 N          66.5244   91.3500   12.6371 N.pl3   1  UNL1       -0.3040
     16 C          65.5085   91.9546   13.5107 C.3     1  UNL1        0.1122
     17 C          64.4482   90.9083   13.8729 C.3     1  UNL1        0.1122
     18 C          66.8377   91.9358   11.3589 C.ar    1  UNL1        0.0488
     19 C          66.3372   93.2017   11.0145 C.ar    1  UNL1        0.0154
     20 C          66.6521   93.7739    9.7793 C.ar    1  UNL1        0.0135
     21 C          67.4745   93.0940    8.8750 C.ar    1  UNL1        0.0683
     22 CL         67.8487   93.8474    7.3308 Cl      1  UNL1       -0.0814
     23 C          67.9870   91.8307    9.2133 C.ar    1  UNL1        0.0694
     24 CL         69.0336   90.9468    8.1107 Cl      1  UNL1       -0.0813
     25 C          67.6694   91.2588   10.4508 C.ar    1  UNL1        0.0268
     26 C          60.7909   82.7909   13.9735 C.3     1  UNL1        0.1535
     27 C          59.7472   82.6388   12.8972 C.2     1  UNL1        0.2443
     28 O          58.5478   82.4188   13.2207 O.2     1  UNL1       -0.2730
     29 N          60.1062   82.8483   11.5218 N.am    1  UNL1       -0.2825
     30 H          61.0444   83.2633   11.3209 H       1  UNL1        0.1549
     31 C          59.1974   82.6858   10.4213 C.ar    1  UNL1        0.0535
     32 C          58.9867   81.4082    9.8856 C.ar    1  UNL1        0.0353
     33 C          58.0887   81.2418    8.8287 C.ar    1  UNL1        0.1002
     34 N          57.4115   82.3118    8.3345 N.ar    1  UNL1       -0.2422
     35 C          57.5809   83.5599    8.8462 C.ar    1  UNL1        0.1002
     36 C          58.4707   83.7703    9.9026 C.ar    1  UNL1        0.0353
     37 C          61.7585   81.5924   13.9688 C.3     1  UNL1        0.0569
     38 C          61.2012   80.4324   13.1899 C.ar    1  UNL1       -0.0008
     39 C          60.3022   79.4976   13.6941 C.ar    1  UNL1        0.0682
     40 N          60.0849   78.5153   12.7953 N.ar    1  UNL1       -0.3522
     41 C          60.8452   78.8113   11.7283 C.ar    1  UNL1        0.0572
     42 C          60.9629   78.0615   10.5600 C.ar    1  UNL1        0.0170
     43 C          61.8321   78.5277    9.5617 C.ar    1  UNL1        0.0023
     44 C          62.5601   79.7200    9.7490 C.ar    1  UNL1        0.0115
     45 C          62.4307   80.4635   10.9379 C.ar    1  UNL1        0.0588
     46 CL         63.3515   81.9494   11.1125 Cl      1  UNL1       -0.0822
     47 C          61.5523   79.9773   11.9225 C.ar    1  UNL1        0.0237
     48 H          59.4666   77.6827   12.9183 H       1  UNL1        0.1660
@<TRIPOS>BOND
     1     1     2    2
     2     2     3   am
     3     3    26    1
     4    26    37    1
     5    37    38    1
     6    38    39   ar
     7    39    40   ar
     8    40    41   ar
     9    41    42   ar
    10    42    43   ar
    11    43    44   ar
    12    44    45   ar
    13    45    46    1
    14    45    47   ar
    15    26    27    1
    16    27    28    2
    17    27    29   am
    18    29    31    1
    19    31    32   ar
    20    32    33   ar
    21    33    34   ar
    22    34    35   ar
    23    35    36   ar
    24     2     5    1
    25     5     6   ar
    26     6     7   ar
    27     7     8   ar
    28     8    12    1
    29    12    13    1
    30    13    14    1
    31    14    15    1
    32    15    18    1
    33    18    19   ar
    34    19    20   ar
    35    20    21   ar
    36    21    22    1
    37    21    23   ar
    38    23    24    1
    39    23    25   ar
    40    15    16    1
    41    16    17    1
    42     8     9   ar
    43     9    10   ar
    44    10    11    1
    45    47    38   ar
    46    36    31   ar
    47    10     5   ar
    48    47    41   ar
    49    17    12    1
    50    25    18   ar
    51     3     4    1
    52    40    48    1
    53    29    30    1
@<TRIPOS>MOLECULE
*****
 48 53 0 0 0
SMALL
GASTEIGER

@<TRIPOS>ATOM
      1 O          60.0310   83.0442   13.7666 O.2     1  UNL1       -0.2701
      2 C          60.7710   83.3483   12.7908 C.2     1  UNL1        0.2483
      3 N          61.0897   82.3565   11.8020 N.am    1  UNL1       -0.2945
      4 H          61.4718   82.6697   10.8808 H       1  UNL1        0.1501
      5 C          61.2710   84.7358   12.6650 C.ar    1  UNL1        0.0808
      6 C          60.9068   85.5055   11.5473 C.ar    1  UNL1        0.0080
      7 C          61.3705   86.8157   11.4046 C.ar    1  UNL1        0.0148
      8 C          62.1945   87.3888   12.3848 C.ar    1  UNL1        0.0502
      9 C          62.5511   86.6263   13.5081 C.ar    1  UNL1        0.0443
     10 C          62.0912   85.3137   13.6537 C.ar    1  UNL1        0.1457
     11 F          62.4152   84.6313   14.7811 F       1  UNL1       -0.2040
     12 N          62.6824   88.7354   12.2318 N.pl3   1  UNL1       -0.3040
     13 C          63.3171   89.4362   13.3573 C.3     1  UNL1        0.1122
     14 C          64.7056   89.9346   12.9403 C.3     1  UNL1        0.1122
     15 N          64.6828   90.5192   11.5893 N.pl3   1  UNL1       -0.3040
     16 C          63.3987   90.7025   10.8976 C.3     1  UNL1        0.1122
     17 C          62.6095   89.3884   10.9143 C.3     1  UNL1        0.1122
     18 C          65.9243   90.8367   10.9314 C.ar    1  UNL1        0.0488
     19 C          67.0932   90.1197   11.2333 C.ar    1  UNL1        0.0154
     20 C          68.2939   90.4207   10.5854 C.ar    1  UNL1        0.0135
     21 C          68.3428   91.4357    9.6243 C.ar    1  UNL1        0.0683
     22 CL         69.8725   91.7843    8.8301 Cl      1  UNL1       -0.0814
     23 C          67.1773   92.1535    9.3091 C.ar    1  UNL1        0.0694
     24 CL         67.1921   93.4296    8.0992 Cl      1  UNL1       -0.0813
     25 C          65.9756   91.8511    9.9602 C.ar    1  UNL1        0.0268
     26 C          60.7196   80.9485   11.9683 C.3     1  UNL1        0.1535
     27 C          59.9892   80.4616   10.7434 C.2     1  UNL1        0.2443
     28 O          59.4366   79.3276   10.7587 O.2     1  UNL1       -0.2730
     29 N          59.8397   81.3318    9.6099 N.am    1  UNL1       -0.2825
     30 H          60.0984   82.3374    9.7302 H       1  UNL1        0.1549
     31 C          59.1998   80.9483    8.3824 C.ar    1  UNL1        0.0535
     32 C          59.9692   80.4016    7.3467 C.ar    1  UNL1        0.0353
     33 C          59.3486   80.0083    6.1587 C.ar    1  UNL1        0.1002
     34 N          58.0034   80.1408    6.0159 N.ar    1  UNL1       -0.2422
     35 C          57.2285   80.6500    7.0101 C.ar    1  UNL1        0.1002
     36 C          57.8095   81.0569    8.2138 C.ar    1  UNL1        0.0353
     37 C          61.9772   80.0977   12.2280 C.3     1  UNL1        0.0569
     38 C          62.7092   80.5519   13.4612 C.ar    1  UNL1       -0.0008
     39 C          62.4219   80.1279   14.7550 C.ar    1  UNL1        0.0682
     40 N          63.1695   80.8027   15.6526 N.ar    1  UNL1       -0.3522
     41 C          63.9221   81.6591   14.9424 C.ar    1  UNL1        0.0572
     42 C          64.8332   82.5818   15.4518 C.ar    1  UNL1        0.0170
     43 C          65.5104   83.4103   14.5439 C.ar    1  UNL1        0.0023
     44 C          65.2654   83.3031   13.1600 C.ar    1  UNL1        0.0115
     45 C          64.3386   82.3665   12.6633 C.ar    1  UNL1        0.0588
     46 CL         64.0823   82.2663   10.9282 Cl      1  UNL1       -0.0822
     47 C          63.6740   81.5462   13.5923 C.ar    1  UNL1        0.0237
     48 H          63.1473   80.6934   16.6910 H       1  UNL1        0.1660
@<TRIPOS>BOND
     1     1     2    2
     2     2     3   am
     3     3    26    1
     4    26    37    1
     5    37    38    1
     6    38    39   ar
     7    39    40   ar
     8    40    41   ar
     9    41    42   ar
    10    42    43   ar
    11    43    44   ar
    12    44    45   ar
    13    45    46    1
    14    45    47   ar
    15    26    27    1
    16    27    28    2
    17    27    29   am
    18    29    31    1
    19    31    32   ar
    20    32    33   ar
    21    33    34   ar
    22    34    35   ar
    23    35    36   ar
    24     2     5    1
    25     5     6   ar
    26     6     7   ar
    27     7     8   ar
    28     8    12    1
    29    12    13    1
    30    13    14    1
    31    14    15    1
    32    15    18    1
    33    18    19   ar
    34    19    20   ar
    35    20    21   ar
    36    21    22    1
    37    21    23   ar
    38    23    24    1
    39    23    25   ar
    40    15    16    1
    41    16    17    1
    42     8     9   ar
    43     9    10   ar
    44    10    11    1
    45    47    38   ar
    46    36    31   ar
    47    10     5   ar
    48    47    41   ar
    49    17    12    1
    50    25    18   ar
    51     3     4    1
    52    40    48    1
    53    29    30    1
@<TRIPOS>MOLECULE
*****
 48 53 0 0 0
SMALL
GASTEIGER

@<TRIPOS>ATOM
      1 O          59.0026   83.8992    9.7842 O.2     1  UNL1       -0.2701
      2 C          59.1200   84.0009    8.5320 C.2     1  UNL1        0.2483
      3 N          59.0830   82.8204    7.7147 N.am    1  UNL1       -0.2945
      4 H          58.9171   82.9249    6.6879 H       1  UNL1        0.1501
      5 C          59.2604   85.3430    7.9236 C.ar    1  UNL1        0.0808
      6 C          58.1163   86.0239    7.4746 C.ar    1  UNL1        0.0080
      7 C          58.2246   87.2895    6.8927 C.ar    1  UNL1        0.0148
      8 C          59.4775   87.9073    6.7629 C.ar    1  UNL1        0.0502
      9 C          60.6213   87.2344    7.2207 C.ar    1  UNL1        0.0443
     10 C          60.5176   85.9665    7.8015 C.ar    1  UNL1        0.1457
     11 F          61.6415   85.3754    8.2800 F       1  UNL1       -0.2040
     12 N          59.5906   89.2068    6.1520 N.pl3   1  UNL1       -0.3040
     13 C          60.8955   89.8752    6.0456 C.3     1  UNL1        0.1122
     14 C          61.1670   90.2516    4.5845 C.3     1  UNL1        0.1122
     15 N          59.9659   90.8103    3.9420 N.pl3   1  UNL1       -0.3040
     16 C          58.7690   91.0838    4.7504 C.3     1  UNL1        0.1122
     17 C          58.3980   89.8384    5.5637 C.3     1  UNL1        0.1122
     18 C          59.9524   91.0137    2.5160 C.ar    1  UNL1        0.0488
     19 C          58.7516   91.3090    1.8508 C.ar    1  UNL1        0.0154
     20 C          58.7421   91.5181    0.4694 C.ar    1  UNL1        0.0135
     21 C          59.9302   91.4415   -0.2648 C.ar    1  UNL1        0.0683
     22 CL         59.8776   91.7116   -2.0016 Cl      1  UNL1       -0.0814
     23 C          61.1381   91.1547    0.3923 C.ar    1  UNL1        0.0694
     24 CL         62.6558   91.0602   -0.4908 Cl      1  UNL1       -0.0813
     25 C          61.1451   90.9444    1.7762 C.ar    1  UNL1        0.0268
     26 C          59.0774   81.4750    8.2951 C.3     1  UNL1        0.1535
     27 C          60.4098   81.1876    8.9378 C.2     1  UNL1        0.2443
     28 O          60.9243   80.0421    8.8170 O.2     1  UNL1       -0.2730
     29 N          61.1287   82.2461    9.5915 N.am    1  UNL1       -0.2825
     30 H          60.7837   83.2239    9.4587 H       1  UNL1        0.1549
     31 C          62.3822   82.0657   10.2694 C.ar    1  UNL1        0.0535
     32 C          63.5250   82.7185    9.7885 C.ar    1  UNL1        0.0353
     33 C          64.7421   82.5624   10.4560 C.ar    1  UNL1        0.1002
     34 N          64.8123   81.7942   11.5752 N.ar    1  UNL1       -0.2422
     35 C          63.7167   81.1641   12.0761 C.ar    1  UNL1        0.1002
     36 C          62.4804   81.2925   11.4381 C.ar    1  UNL1        0.0353
     37 C          57.9368   81.3464    9.3223 C.3     1  UNL1        0.0569
     38 C          58.0564   80.0822   10.1288 C.ar    1  UNL1       -0.0008
     39 C          57.6372   78.8262    9.7011 C.ar    1  UNL1        0.0682
     40 N          57.7683   77.9194   10.6913 N.ar    1  UNL1       -0.3522
     41 C          58.2573   78.5891   11.7479 C.ar    1  UNL1        0.0572
     42 C          58.5315   78.0634   13.0086 C.ar    1  UNL1        0.0170
     43 C          59.0193   78.9346   13.9948 C.ar    1  UNL1        0.0023
     44 C          59.2197   80.2996   13.7056 C.ar    1  UNL1        0.0115
     45 C          58.9343   80.8139   12.4263 C.ar    1  UNL1        0.0588
     46 CL         59.2156   82.5203   12.1170 Cl      1  UNL1       -0.0822
     47 C          58.4485   79.9213   11.4544 C.ar    1  UNL1        0.0237
     48 H          57.5173   76.9066   10.6470 H       1  UNL1        0.1660
@<TRIPOS>BOND
     1     1     2    2
     2     2     3   am
     3     3    26    1
     4    26    37    1
     5    37    38    1
     6    38    39   ar
     7    39    40   ar
     8    40    41   ar
     9    41    42   ar
    10    42    43   ar
    11    43    44   ar
    12    44    45   ar
    13    45    46    1
    14    45    47   ar
    15    26    27    1
    16    27    28    2
    17    27    29   am
    18    29    31    1
    19    31    32   ar
    20    32    33   ar
    21    33    34   ar
    22    34    35   ar
    23    35    36   ar
    24     2     5    1
    25     5     6   ar
    26     6     7   ar
    27     7     8   ar
    28     8    12    1
    29    12    13    1
    30    13    14    1
    31    14    15    1
    32    15    18    1
    33    18    19   ar
    34    19    20   ar
    35    20    21   ar
    36    21    22    1
    37    21    23   ar
    38    23    24    1
    39    23    25   ar
    40    15    16    1
    41    16    17    1
    42     8     9   ar
    43     9    10   ar
    44    10    11    1
    45    47    38   ar
    46    36    31   ar
    47    10     5   ar
    48    47    41   ar
    49    17    12    1
    50    25    18   ar
    51     3     4    1
    52    40    48    1
    53    29    30    1
@<TRIPOS>MOLECULE
*****
 48 53 0 0 0
SMALL
GASTEIGER

@<TRIPOS>ATOM
      1 O          63.1296   82.5360    8.8984 O.2     1  UNL1       -0.2701
      2 C          62.2095   82.9435    9.6597 C.2     1  UNL1        0.2483
      3 N          61.0701   82.1061    9.9119 N.am    1  UNL1       -0.2945
      4 H          60.4551   82.3264   10.7280 H       1  UNL1        0.1501
      5 C          62.3383   84.2680   10.3080 C.ar    1  UNL1        0.0808
      6 C          62.3510   84.3554   11.7103 C.ar    1  UNL1        0.0080
      7 C          62.4667   85.5949   12.3444 C.ar    1  UNL1        0.0148
      8 C          62.5886   86.7711   11.5894 C.ar    1  UNL1        0.0502
      9 C          62.5874   86.6860   10.1881 C.ar    1  UNL1        0.0443
     10 C          62.4694   85.4476    9.5494 C.ar    1  UNL1        0.1457
     11 F          62.5278   85.4055    8.1942 F       1  UNL1       -0.2040
     12 N          62.6957   88.0501   12.2429 N.pl3   1  UNL1       -0.3040
     13 C          62.3059   88.2084   13.6514 C.3     1  UNL1        0.1122
     14 C          63.4708   88.8086   14.4468 C.3     1  UNL1        0.1122
     15 N          64.1209   89.9015   13.7049 N.pl3   1  UNL1       -0.3040
     16 C          63.5290   90.3796   12.4472 C.3     1  UNL1        0.1122
     17 C          63.2699   89.1924   11.5128 C.3     1  UNL1        0.1122
     18 C          65.3691   90.4399   14.1816 C.ar    1  UNL1        0.0488
     19 C          65.4395   91.0720   15.4334 C.ar    1  UNL1        0.0154
     20 C          66.6535   91.5829   15.8997 C.ar    1  UNL1        0.0135
     21 C          67.8132   91.4645   15.1267 C.ar    1  UNL1        0.0683
     22 CL         69.3221   92.1194   15.7482 Cl      1  UNL1       -0.0814
     23 C          67.7551   90.8266   13.8765 C.ar    1  UNL1        0.0694
     24 CL         69.1912   90.6465   12.8778 Cl      1  UNL1       -0.0813
     25 C          66.5376   90.3166   13.4108 C.ar    1  UNL1        0.0268
     26 C          60.8529   80.8524    9.1853 C.3     1  UNL1        0.1535
     27 C          60.4417   79.7668   10.1462 C.2     1  UNL1        0.2443
     28 O          60.7941   78.5756    9.9264 O.2     1  UNL1       -0.2730
     29 N          59.7436   80.1111   11.3539 N.am    1  UNL1       -0.2825
     30 H          59.6867   81.1223   11.6125 H       1  UNL1        0.1549
     31 C          59.2719   79.1488   12.3105 C.ar    1  UNL1        0.0535
     32 C          59.2724   79.4757   13.6731 C.ar    1  UNL1        0.0353
     33 C          58.7958   78.5511   14.6054 C.ar    1  UNL1        0.1002
     34 N          58.3195   77.3477   14.1900 N.ar    1  UNL1       -0.2422
     35 C          58.2888   77.0100   12.8735 C.ar    1  UNL1        0.1002
     36 C          58.7574   77.9051   11.9084 C.ar    1  UNL1        0.0353
     37 C          59.7826   81.0507    8.0953 C.3     1  UNL1        0.0569
     38 C          59.8965   82.4026    7.4455 C.ar    1  UNL1       -0.0008
     39 C          60.6481   82.6739    6.3064 C.ar    1  UNL1        0.0682
     40 N          60.6461   83.9965    6.0403 N.ar    1  UNL1       -0.3522
     41 C          59.9087   84.5699    7.0055 C.ar    1  UNL1        0.0572
     42 C          59.6497   85.9308    7.1534 C.ar    1  UNL1        0.0170
     43 C          58.8714   86.3390    8.2475 C.ar    1  UNL1        0.0023
     44 C          58.3740   85.3900    9.1633 C.ar    1  UNL1        0.0115
     45 C          58.6484   84.0187    8.9995 C.ar    1  UNL1        0.0588
     46 CL         57.9918   82.8782   10.1634 Cl      1  UNL1       -0.0822
     47 C          59.4287   83.6339    7.8947 C.ar    1  UNL1        0.0237
     48 H          61.1390   84.4755    5.2540 H       1  UNL1        0.1660
@<TRIPOS>BOND
     1     1     2    2
     2     2     3   am
     3     3    26    1
     4    26    37    1
     5    37    38    1
     6    38    39   ar
     7    39    40   ar
     8    40    41   ar
     9    41    42   ar
    10    42    43   ar
    11    43    44   ar
    12    44    45   ar
    13    45    46    1
    14    45    47   ar
    15    26    27    1
    16    27    28    2
    17    27    29   am
    18    29    31    1
    19    31    32   ar
    20    32    33   ar
    21    33    34   ar
    22    34    35   ar
    23    35    36   ar
    24     2     5    1
    25     5     6   ar
    26     6     7   ar
    27     7     8   ar
    28     8    12    1
    29    12    13    1
    30    13    14    1
    31    14    15    1
    32    15    18    1
    33    18    19   ar
    34    19    20   ar
    35    20    21   ar
    36    21    22    1
    37    21    23   ar
    38    23    24    1
    39    23    25   ar
    40    15    16    1
    41    16    17    1
    42     8     9   ar
    43     9    10   ar
    44    10    11    1
    45    47    38   ar
    46    36    31   ar
    47    10     5   ar
    48    47    41   ar
    49    17    12    1
    50    25    18   ar
    51     3     4    1
    52    40    48    1
    53    29    30    1
