@<TRIPOS>MOLECULE
*****
 49 54 0 0 0
SMALL
GASTEIGER

@<TRIPOS>ATOM
      1 O          11.0147   76.3998   27.7249 O.2     1  UNL1       -0.2701
      2 C          10.0231   77.0480   27.2923 C.2     1  UNL1        0.2483
      3 N           9.2887   77.9109   28.1774 N.am    1  UNL1       -0.2945
      4 H           8.5283   78.5041   27.7786 H       1  UNL1        0.1501
      5 C           9.5731   76.8324   25.9008 C.ar    1  UNL1        0.0808
      6 C           9.5027   75.5218   25.4018 C.ar    1  UNL1        0.0080
      7 C           8.9848   75.2736   24.1292 C.ar    1  UNL1        0.0148
      8 C           8.5439   76.3333   23.3234 C.ar    1  UNL1        0.0502
      9 C           8.6473   77.6479   23.8052 C.ar    1  UNL1        0.0443
     10 C           9.1631   77.9000   25.0801 C.ar    1  UNL1        0.1457
     11 F           9.2855   79.1871   25.4919 F       1  UNL1       -0.2040
     12 N           7.9550   76.0719   22.0361 N.pl3   1  UNL1       -0.3040
     13 C           7.2741   74.7877   21.8027 C.3     1  UNL1        0.1122
     14 C           6.4702   74.8119   20.4985 C.3     1  UNL1        0.1122
     15 N           5.7517   76.0891   20.3845 N.pl3   1  UNL1       -0.3041
     16 C           6.4875   77.3547   20.5420 C.3     1  UNL1        0.1122
     17 C           7.9316   77.1090   20.9949 C.3     1  UNL1        0.1122
     18 C           4.3220   76.1164   20.2125 C.ar    1  UNL1        0.0479
     19 C           3.7107   75.3344   19.2191 C.ar    1  UNL1        0.0145
     20 C           2.3250   75.3613   19.0537 C.ar    1  UNL1        0.0012
     21 C           1.5333   76.1570   19.8844 C.ar    1  UNL1        0.0039
     22 C           2.1210   76.9208   20.9072 C.ar    1  UNL1        0.0726
     23 C           3.5201   76.9098   21.0508 C.ar    1  UNL1        0.0184
     24 C           1.2736   77.8176   21.7746 C.3     1  UNL1        0.4186
     25 F          -0.0618   77.5645   21.5226 F       1  UNL1       -0.1659
     26 F           1.5392   79.1491   21.5047 F       1  UNL1       -0.1659
     27 F           1.5306   77.5891   23.1153 F       1  UNL1       -0.1659
     28 C           9.2829   77.7089   29.6305 C.3     1  UNL1        0.1535
     29 C           9.7159   78.9726   30.3269 C.2     1  UNL1        0.2443
     30 O          10.9355   79.2932   30.3097 O.2     1  UNL1       -0.2730
     31 N           8.7681   79.7694   31.0586 N.am    1  UNL1       -0.2825
     32 H           7.8606   79.3296   31.3319 H       1  UNL1        0.1549
     33 C           9.0327   81.1019   31.5295 C.ar    1  UNL1        0.0535
     34 C           9.6038   82.0398   30.6584 C.ar    1  UNL1        0.0353
     35 C           9.8850   83.3288   31.1175 C.ar    1  UNL1        0.1002
     36 N           9.6213   83.6658   32.4075 N.ar    1  UNL1       -0.2422
     37 C           9.0862   82.7728   33.2813 C.ar    1  UNL1        0.1002
     38 C           8.7885   81.4733   32.8627 C.ar    1  UNL1        0.0353
     39 C           7.8832   77.2795   30.1084 C.3     1  UNL1        0.0569
     40 C           7.3849   76.0870   29.3411 C.ar    1  UNL1       -0.0017
     41 C           7.6471   74.7518   29.6322 C.ar    1  UNL1        0.0681
     42 N           7.1518   73.9502   28.6618 N.ar    1  UNL1       -0.3523
     43 C           6.5915   74.7675   27.7535 C.ar    1  UNL1        0.0563
     44 C           5.9927   74.4047   26.5476 C.ar    1  UNL1        0.0170
     45 C           5.5126   75.4324   25.7157 C.ar    1  UNL1        0.0015
     46 C           5.6451   76.7848   26.1002 C.ar    1  UNL1        0.0001
     47 C           6.2533   77.1217   27.3233 C.ar    1  UNL1        0.0012
     48 C           6.7154   76.0805   28.1306 C.ar    1  UNL1        0.0131
     49 H           7.2201   72.9092   28.6163 H       1  UNL1        0.1660
@<TRIPOS>BOND
     1     1     2    2
     2     2     3   am
     3     3    28    1
     4    28    39    1
     5    39    40    1
     6    40    41   ar
     7    41    42   ar
     8    42    43   ar
     9    43    44   ar
    10    44    45   ar
    11    45    46   ar
    12    46    47   ar
    13    47    48   ar
    14    28    29    1
    15    29    30    2
    16    29    31   am
    17    31    33    1
    18    33    34   ar
    19    34    35   ar
    20    35    36   ar
    21    36    37   ar
    22    37    38   ar
    23     2     5    1
    24     5     6   ar
    25     6     7   ar
    26     7     8   ar
    27     8    12    1
    28    12    13    1
    29    13    14    1
    30    14    15    1
    31    15    18    1
    32    18    19   ar
    33    19    20   ar
    34    20    21   ar
    35    21    22   ar
    36    22    24    1
    37    24    25    1
    38    24    26    1
    39    24    27    1
    40    22    23   ar
    41    15    16    1
    42    16    17    1
    43     8     9   ar
    44     9    10   ar
    45    10    11    1
    46    48    40   ar
    47    38    33   ar
    48    10     5   ar
    49    48    43   ar
    50    17    12    1
    51    23    18   ar
    52     3     4    1
    53    42    49    1
    54    31    32    1
@<TRIPOS>MOLECULE
*****
 49 54 0 0 0
SMALL
GASTEIGER

@<TRIPOS>ATOM
      1 O          10.6429   76.4652   28.4189 O.2     1  UNL1       -0.2701
      2 C           9.6536   77.0935   27.9529 C.2     1  UNL1        0.2483
      3 N           8.8020   77.8458   28.8339 N.am    1  UNL1       -0.2945
      4 H           8.0432   78.4285   28.4170 H       1  UNL1        0.1501
      5 C           9.3299   76.9642   26.5163 C.ar    1  UNL1        0.0808
      6 C           9.4073   75.6997   25.9106 C.ar    1  UNL1        0.0080
      7 C           9.0099   75.5227   24.5839 C.ar    1  UNL1        0.0148
      8 C           8.5443   76.6106   23.8313 C.ar    1  UNL1        0.0502
      9 C           8.5007   77.8830   24.4231 C.ar    1  UNL1        0.0443
     10 C           8.8956   78.0636   25.7521 C.ar    1  UNL1        0.1457
     11 F           8.8784   79.3161   26.2737 F       1  UNL1       -0.2040
     12 N           8.0786   76.4163   22.4831 N.pl3   1  UNL1       -0.3040
     13 C           7.5052   75.1158   22.0995 C.3     1  UNL1        0.1122
     14 C           6.8080   75.1941   20.7372 C.3     1  UNL1        0.1122
     15 N           6.0178   76.4308   20.6569 N.pl3   1  UNL1       -0.3041
     16 C           6.6530   77.7220   20.9685 C.3     1  UNL1        0.1122
     17 C           8.0695   77.5287   21.5225 C.3     1  UNL1        0.1122
     18 C           4.6076   76.3856   20.3671 C.ar    1  UNL1        0.0479
     19 C           4.1269   75.6168   19.2947 C.ar    1  UNL1        0.0145
     20 C           2.7600   75.5734   19.0151 C.ar    1  UNL1        0.0012
     21 C           1.8574   76.2844   19.8086 C.ar    1  UNL1        0.0039
     22 C           2.3133   77.0323   20.9076 C.ar    1  UNL1        0.0726
     23 C           3.6943   77.0934   21.1672 C.ar    1  UNL1        0.0184
     24 C           1.3463   77.8394   21.7371 C.3     1  UNL1        0.4186
     25 F           1.5344   79.1837   21.4755 F       1  UNL1       -0.1659
     26 F           1.5517   77.6092   23.0865 F       1  UNL1       -0.1659
     27 F           0.0387   77.5000   21.4352 F       1  UNL1       -0.1659
     28 C           8.6912   77.5311   30.2625 C.3     1  UNL1        0.1535
     29 C           8.9723   78.7625   31.0835 C.2     1  UNL1        0.2443
     30 O           9.5032   78.6317   32.2200 O.2     1  UNL1       -0.2730
     31 N           8.5819   80.0640   30.6122 N.am    1  UNL1       -0.2825
     32 H           7.8709   80.1195   29.8487 H       1  UNL1        0.1549
     33 C           9.0309   81.2984   31.1972 C.ar    1  UNL1        0.0535
     34 C           8.7134   81.5838   32.5322 C.ar    1  UNL1        0.0353
     35 C           9.1265   82.7922   33.0984 C.ar    1  UNL1        0.1002
     36 N           9.8186   83.6933   32.3525 N.ar    1  UNL1       -0.2422
     37 C          10.1244   83.4538   31.0500 C.ar    1  UNL1        0.1002
     38 C           9.7312   82.2572   30.4452 C.ar    1  UNL1        0.0353
     39 C           7.2918   76.9738   30.5836 C.3     1  UNL1        0.0569
     40 C           6.9070   75.8779   29.6298 C.ar    1  UNL1       -0.0017
     41 C           7.2237   74.5286   29.7541 C.ar    1  UNL1        0.0681
     42 N           6.8329   73.8477   28.6527 N.ar    1  UNL1       -0.3523
     43 C           6.2849   74.7567   27.8278 C.ar    1  UNL1        0.0563
     44 C           5.7812   74.5378   26.5461 C.ar    1  UNL1        0.0170
     45 C           5.2971   75.6480   25.8308 C.ar    1  UNL1        0.0015
     46 C           5.3318   76.9385   26.4032 C.ar    1  UNL1        0.0001
     47 C           5.8452   77.1299   27.6990 C.ar    1  UNL1        0.0012
     48 C           6.3137   76.0088   28.3870 C.ar    1  UNL1        0.0131
     49 H           6.9607   72.8274   28.4711 H       1  UNL1        0.1660
@<TRIPOS>BOND
     1     1     2    2
     2     2     3   am
     3     3    28    1
     4    28    39    1
     5    39    40    1
     6    40    41   ar
     7    41    42   ar
     8    42    43   ar
     9    43    44   ar
    10    44    45   ar
    11    45    46   ar
    12    46    47   ar
    13    47    48   ar
    14    28    29    1
    15    29    30    2
    16    29    31   am
    17    31    33    1
    18    33    34   ar
    19    34    35   ar
    20    35    36   ar
    21    36    37   ar
    22    37    38   ar
    23     2     5    1
    24     5     6   ar
    25     6     7   ar
    26     7     8   ar
    27     8    12    1
    28    12    13    1
    29    13    14    1
    30    14    15    1
    31    15    18    1
    32    18    19   ar
    33    19    20   ar
    34    20    21   ar
    35    21    22   ar
    36    22    24    1
    37    24    25    1
    38    24    26    1
    39    24    27    1
    40    22    23   ar
    41    15    16    1
    42    16    17    1
    43     8     9   ar
    44     9    10   ar
    45    10    11    1
    46    48    40   ar
    47    38    33   ar
    48    10     5   ar
    49    48    43   ar
    50    17    12    1
    51    23    18   ar
    52     3     4    1
    53    42    49    1
    54    31    32    1
@<TRIPOS>MOLECULE
*****
 49 54 0 0 0
SMALL
GASTEIGER

@<TRIPOS>ATOM
      1 O          10.2603   75.7470   29.1922 O.2     1  UNL1       -0.2701
      2 C           9.5170   76.3975   28.4078 C.2     1  UNL1        0.2483
      3 N           8.8174   77.5607   28.8820 N.am    1  UNL1       -0.2945
      4 H           8.2792   78.1334   28.1954 H       1  UNL1        0.1501
      5 C           9.3016   75.8927   27.0352 C.ar    1  UNL1        0.0808
      6 C           8.1156   75.2011   26.7409 C.ar    1  UNL1        0.0080
      7 C           7.8328   74.8013   25.4333 C.ar    1  UNL1        0.0148
      8 C           8.7392   75.0695   24.3975 C.ar    1  UNL1        0.0502
      9 C           9.9427   75.7283   24.6952 C.ar    1  UNL1        0.0443
     10 C          10.2282   76.1323   26.0030 C.ar    1  UNL1        0.1457
     11 F          11.4205   76.7283   26.2565 F       1  UNL1       -0.2040
     12 N           8.4200   74.7104   23.0405 N.pl3   1  UNL1       -0.3040
     13 C           7.6518   73.4814   22.7823 C.3     1  UNL1        0.1122
     14 C           7.1641   73.4235   21.3308 C.3     1  UNL1        0.1122
     15 N           6.6540   74.7418   20.9280 N.pl3   1  UNL1       -0.3041
     16 C           7.4897   75.9376   21.1275 C.3     1  UNL1        0.1122
     17 C           8.7563   75.6074   21.9258 C.3     1  UNL1        0.1122
     18 C           5.3121   74.8898   20.4261 C.ar    1  UNL1        0.0479
     19 C           4.2865   74.0447   20.8801 C.ar    1  UNL1        0.0145
     20 C           2.9863   74.1893   20.3934 C.ar    1  UNL1        0.0012
     21 C           2.6920   75.1852   19.4599 C.ar    1  UNL1        0.0039
     22 C           3.6957   76.0640   19.0181 C.ar    1  UNL1        0.0726
     23 C           5.0091   75.8954   19.4922 C.ar    1  UNL1        0.0184
     24 C           3.3913   77.1094   17.9745 C.3     1  UNL1        0.4186
     25 F           2.1597   76.8406   17.4071 F       1  UNL1       -0.1659
     26 F           4.3564   77.1027   16.9821 F       1  UNL1       -0.1659
     27 F           3.3614   78.3727   18.5394 F       1  UNL1       -0.1659
     28 C           8.4995   77.7503   30.3016 C.3     1  UNL1        0.1535
     29 C           9.1742   78.9944   30.8177 C.2     1  UNL1        0.2443
     30 O          10.4250   79.1052   30.7003 O.2     1  UNL1       -0.2730
     31 N           8.4175   80.0128   31.4950 N.am    1  UNL1       -0.2825
     32 H           7.4732   79.7620   31.8649 H       1  UNL1        0.1549
     33 C           8.9215   81.3272   31.7877 C.ar    1  UNL1        0.0535
     34 C           9.4934   82.0905   30.7605 C.ar    1  UNL1        0.0353
     35 C          10.0063   83.3584   31.0443 C.ar    1  UNL1        0.1002
     36 N           9.9657   83.8419   32.3139 N.ar    1  UNL1       -0.2422
     37 C           9.4357   83.1178   33.3347 C.ar    1  UNL1        0.1002
     38 C           8.9107   81.8454   33.0941 C.ar    1  UNL1        0.0353
     39 C           6.9753   77.8368   30.5046 C.3     1  UNL1        0.0569
     40 C           6.2828   76.6100   29.9809 C.ar    1  UNL1       -0.0017
     41 C           6.3111   75.3412   30.5516 C.ar    1  UNL1        0.0681
     42 N           5.6894   74.4476   29.7488 N.ar    1  UNL1       -0.3523
     43 C           5.2811   75.1374   28.6697 C.ar    1  UNL1        0.0563
     44 C           4.6336   74.6343   27.5418 C.ar    1  UNL1        0.0170
     45 C           4.3400   75.5295   26.4973 C.ar    1  UNL1        0.0015
     46 C           4.7010   76.8910   26.5992 C.ar    1  UNL1        0.0001
     47 C           5.3532   77.3713   27.7496 C.ar    1  UNL1        0.0012
     48 C           5.6268   76.4608   28.7722 C.ar    1  UNL1        0.0131
     49 H           5.5784   73.4239   29.9219 H       1  UNL1        0.1660
@<TRIPOS>BOND
     1     1     2    2
     2     2     3   am
     3     3    28    1
     4    28    39    1
     5    39    40    1
     6    40    41   ar
     7    41    42   ar
     8    42    43   ar
     9    43    44   ar
    10    44    45   ar
    11    45    46   ar
    12    46    47   ar
    13    47    48   ar
    14    28    29    1
    15    29    30    2
    16    29    31   am
    17    31    33    1
    18    33    34   ar
    19    34    35   ar
    20    35    36   ar
    21    36    37   ar
    22    37    38   ar
    23     2     5    1
    24     5     6   ar
    25     6     7   ar
    26     7     8   ar
    27     8    12    1
    28    12    13    1
    29    13    14    1
    30    14    15    1
    31    15    18    1
    32    18    19   ar
    33    19    20   ar
    34    20    21   ar
    35    21    22   ar
    36    22    24    1
    37    24    25    1
    38    24    26    1
    39    24    27    1
    40    22    23   ar
    41    15    16    1
    42    16    17    1
    43     8     9   ar
    44     9    10   ar
    45    10    11    1
    46    48    40   ar
    47    38    33   ar
    48    10     5   ar
    49    48    43   ar
    50    17    12    1
    51    23    18   ar
    52     3     4    1
    53    42    49    1
    54    31    32    1
@<TRIPOS>MOLECULE
*****
 49 54 0 0 0
SMALL
GASTEIGER

@<TRIPOS>ATOM
      1 O          10.6471   76.9748   28.7245 O.2     1  UNL1       -0.2701
      2 C           9.6061   77.4054   28.1574 C.2     1  UNL1        0.2483
      3 N           8.5644   78.0162   28.9380 N.am    1  UNL1       -0.2945
      4 H           7.7534   78.4441   28.4398 H       1  UNL1        0.1501
      5 C           9.4329   77.1850   26.7060 C.ar    1  UNL1        0.0808
      6 C           9.5261   75.8791   26.1983 C.ar    1  UNL1        0.0080
      7 C           9.2661   75.6211   24.8510 C.ar    1  UNL1        0.0148
      8 C           8.9254   76.6669   23.9811 C.ar    1  UNL1        0.0502
      9 C           8.8675   77.9787   24.4780 C.ar    1  UNL1        0.0443
     10 C           9.1249   78.2405   25.8271 C.ar    1  UNL1        0.1457
     11 F           9.1001   79.5267   26.2587 F       1  UNL1       -0.2040
     12 N           8.5992   76.3922   22.6061 N.pl3   1  UNL1       -0.3040
     13 C           7.6433   75.3170   22.2935 C.3     1  UNL1        0.1122
     14 C           7.2057   75.3695   20.8260 C.3     1  UNL1        0.1122
     15 N           6.9417   76.7627   20.4386 N.pl3   1  UNL1       -0.3041
     16 C           7.9604   77.7947   20.6940 C.3     1  UNL1        0.1122
     17 C           9.1229   77.2389   21.5249 C.3     1  UNL1        0.1122
     18 C           5.6634   77.1464   19.8971 C.ar    1  UNL1        0.0479
     19 C           5.5663   78.2199   18.9970 C.ar    1  UNL1        0.0145
     20 C           4.3270   78.5906   18.4725 C.ar    1  UNL1        0.0012
     21 C           3.1743   77.8875   18.8290 C.ar    1  UNL1        0.0039
     22 C           3.2535   76.7884   19.7011 C.ar    1  UNL1        0.0726
     23 C           4.5015   76.4373   20.2468 C.ar    1  UNL1        0.0184
     24 C           2.0043   76.0574   20.1251 C.3     1  UNL1        0.4186
     25 F           1.2518   75.7555   19.0055 F       1  UNL1       -0.1659
     26 F           1.2477   76.8407   20.9795 F       1  UNL1       -0.1659
     27 F           2.3229   74.8828   20.7843 F       1  UNL1       -0.1659
     28 C           8.3899   77.7224   30.3648 C.3     1  UNL1        0.1535
     29 C           8.8016   78.9142   31.1891 C.2     1  UNL1        0.2443
     30 O           9.5413   78.7359   32.1949 O.2     1  UNL1       -0.2730
     31 N           8.3069   80.2283   30.8780 N.am    1  UNL1       -0.2825
     32 H           7.4626   80.3060   30.2675 H       1  UNL1        0.1549
     33 C           8.8385   81.4406   31.4394 C.ar    1  UNL1        0.0535
     34 C           9.5836   82.3070   30.6276 C.ar    1  UNL1        0.0353
     35 C          10.1226   83.4743   31.1738 C.ar    1  UNL1        0.1002
     36 N           9.9391   83.7592   32.4900 N.ar    1  UNL1       -0.2422
     37 C           9.2383   82.9292   33.3069 C.ar    1  UNL1        0.1002
     38 C           8.6813   81.7519   32.8008 C.ar    1  UNL1        0.0353
     39 C           6.9279   77.3386   30.6600 C.3     1  UNL1        0.0569
     40 C           6.4912   76.1656   29.8279 C.ar    1  UNL1       -0.0017
     41 C           6.5735   74.8240   30.1880 C.ar    1  UNL1        0.0681
     42 N           6.2141   74.0332   29.1511 N.ar    1  UNL1       -0.3523
     43 C           5.9192   74.8624   28.1351 C.ar    1  UNL1        0.0563
     44 C           5.5438   74.5093   26.8394 C.ar    1  UNL1        0.0170
     45 C           5.3301   75.5442   25.9109 C.ar    1  UNL1        0.0015
     46 C           5.4999   76.8934   26.2918 C.ar    1  UNL1        0.0001
     47 C           5.8788   77.2206   27.6066 C.ar    1  UNL1        0.0012
     48 C           6.0786   76.1729   28.5076 C.ar    1  UNL1        0.0131
     49 H           6.1997   72.9892   29.1375 H       1  UNL1        0.1660
@<TRIPOS>BOND
     1     1     2    2
     2     2     3   am
     3     3    28    1
     4    28    39    1
     5    39    40    1
     6    40    41   ar
     7    41    42   ar
     8    42    43   ar
     9    43    44   ar
    10    44    45   ar
    11    45    46   ar
    12    46    47   ar
    13    47    48   ar
    14    28    29    1
    15    29    30    2
    16    29    31   am
    17    31    33    1
    18    33    34   ar
    19    34    35   ar
    20    35    36   ar
    21    36    37   ar
    22    37    38   ar
    23     2     5    1
    24     5     6   ar
    25     6     7   ar
    26     7     8   ar
    27     8    12    1
    28    12    13    1
    29    13    14    1
    30    14    15    1
    31    15    18    1
    32    18    19   ar
    33    19    20   ar
    34    20    21   ar
    35    21    22   ar
    36    22    24    1
    37    24    25    1
    38    24    26    1
    39    24    27    1
    40    22    23   ar
    41    15    16    1
    42    16    17    1
    43     8     9   ar
    44     9    10   ar
    45    10    11    1
    46    48    40   ar
    47    38    33   ar
    48    10     5   ar
    49    48    43   ar
    50    17    12    1
    51    23    18   ar
    52     3     4    1
    53    42    49    1
    54    31    32    1
@<TRIPOS>MOLECULE
*****
 49 54 0 0 0
SMALL
GASTEIGER

@<TRIPOS>ATOM
      1 O           5.8181   74.6833   20.1877 O.2     1  UNL1       -0.2701
      2 C           5.0150   74.9345   21.1272 C.2     1  UNL1        0.2483
      3 N           3.7185   75.4833   20.8351 N.am    1  UNL1       -0.2945
      4 H           3.0384   75.6004   21.6180 H       1  UNL1        0.1501
      5 C           5.4608   74.7503   22.5245 C.ar    1  UNL1        0.0808
      6 C           6.3364   73.6953   22.8280 C.ar    1  UNL1        0.0080
      7 C           6.8585   73.5540   24.1151 C.ar    1  UNL1        0.0148
      8 C           6.5009   74.4547   25.1288 C.ar    1  UNL1        0.0502
      9 C           5.5969   75.4886   24.8375 C.ar    1  UNL1        0.0443
     10 C           5.0739   75.6346   23.5491 C.ar    1  UNL1        0.1457
     11 F           4.1710   76.6210   23.3191 F       1  UNL1       -0.2040
     12 N           7.0856   74.3441   26.4396 N.pl3   1  UNL1       -0.3040
     13 C           8.3421   75.0542   26.7301 C.3     1  UNL1        0.1122
     14 C           8.6463   75.0571   28.2319 C.3     1  UNL1        0.1122
     15 N           7.4164   75.3419   28.9847 N.pl3   1  UNL1       -0.3041
     16 C           6.2025   74.5511   28.7218 C.3     1  UNL1        0.1122
     17 C           6.3901   73.6236   27.5154 C.3     1  UNL1        0.1122
     18 C           7.3582   76.4447   29.9094 C.ar    1  UNL1        0.0479
     19 C           6.3363   76.5132   30.8701 C.ar    1  UNL1        0.0145
     20 C           6.2812   77.5822   31.7661 C.ar    1  UNL1        0.0012
     21 C           7.2506   78.5863   31.7226 C.ar    1  UNL1        0.0039
     22 C           8.3016   78.5195   30.7921 C.ar    1  UNL1        0.0726
     23 C           8.3357   77.4539   29.8747 C.ar    1  UNL1        0.0184
     24 C           9.3225   79.6267   30.7112 C.3     1  UNL1        0.4186
     25 F          10.4031   79.1954   29.9648 F       1  UNL1       -0.1659
     26 F           9.7599   79.9796   31.9763 F       1  UNL1       -0.1659
     27 F           8.7808   80.7510   30.1123 F       1  UNL1       -0.1659
     28 C           3.4541   76.2376   19.6049 C.3     1  UNL1        0.1535
     29 C           2.1370   75.8092   19.0122 C.2     1  UNL1        0.2443
     30 O           1.7952   76.2659   17.8874 O.2     1  UNL1       -0.2730
     31 N           1.2489   74.9461   19.7435 N.am    1  UNL1       -0.2825
     32 H           1.3927   74.8488   20.7737 H       1  UNL1        0.1549
     33 C           0.1091   74.2889   19.1636 C.ar    1  UNL1        0.0535
     34 C          -1.0677   75.0175   18.9424 C.ar    1  UNL1        0.0353
     35 C          -2.1858   74.3783   18.4015 C.ar    1  UNL1        0.1002
     36 N          -2.1371   73.0523   18.1070 N.ar    1  UNL1       -0.2422
     37 C          -1.0172   72.3146   18.3285 C.ar    1  UNL1        0.1002
     38 C           0.1237   72.9152   18.8670 C.ar    1  UNL1        0.0353
     39 C           3.4523   77.7508   19.8917 C.3     1  UNL1        0.0569
     40 C           4.6760   78.4163   19.3271 C.ar    1  UNL1       -0.0017
     41 C           4.7979   78.9774   18.0595 C.ar    1  UNL1        0.0681
     42 N           6.0730   79.3698   17.8368 N.ar    1  UNL1       -0.3523
     43 C           6.7607   79.0491   18.9464 C.ar    1  UNL1        0.0563
     44 C           8.1270   79.2154   19.1700 C.ar    1  UNL1        0.0170
     45 C           8.6541   78.7599   20.3921 C.ar    1  UNL1        0.0015
     46 C           7.8149   78.1502   21.3504 C.ar    1  UNL1        0.0001
     47 C           6.4394   77.9960   21.0981 C.ar    1  UNL1        0.0012
     48 C           5.9437   78.4623   19.8789 C.ar    1  UNL1        0.0131
     49 H           6.4493   79.8056   16.9656 H       1  UNL1        0.1660
@<TRIPOS>BOND
     1     1     2    2
     2     2     3   am
     3     3    28    1
     4    28    39    1
     5    39    40    1
     6    40    41   ar
     7    41    42   ar
     8    42    43   ar
     9    43    44   ar
    10    44    45   ar
    11    45    46   ar
    12    46    47   ar
    13    47    48   ar
    14    28    29    1
    15    29    30    2
    16    29    31   am
    17    31    33    1
    18    33    34   ar
    19    34    35   ar
    20    35    36   ar
    21    36    37   ar
    22    37    38   ar
    23     2     5    1
    24     5     6   ar
    25     6     7   ar
    26     7     8   ar
    27     8    12    1
    28    12    13    1
    29    13    14    1
    30    14    15    1
    31    15    18    1
    32    18    19   ar
    33    19    20   ar
    34    20    21   ar
    35    21    22   ar
    36    22    24    1
    37    24    25    1
    38    24    26    1
    39    24    27    1
    40    22    23   ar
    41    15    16    1
    42    16    17    1
    43     8     9   ar
    44     9    10   ar
    45    10    11    1
    46    48    40   ar
    47    38    33   ar
    48    10     5   ar
    49    48    43   ar
    50    17    12    1
    51    23    18   ar
    52     3     4    1
    53    42    49    1
    54    31    32    1
@<TRIPOS>MOLECULE
*****
 49 54 0 0 0
SMALL
GASTEIGER

@<TRIPOS>ATOM
      1 O           7.3577   73.5400   20.4986 O.2     1  UNL1       -0.2701
      2 C           6.8500   73.7553   21.6329 C.2     1  UNL1        0.2483
      3 N           5.4308   73.6204   21.8207 N.am    1  UNL1       -0.2945
      4 H           5.0440   73.7166   22.7852 H       1  UNL1        0.1501
      5 C           7.7152   74.2396   22.7292 C.ar    1  UNL1        0.0808
      6 C           8.9067   74.9116   22.4120 C.ar    1  UNL1        0.0080
      7 C           9.6950   75.4723   23.4187 C.ar    1  UNL1        0.0148
      8 C           9.3164   75.3564   24.7639 C.ar    1  UNL1        0.0502
      9 C           8.1448   74.6534   25.0867 C.ar    1  UNL1        0.0443
     10 C           7.3517   74.0926   24.0810 C.ar    1  UNL1        0.1457
     11 F           6.2500   73.3849   24.4371 F       1  UNL1       -0.2040
     12 N          10.0977   75.9859   25.7963 N.pl3   1  UNL1       -0.3040
     13 C          10.2326   77.4519   25.8047 C.3     1  UNL1        0.1122
     14 C          10.8411   77.9481   27.1206 C.3     1  UNL1        0.1122
     15 N          10.2303   77.2308   28.2489 N.pl3   1  UNL1       -0.3041
     16 C          10.1905   75.7590   28.2398 C.3     1  UNL1        0.1122
     17 C          10.6677   75.1952   26.8963 C.3     1  UNL1        0.1122
     18 C           9.5886   77.9513   29.3183 C.ar    1  UNL1        0.0479
     19 C          10.2081   79.0741   29.8906 C.ar    1  UNL1        0.0145
     20 C           9.5850   79.7719   30.9266 C.ar    1  UNL1        0.0012
     21 C           8.3332   79.3662   31.3938 C.ar    1  UNL1        0.0039
     22 C           7.6799   78.2663   30.8122 C.ar    1  UNL1        0.0726
     23 C           8.3253   77.5516   29.7870 C.ar    1  UNL1        0.0184
     24 C           6.3499   77.7970   31.3466 C.3     1  UNL1        0.4186
     25 F           5.8221   78.7716   32.1727 F       1  UNL1       -0.1659
     26 F           6.5009   76.6262   32.0695 F       1  UNL1       -0.1659
     27 F           5.4631   77.5544   30.3118 F       1  UNL1       -0.1659
     28 C           4.4845   73.7517   20.7074 C.3     1  UNL1        0.1535
     29 C           3.4170   74.7560   21.0559 C.2     1  UNL1        0.2443
     30 O           2.2257   74.5264   20.7116 O.2     1  UNL1       -0.2730
     31 N           3.7562   75.9904   21.7114 N.am    1  UNL1       -0.2825
     32 H           4.7532   76.3020   21.6913 H       1  UNL1        0.1549
     33 C           2.7915   76.8769   22.3038 C.ar    1  UNL1        0.0535
     34 C           1.9066   77.5835   21.4778 C.ar    1  UNL1        0.0353
     35 C           0.9834   78.4642   22.0464 C.ar    1  UNL1        0.1002
     36 N           0.9554   78.6470   23.3929 N.ar    1  UNL1       -0.2422
     37 C           1.8136   77.9914   24.2182 C.ar    1  UNL1        0.1002
     38 C           2.7519   77.1006   23.6907 C.ar    1  UNL1        0.0353
     39 C           5.2217   74.1691   19.4212 C.3     1  UNL1        0.0569
     40 C           4.9073   75.5904   19.0470 C.ar    1  UNL1       -0.0017
     41 C           3.9748   76.0065   18.1017 C.ar    1  UNL1        0.0681
     42 N           4.0453   77.3457   17.9255 N.ar    1  UNL1       -0.3523
     43 C           5.0232   77.7776   18.7404 C.ar    1  UNL1        0.0563
     44 C           5.4970   79.0824   18.8723 C.ar    1  UNL1        0.0170
     45 C           6.5711   79.3068   19.7524 C.ar    1  UNL1        0.0015
     46 C           7.1451   78.2338   20.4689 C.ar    1  UNL1        0.0001
     47 C           6.6462   76.9272   20.3167 C.ar    1  UNL1        0.0012
     48 C           5.5762   76.7356   19.4404 C.ar    1  UNL1        0.0131
     49 H           3.4744   77.9198   17.2661 H       1  UNL1        0.1660
@<TRIPOS>BOND
     1     1     2    2
     2     2     3   am
     3     3    28    1
     4    28    39    1
     5    39    40    1
     6    40    41   ar
     7    41    42   ar
     8    42    43   ar
     9    43    44   ar
    10    44    45   ar
    11    45    46   ar
    12    46    47   ar
    13    47    48   ar
    14    28    29    1
    15    29    30    2
    16    29    31   am
    17    31    33    1
    18    33    34   ar
    19    34    35   ar
    20    35    36   ar
    21    36    37   ar
    22    37    38   ar
    23     2     5    1
    24     5     6   ar
    25     6     7   ar
    26     7     8   ar
    27     8    12    1
    28    12    13    1
    29    13    14    1
    30    14    15    1
    31    15    18    1
    32    18    19   ar
    33    19    20   ar
    34    20    21   ar
    35    21    22   ar
    36    22    24    1
    37    24    25    1
    38    24    26    1
    39    24    27    1
    40    22    23   ar
    41    15    16    1
    42    16    17    1
    43     8     9   ar
    44     9    10   ar
    45    10    11    1
    46    48    40   ar
    47    38    33   ar
    48    10     5   ar
    49    48    43   ar
    50    17    12    1
    51    23    18   ar
    52     3     4    1
    53    42    49    1
    54    31    32    1
@<TRIPOS>MOLECULE
*****
 49 54 0 0 0
SMALL
GASTEIGER

@<TRIPOS>ATOM
      1 O           6.3893   76.1451   19.9197 O.2     1  UNL1       -0.2701
      2 C           5.5889   75.7841   20.8251 C.2     1  UNL1        0.2483
      3 N           4.1711   75.8331   20.5905 N.am    1  UNL1       -0.2945
      4 H           3.5313   75.4473   21.3191 H       1  UNL1        0.1501
      5 C           6.1233   75.4082   22.1511 C.ar    1  UNL1        0.0808
      6 C           6.9692   76.3040   22.8247 C.ar    1  UNL1        0.0080
      7 C           7.4085   76.0272   24.1208 C.ar    1  UNL1        0.0148
      8 C           7.0248   74.8405   24.7619 C.ar    1  UNL1        0.0502
      9 C           6.2091   73.9258   24.0769 C.ar    1  UNL1        0.0443
     10 C           5.7654   74.2008   22.7798 C.ar    1  UNL1        0.1457
     11 F           5.0136   73.2722   22.1366 F       1  UNL1       -0.2040
     12 N           7.4289   74.5837   26.1196 N.pl3   1  UNL1       -0.3040
     13 C           8.6850   75.1663   26.6197 C.3     1  UNL1        0.1122
     14 C           8.7952   75.0304   28.1419 C.3     1  UNL1        0.1122
     15 N           7.5026   75.3552   28.7619 N.pl3   1  UNL1       -0.3041
     16 C           6.2795   74.6869   28.2874 C.3     1  UNL1        0.1122
     17 C           6.5532   73.8418   27.0377 C.3     1  UNL1        0.1122
     18 C           7.4051   76.3855   29.7637 C.ar    1  UNL1        0.0479
     19 C           6.4210   76.3140   30.7629 C.ar    1  UNL1        0.0145
     20 C           6.3277   77.3129   31.7335 C.ar    1  UNL1        0.0012
     21 C           7.2217   78.3855   31.7263 C.ar    1  UNL1        0.0039
     22 C           8.2359   78.4588   30.7562 C.ar    1  UNL1        0.0726
     23 C           8.3072   77.4631   29.7653 C.ar    1  UNL1        0.0184
     24 C           9.1725   79.6403   30.7172 C.3     1  UNL1        0.4186
     25 F           8.4706   80.7643   30.3237 F       1  UNL1       -0.1659
     26 F          10.2034   79.4155   29.8212 F       1  UNL1       -0.1659
     27 F           9.7266   79.8687   31.9649 F       1  UNL1       -0.1659
     28 C           3.5799   76.7327   19.5937 C.3     1  UNL1        0.1535
     29 C           2.3100   76.1327   19.0488 C.2     1  UNL1        0.2443
     30 O           1.9241   76.4627   17.8944 O.2     1  UNL1       -0.2730
     31 N           1.5110   75.2489   19.8543 N.am    1  UNL1       -0.2825
     32 H           1.6648   75.2487   20.8877 H       1  UNL1        0.1549
     33 C           0.4398   74.4401   19.3387 C.ar    1  UNL1        0.0535
     34 C          -0.7556   75.0532   18.9389 C.ar    1  UNL1        0.0353
     35 C          -1.8083   74.2699   18.4598 C.ar    1  UNL1        0.1002
     36 N          -1.6790   72.9183   18.3977 N.ar    1  UNL1       -0.2422
     37 C          -0.5400   72.2932   18.7965 C.ar    1  UNL1        0.1002
     38 C           0.5375   73.0393   19.2809 C.ar    1  UNL1        0.0353
     39 C           3.3032   78.1151   20.2138 C.3     1  UNL1        0.0569
     40 C           2.3614   78.0129   21.3807 C.ar    1  UNL1       -0.0017
     41 C           1.0038   78.3181   21.3728 C.ar    1  UNL1        0.0681
     42 N           0.4939   78.2384   22.6230 N.ar    1  UNL1       -0.3523
     43 C           1.5198   77.8993   23.4227 C.ar    1  UNL1        0.0563
     44 C           1.4947   77.7461   24.8085 C.ar    1  UNL1        0.0170
     45 C           2.7030   77.4359   25.4584 C.ar    1  UNL1        0.0015
     46 C           3.8973   77.2931   24.7183 C.ar    1  UNL1        0.0001
     47 C           3.8930   77.4527   23.3205 C.ar    1  UNL1        0.0012
     48 C           2.6781   77.7549   22.7023 C.ar    1  UNL1        0.0131
     49 H          -0.4915   78.4319   22.9092 H       1  UNL1        0.1660
@<TRIPOS>BOND
     1     1     2    2
     2     2     3   am
     3     3    28    1
     4    28    39    1
     5    39    40    1
     6    40    41   ar
     7    41    42   ar
     8    42    43   ar
     9    43    44   ar
    10    44    45   ar
    11    45    46   ar
    12    46    47   ar
    13    47    48   ar
    14    28    29    1
    15    29    30    2
    16    29    31   am
    17    31    33    1
    18    33    34   ar
    19    34    35   ar
    20    35    36   ar
    21    36    37   ar
    22    37    38   ar
    23     2     5    1
    24     5     6   ar
    25     6     7   ar
    26     7     8   ar
    27     8    12    1
    28    12    13    1
    29    13    14    1
    30    14    15    1
    31    15    18    1
    32    18    19   ar
    33    19    20   ar
    34    20    21   ar
    35    21    22   ar
    36    22    24    1
    37    24    25    1
    38    24    26    1
    39    24    27    1
    40    22    23   ar
    41    15    16    1
    42    16    17    1
    43     8     9   ar
    44     9    10   ar
    45    10    11    1
    46    48    40   ar
    47    38    33   ar
    48    10     5   ar
    49    48    43   ar
    50    17    12    1
    51    23    18   ar
    52     3     4    1
    53    42    49    1
    54    31    32    1
@<TRIPOS>MOLECULE
*****
 49 54 0 0 0
SMALL
GASTEIGER

@<TRIPOS>ATOM
      1 O           9.2224   74.5053   24.1673 O.2     1  UNL1       -0.2701
      2 C           8.8459   75.6958   23.9893 C.2     1  UNL1        0.2483
      3 N           9.5070   76.7683   24.6822 N.am    1  UNL1       -0.2945
      4 H           9.2384   77.7504   24.4533 H       1  UNL1        0.1501
      5 C           7.6629   75.9582   23.1427 C.ar    1  UNL1        0.0808
      6 C           7.7123   77.0035   22.2064 C.ar    1  UNL1        0.0080
      7 C           6.6538   77.2136   21.3205 C.ar    1  UNL1        0.0148
      8 C           5.5172   76.3934   21.3656 C.ar    1  UNL1        0.0502
      9 C           5.4493   75.3707   22.3251 C.ar    1  UNL1        0.0443
     10 C           6.5084   75.1559   23.2123 C.ar    1  UNL1        0.1457
     11 F           6.3860   74.1848   24.1520 F       1  UNL1       -0.2040
     12 N           4.4527   76.5724   20.4131 N.pl3   1  UNL1       -0.3040
     13 C           4.4209   75.7350   19.2027 C.3     1  UNL1        0.1122
     14 C           3.0802   75.8626   18.4718 C.3     1  UNL1        0.1122
     15 N           1.9811   75.8370   19.4475 N.pl3   1  UNL1       -0.3041
     16 C           2.0106   76.7511   20.6014 C.3     1  UNL1        0.1122
     17 C           3.3459   77.4997   20.6872 C.3     1  UNL1        0.1122
     18 C           0.9229   74.8659   19.3386 C.ar    1  UNL1        0.0479
     19 C          -0.2611   75.1791   18.6516 C.ar    1  UNL1        0.0145
     20 C          -1.2857   74.2370   18.5464 C.ar    1  UNL1        0.0012
     21 C          -1.1359   72.9695   19.1129 C.ar    1  UNL1        0.0039
     22 C           0.0544   72.6232   19.7749 C.ar    1  UNL1        0.0726
     23 C           1.0718   73.5863   19.9005 C.ar    1  UNL1        0.0184
     24 C           0.2001   71.2720   20.4288 C.3     1  UNL1        0.4186
     25 F           1.4634   71.1674   20.9802 F       1  UNL1       -0.1659
     26 F           0.0279   70.2601   19.5001 F       1  UNL1       -0.1659
     27 F          -0.7432   71.1062   21.4281 F       1  UNL1       -0.1659
     28 C          10.2278   76.5512   25.9414 C.3     1  UNL1        0.1535
     29 C          11.5734   77.2263   25.8865 C.2     1  UNL1        0.2443
     30 O          12.1872   77.4550   26.9642 O.2     1  UNL1       -0.2730
     31 N          12.1237   77.6658   24.6325 N.am    1  UNL1       -0.2825
     32 H          11.4774   77.7644   23.8176 H       1  UNL1        0.1549
     33 C          13.4894   78.0791   24.4552 C.ar    1  UNL1        0.0535
     34 C          13.9105   79.3094   24.9786 C.ar    1  UNL1        0.0353
     35 C          15.2300   79.7267   24.7886 C.ar    1  UNL1        0.1002
     36 N          16.0960   78.9506   24.0851 N.ar    1  UNL1       -0.2422
     37 C          15.7122   77.7622   23.5486 C.ar    1  UNL1        0.1002
     38 C          14.4019   77.3069   23.7162 C.ar    1  UNL1        0.0353
     39 C           9.4045   77.0803   27.1306 C.3     1  UNL1        0.0569
     40 C           8.2450   76.1753   27.4393 C.ar    1  UNL1       -0.0017
     41 C           8.3082   74.9502   28.0961 C.ar    1  UNL1        0.0681
     42 N           7.0983   74.3456   28.0867 N.ar    1  UNL1       -0.3523
     43 C           6.2747   75.1709   27.4178 C.ar    1  UNL1        0.0563
     44 C           4.9326   74.9544   27.1073 C.ar    1  UNL1        0.0170
     45 C           4.2665   75.9336   26.3483 C.ar    1  UNL1        0.0015
     46 C           4.9498   77.0915   25.9163 C.ar    1  UNL1        0.0001
     47 C           6.3042   77.2841   26.2449 C.ar    1  UNL1        0.0012
     48 C           6.9377   76.2980   27.0037 C.ar    1  UNL1        0.0131
     49 H           6.8633   73.4122   28.4917 H       1  UNL1        0.1660
@<TRIPOS>BOND
     1     1     2    2
     2     2     3   am
     3     3    28    1
     4    28    39    1
     5    39    40    1
     6    40    41   ar
     7    41    42   ar
     8    42    43   ar
     9    43    44   ar
    10    44    45   ar
    11    45    46   ar
    12    46    47   ar
    13    47    48   ar
    14    28    29    1
    15    29    30    2
    16    29    31   am
    17    31    33    1
    18    33    34   ar
    19    34    35   ar
    20    35    36   ar
    21    36    37   ar
    22    37    38   ar
    23     2     5    1
    24     5     6   ar
    25     6     7   ar
    26     7     8   ar
    27     8    12    1
    28    12    13    1
    29    13    14    1
    30    14    15    1
    31    15    18    1
    32    18    19   ar
    33    19    20   ar
    34    20    21   ar
    35    21    22   ar
    36    22    24    1
    37    24    25    1
    38    24    26    1
    39    24    27    1
    40    22    23   ar
    41    15    16    1
    42    16    17    1
    43     8     9   ar
    44     9    10   ar
    45    10    11    1
    46    48    40   ar
    47    38    33   ar
    48    10     5   ar
    49    48    43   ar
    50    17    12    1
    51    23    18   ar
    52     3     4    1
    53    42    49    1
    54    31    32    1
@<TRIPOS>MOLECULE
*****
 49 54 0 0 0
SMALL
GASTEIGER

@<TRIPOS>ATOM
      1 O          14.0411   83.7088   26.1686 O.2     1  UNL1       -0.2701
      2 C          13.5561   83.2776   25.0871 C.2     1  UNL1        0.2483
      3 N          13.6375   84.0776   23.8952 N.am    1  UNL1       -0.2945
      4 H          13.3095   83.6653   22.9943 H       1  UNL1        0.1501
      5 C          12.8233   81.9938   25.0876 C.ar    1  UNL1        0.0808
      6 C          11.4192   82.0096   25.0894 C.ar    1  UNL1        0.0080
      7 C          10.6958   80.8200   24.9858 C.ar    1  UNL1        0.0148
      8 C          11.3624   79.5895   24.8965 C.ar    1  UNL1        0.0502
      9 C          12.7658   79.5677   24.9315 C.ar    1  UNL1        0.0443
     10 C          13.4936   80.7572   25.0328 C.ar    1  UNL1        0.1457
     11 F          14.8468   80.6902   25.1061 F       1  UNL1       -0.2040
     12 N          10.6175   78.3690   24.7294 N.pl3   1  UNL1       -0.3040
     13 C          11.2847   77.0791   24.9704 C.3     1  UNL1        0.1122
     14 C          10.2724   75.9304   25.0301 C.3     1  UNL1        0.1122
     15 N           9.1019   76.3437   25.8175 N.pl3   1  UNL1       -0.3041
     16 C           8.4117   77.6022   25.4895 C.3     1  UNL1        0.1122
     17 C           9.1791   78.4006   24.4291 C.3     1  UNL1        0.1122
     18 C           8.6786   75.5800   26.9629 C.ar    1  UNL1        0.0479
     19 C           9.5318   75.4231   28.0672 C.ar    1  UNL1        0.0145
     20 C           9.1203   74.6832   29.1769 C.ar    1  UNL1        0.0012
     21 C           7.8502   74.1034   29.2033 C.ar    1  UNL1        0.0039
     22 C           6.9674   74.2768   28.1237 C.ar    1  UNL1        0.0726
     23 C           7.3985   75.0008   26.9975 C.ar    1  UNL1        0.0184
     24 C           5.6136   73.6120   28.1289 C.3     1  UNL1        0.4186
     25 F           4.7217   74.3906   27.4153 F       1  UNL1       -0.1659
     26 F           5.1480   73.4648   29.4242 F       1  UNL1       -0.1659
     27 F           5.6808   72.3570   27.5489 F       1  UNL1       -0.1659
     28 C          13.7768   85.5371   23.9479 C.3     1  UNL1        0.1535
     29 C          15.0619   85.9552   23.2823 C.2     1  UNL1        0.2443
     30 O          15.4810   85.2950   22.2928 O.2     1  UNL1       -0.2730
     31 N          15.8375   87.0480   23.8045 N.am    1  UNL1       -0.2825
     32 H          15.6540   87.3593   24.7848 H       1  UNL1        0.1549
     33 C          16.9233   87.6723   23.0982 C.ar    1  UNL1        0.0535
     34 C          18.1209   87.9419   23.7748 C.ar    1  UNL1        0.0353
     35 C          19.1704   88.5700   23.0999 C.ar    1  UNL1        0.1002
     36 N          19.0239   88.9326   21.7982 N.ar    1  UNL1       -0.2422
     37 C          17.8681   88.7025   21.1210 C.ar    1  UNL1        0.1002
     38 C          16.7941   88.0757   21.7582 C.ar    1  UNL1        0.0353
     39 C          12.5711   86.2173   23.2730 C.3     1  UNL1        0.0569
     40 C          13.0030   87.3805   22.4247 C.ar    1  UNL1       -0.0017
     41 C          13.1892   88.6903   22.8559 C.ar    1  UNL1        0.0681
     42 N          13.4504   89.5013   21.8054 N.ar    1  UNL1       -0.3523
     43 C          13.4171   88.7185   20.7132 C.ar    1  UNL1        0.0563
     44 C          13.5796   89.1142   19.3860 C.ar    1  UNL1        0.0170
     45 C          13.4546   88.1324   18.3864 C.ar    1  UNL1        0.0015
     46 C          13.1677   86.7933   18.7308 C.ar    1  UNL1        0.0001
     47 C          13.0094   86.4222   20.0786 C.ar    1  UNL1        0.0012
     48 C          13.1442   87.4169   21.0491 C.ar    1  UNL1        0.0131
     49 H          13.6139   90.5321   21.8377 H       1  UNL1        0.1660
@<TRIPOS>BOND
     1     1     2    2
     2     2     3   am
     3     3    28    1
     4    28    39    1
     5    39    40    1
     6    40    41   ar
     7    41    42   ar
     8    42    43   ar
     9    43    44   ar
    10    44    45   ar
    11    45    46   ar
    12    46    47   ar
    13    47    48   ar
    14    28    29    1
    15    29    30    2
    16    29    31   am
    17    31    33    1
    18    33    34   ar
    19    34    35   ar
    20    35    36   ar
    21    36    37   ar
    22    37    38   ar
    23     2     5    1
    24     5     6   ar
    25     6     7   ar
    26     7     8   ar
    27     8    12    1
    28    12    13    1
    29    13    14    1
    30    14    15    1
    31    15    18    1
    32    18    19   ar
    33    19    20   ar
    34    20    21   ar
    35    21    22   ar
    36    22    24    1
    37    24    25    1
    38    24    26    1
    39    24    27    1
    40    22    23   ar
    41    15    16    1
    42    16    17    1
    43     8     9   ar
    44     9    10   ar
    45    10    11    1
    46    48    40   ar
    47    38    33   ar
    48    10     5   ar
    49    48    43   ar
    50    17    12    1
    51    23    18   ar
    52     3     4    1
    53    42    49    1
    54    31    32    1
