@<TRIPOS>MOLECULE
*****
 30 33 0 0 0
SMALL
GASTEIGER

@<TRIPOS>ATOM
      1 N          46.1360   13.5881  -24.3007 N.ar    1  UNL1       -0.3243
      2 C          46.1195   13.1224  -25.5731 C.ar    1  UNL1        0.0600
      3 C          45.8362   11.8198  -26.0009 C.ar    1  UNL1        0.0177
      4 C          45.8851   11.5452  -27.3760 C.ar    1  UNL1        0.0082
      5 C          46.2135   12.5594  -28.2968 C.ar    1  UNL1        0.0347
      6 BR         46.2755   12.1609  -30.1634 Br      1  UNL1       -0.0490
      7 C          46.4997   13.8612  -27.8513 C.ar    1  UNL1        0.0082
      8 C          46.4468   14.1202  -26.4766 C.ar    1  UNL1        0.0182
      9 C          46.6838   15.2680  -25.7260 C.ar    1  UNL1        0.0239
     10 C          47.0566   16.5842  -26.0654 C.ar    1  UNL1        0.0422
     11 BR         47.3402   17.1469  -27.8795 Br      1  UNL1       -0.0484
     12 C          47.2222   17.5120  -25.0087 C.ar    1  UNL1        0.0409
     13 BR         47.7273   19.3323  -25.3371 Br      1  UNL1       -0.0485
     14 C          47.0187   17.1177  -23.6715 C.ar    1  UNL1        0.0087
     15 C          46.6485   15.8042  -23.3589 C.ar    1  UNL1        0.0177
     16 C          46.4854   14.8937  -24.4048 C.ar    1  UNL1        0.0605
     17 C          45.8848   12.8365  -23.0635 C.3     1  UNL1        0.1429
     18 C          47.1465   12.1020  -22.5875 C.3     1  UNL1        0.2027
     19 F          47.6932   11.4249  -23.6640 F       1  UNL1       -0.2334
     20 C          48.1852   13.0651  -21.9953 C.3     1  UNL1        0.1259
     21 N          49.4551   12.9579  -22.7125 N.pl3   1  UNL1       -0.3157
     22 H          50.1528   12.2568  -22.3736 H       1  UNL1        0.1483
     23 C          50.4388   15.9454  -24.6487 C.ar    1  UNL1        0.2261
     24 C          50.4613   15.4555  -25.9570 C.ar    1  UNL1        0.0578
     25 C          50.1452   14.1163  -26.1922 C.ar    1  UNL1        0.0077
     26 C          49.8102   13.2819  -25.1238 C.ar    1  UNL1        0.0343
     27 C          49.7949   13.8021  -23.8228 C.ar    1  UNL1        0.1317
     28 N          50.1106   15.1122  -23.6219 N.ar    1  UNL1       -0.1969
     29 C          51.3286   18.1285  -25.4005 C.3     1  UNL1        0.2542
     30 O          50.7526   17.2862  -24.4089 O.3     1  UNL1       -0.4561
@<TRIPOS>BOND
     1    29    30    1
     2    30    23    1
     3    23    24   ar
     4    24    25   ar
     5    25    26   ar
     6    26    27   ar
     7    27    21    1
     8    21    20    1
     9    20    18    1
    10    18    19    1
    11    18    17    1
    12    17     1    1
    13     1     2   ar
    14     2     3   ar
    15     3     4   ar
    16     4     5   ar
    17     5     6    1
    18     5     7   ar
    19     7     8   ar
    20     8     9   ar
    21     9    10   ar
    22    10    11    1
    23    10    12   ar
    24    12    13    1
    25    12    14   ar
    26    14    15   ar
    27    15    16   ar
    28    27    28   ar
    29    28    23   ar
    30    16     1   ar
    31     8     2   ar
    32    16     9   ar
    33    21    22    1
@<TRIPOS>MOLECULE
*****
 30 33 0 0 0
SMALL
GASTEIGER

@<TRIPOS>ATOM
      1 N          47.5250   13.3340  -26.2822 N.ar    1  UNL1       -0.3243
      2 C          48.7496   12.9028  -25.8943 C.ar    1  UNL1        0.0600
      3 C          49.1290   11.5959  -25.5657 C.ar    1  UNL1        0.0177
      4 C          50.4571   11.3663  -25.1758 C.ar    1  UNL1        0.0082
      5 C          51.3795   12.4294  -25.1172 C.ar    1  UNL1        0.0347
      6 BR         53.1814   12.0923  -24.5819 Br      1  UNL1       -0.0490
      7 C          50.9822   13.7367  -25.4460 C.ar    1  UNL1        0.0082
      8 C          49.6540   13.9504  -25.8332 C.ar    1  UNL1        0.0182
      9 C          48.9538   15.0962  -26.1989 C.ar    1  UNL1        0.0239
     10 C          49.3165   16.4528  -26.3193 C.ar    1  UNL1        0.0422
     11 BR         51.0957   17.0857  -25.9697 Br      1  UNL1       -0.0484
     12 C          48.3115   17.3678  -26.7163 C.ar    1  UNL1        0.0409
     13 BR         48.6762   19.2395  -26.9166 Br      1  UNL1       -0.0485
     14 C          47.0005   16.9223  -26.9770 C.ar    1  UNL1        0.0087
     15 C          46.6639   15.5692  -26.8507 C.ar    1  UNL1        0.0177
     16 C          47.6591   14.6712  -26.4602 C.ar    1  UNL1        0.0605
     17 C          46.2962   12.5419  -26.4286 C.3     1  UNL1        0.1429
     18 C          45.4315   12.6087  -25.1615 C.3     1  UNL1        0.2027
     19 F          44.1921   12.0618  -25.4460 F       1  UNL1       -0.2334
     20 C          46.0741   11.8600  -23.9851 C.3     1  UNL1        0.1259
     21 N          46.2150   12.7428  -22.8278 N.pl3   1  UNL1       -0.3157
     22 H          45.5166   12.6543  -22.0548 H       1  UNL1        0.1483
     23 C          47.9192   16.0129  -23.0372 C.ar    1  UNL1        0.2261
     24 C          49.1978   15.7109  -22.5613 C.ar    1  UNL1        0.0578
     25 C          49.4908   14.4040  -22.1677 C.ar    1  UNL1        0.0077
     26 C          48.5093   13.4145  -22.2530 C.ar    1  UNL1        0.0343
     27 C          47.2366   13.7471  -22.7356 C.ar    1  UNL1        0.1317
     28 N          46.9773   15.0312  -23.1100 N.ar    1  UNL1       -0.1969
     29 C          46.3762   17.9442  -23.1475 C.3     1  UNL1        0.2542
     30 O          47.6222   17.3197  -23.4343 O.3     1  UNL1       -0.4561
@<TRIPOS>BOND
     1    29    30    1
     2    30    23    1
     3    23    24   ar
     4    24    25   ar
     5    25    26   ar
     6    26    27   ar
     7    27    21    1
     8    21    20    1
     9    20    18    1
    10    18    19    1
    11    18    17    1
    12    17     1    1
    13     1     2   ar
    14     2     3   ar
    15     3     4   ar
    16     4     5   ar
    17     5     6    1
    18     5     7   ar
    19     7     8   ar
    20     8     9   ar
    21     9    10   ar
    22    10    11    1
    23    10    12   ar
    24    12    13    1
    25    12    14   ar
    26    14    15   ar
    27    15    16   ar
    28    27    28   ar
    29    28    23   ar
    30    16     1   ar
    31     8     2   ar
    32    16     9   ar
    33    21    22    1
@<TRIPOS>MOLECULE
*****
 30 33 0 0 0
SMALL
GASTEIGER

@<TRIPOS>ATOM
      1 N          47.3090   13.5997  -24.2421 N.ar    1  UNL1       -0.3243
      2 C          48.4753   13.0559  -24.6664 C.ar    1  UNL1        0.0600
      3 C          48.8579   11.7102  -24.6136 C.ar    1  UNL1        0.0177
      4 C          50.1254   11.3587  -25.1019 C.ar    1  UNL1        0.0082
      5 C          50.9866   12.3410  -25.6291 C.ar    1  UNL1        0.0347
      6 BR         52.7078   11.8384  -26.2863 Br      1  UNL1       -0.0490
      7 C          50.5897   13.6885  -25.6713 C.ar    1  UNL1        0.0082
      8 C          49.3224   14.0240  -25.1805 C.ar    1  UNL1        0.0182
      9 C          48.6487   15.2365  -25.0665 C.ar    1  UNL1        0.0239
     10 C          48.9845   16.5635  -25.4026 C.ar    1  UNL1        0.0422
     11 BR         50.6620   17.0364  -26.2090 Br      1  UNL1       -0.0484
     12 C          48.0298   17.5718  -25.1258 C.ar    1  UNL1        0.0409
     13 BR         48.3647   19.4149  -25.5348 Br      1  UNL1       -0.0485
     14 C          46.7937   17.2442  -24.5344 C.ar    1  UNL1        0.0087
     15 C          46.4825   15.9184  -24.2094 C.ar    1  UNL1        0.0177
     16 C          47.4269   14.9280  -24.4857 C.ar    1  UNL1        0.0605
     17 C          46.1761   12.9156  -23.6040 C.3     1  UNL1        0.1429
     18 C          45.0347   12.6707  -24.6015 C.3     1  UNL1        0.2027
     19 F          44.5768   13.8959  -25.0546 F       1  UNL1       -0.2334
     20 C          45.4834   11.8095  -25.7908 C.3     1  UNL1        0.1259
     21 N          46.0248   12.6486  -26.8592 N.pl3   1  UNL1       -0.3157
     22 H          46.2727   13.6378  -26.6288 H       1  UNL1        0.1483
     23 C          46.0519   12.6075  -30.5524 C.ar    1  UNL1        0.2261
     24 C          46.4858   11.3087  -30.8303 C.ar    1  UNL1        0.0578
     25 C          46.7712   10.4415  -29.7742 C.ar    1  UNL1        0.0077
     26 C          46.6208   10.8764  -28.4560 C.ar    1  UNL1        0.0343
     27 C          46.1826   12.1841  -28.2084 C.ar    1  UNL1        0.1317
     28 N          45.9141   13.0102  -29.2581 N.ar    1  UNL1       -0.1969
     29 C          45.2731   13.0259  -32.8635 C.3     1  UNL1        0.2542
     30 O          45.7630   13.4785  -31.6067 O.3     1  UNL1       -0.4561
@<TRIPOS>BOND
     1    29    30    1
     2    30    23    1
     3    23    24   ar
     4    24    25   ar
     5    25    26   ar
     6    26    27   ar
     7    27    21    1
     8    21    20    1
     9    20    18    1
    10    18    19    1
    11    18    17    1
    12    17     1    1
    13     1     2   ar
    14     2     3   ar
    15     3     4   ar
    16     4     5   ar
    17     5     6    1
    18     5     7   ar
    19     7     8   ar
    20     8     9   ar
    21     9    10   ar
    22    10    11    1
    23    10    12   ar
    24    12    13    1
    25    12    14   ar
    26    14    15   ar
    27    15    16   ar
    28    27    28   ar
    29    28    23   ar
    30    16     1   ar
    31     8     2   ar
    32    16     9   ar
    33    21    22    1
@<TRIPOS>MOLECULE
*****
 30 33 0 0 0
SMALL
GASTEIGER

@<TRIPOS>ATOM
      1 N          47.2337   13.4773  -25.9910 N.ar    1  UNL1       -0.3243
      2 C          48.4947   13.0004  -25.8548 C.ar    1  UNL1        0.0600
      3 C          48.8995   11.6611  -25.8080 C.ar    1  UNL1        0.0177
      4 C          50.2658   11.3836  -25.6499 C.ar    1  UNL1        0.0082
      5 C          51.2006   12.4317  -25.5399 C.ar    1  UNL1        0.0347
      6 BR         53.0548   12.0290  -25.3236 Br      1  UNL1       -0.0490
      7 C          50.7780   13.7713  -25.5843 C.ar    1  UNL1        0.0082
      8 C          49.4118   14.0325  -25.7425 C.ar    1  UNL1        0.0182
      9 C          48.6821   15.2158  -25.8084 C.ar    1  UNL1        0.0239
     10 C          49.0416   16.5772  -25.7459 C.ar    1  UNL1        0.0422
     11 BR         50.8597   17.1617  -25.5432 Br      1  UNL1       -0.0484
     12 C          48.0028   17.5348  -25.8394 C.ar    1  UNL1        0.0409
     13 BR         48.3595   19.4174  -25.7679 Br      1  UNL1       -0.0485
     14 C          46.6630   17.1252  -25.9883 C.ar    1  UNL1        0.0087
     15 C          46.3302   15.7666  -26.0480 C.ar    1  UNL1        0.0177
     16 C          47.3585   14.8267  -25.9566 C.ar    1  UNL1        0.0605
     17 C          45.9867   12.7077  -26.0985 C.3     1  UNL1        0.1429
     18 C          45.1158   12.8728  -24.8447 C.3     1  UNL1        0.2027
     19 F          43.9157   12.2155  -25.0536 F       1  UNL1       -0.2334
     20 C          45.8027   12.3175  -23.5887 C.3     1  UNL1        0.1259
     21 N          46.4583   13.3910  -22.8429 N.pl3   1  UNL1       -0.3157
     22 H          45.8839   14.2205  -22.5690 H       1  UNL1        0.1483
     23 C          49.8497   12.1247  -22.1102 C.ar    1  UNL1        0.2261
     24 C          50.5654   13.3051  -21.8931 C.ar    1  UNL1        0.0578
     25 C          49.9080   14.5325  -21.9929 C.ar    1  UNL1        0.0077
     26 C          48.5479   14.5705  -22.3064 C.ar    1  UNL1        0.0343
     27 C          47.8564   13.3703  -22.5174 C.ar    1  UNL1        0.1317
     28 N          48.5236   12.1866  -22.4165 N.ar    1  UNL1       -0.1969
     29 C          49.8404    9.6529  -22.2238 C.3     1  UNL1        0.2542
     30 O          50.5035   10.8935  -22.0092 O.3     1  UNL1       -0.4561
@<TRIPOS>BOND
     1    29    30    1
     2    30    23    1
     3    23    24   ar
     4    24    25   ar
     5    25    26   ar
     6    26    27   ar
     7    27    21    1
     8    21    20    1
     9    20    18    1
    10    18    19    1
    11    18    17    1
    12    17     1    1
    13     1     2   ar
    14     2     3   ar
    15     3     4   ar
    16     4     5   ar
    17     5     6    1
    18     5     7   ar
    19     7     8   ar
    20     8     9   ar
    21     9    10   ar
    22    10    11    1
    23    10    12   ar
    24    12    13    1
    25    12    14   ar
    26    14    15   ar
    27    15    16   ar
    28    27    28   ar
    29    28    23   ar
    30    16     1   ar
    31     8     2   ar
    32    16     9   ar
    33    21    22    1
@<TRIPOS>MOLECULE
*****
 30 33 0 0 0
SMALL
GASTEIGER

@<TRIPOS>ATOM
      1 N          50.4509   13.4517  -22.4911 N.ar    1  UNL1       -0.3243
      2 C          51.1385   12.9586  -23.5496 C.ar    1  UNL1        0.0600
      3 C          52.5279   12.8809  -23.7027 C.ar    1  UNL1        0.0177
      4 C          53.0374   12.3399  -24.8928 C.ar    1  UNL1        0.0082
      5 C          52.1665   11.8899  -25.9045 C.ar    1  UNL1        0.0347
      6 BR         52.8838   11.1590  -27.5164 Br      1  UNL1       -0.0490
      7 C          50.7739   11.9787  -25.7377 C.ar    1  UNL1        0.0082
      8 C          50.2804   12.5206  -24.5450 C.ar    1  UNL1        0.0182
      9 C          48.9890   12.7574  -24.0832 C.ar    1  UNL1        0.0239
     10 C          47.7105   12.5386  -24.6347 C.ar    1  UNL1        0.0422
     11 BR         47.4489   11.7494  -26.3658 Br      1  UNL1       -0.0484
     12 C          46.5883   12.9237  -23.8620 C.ar    1  UNL1        0.0409
     13 BR         44.7961   12.6798  -24.4985 Br      1  UNL1       -0.0485
     14 C          46.7603   13.5043  -22.5899 C.ar    1  UNL1        0.0087
     15 C          48.0406   13.7117  -22.0628 C.ar    1  UNL1        0.0177
     16 C          49.1437   13.3289  -22.8283 C.ar    1  UNL1        0.0605
     17 C          50.9944   14.0443  -21.2615 C.3     1  UNL1        0.1429
     18 C          51.8632   13.0395  -20.4911 C.3     1  UNL1        0.2027
     19 F          53.0331   13.6729  -20.1086 F       1  UNL1       -0.2334
     20 C          51.1427   12.4840  -19.2543 C.3     1  UNL1        0.1259
     21 N          50.8201   11.0695  -19.4379 N.pl3   1  UNL1       -0.3157
     22 H          51.3669   10.3661  -18.8908 H       1  UNL1        0.1483
     23 C          49.2763    9.6584  -22.4822 C.ar    1  UNL1        0.2261
     24 C          47.9140    9.7179  -22.1774 C.ar    1  UNL1        0.0578
     25 C          47.5100   10.2337  -20.9447 C.ar    1  UNL1        0.0077
     26 C          48.4654   10.6841  -20.0316 C.ar    1  UNL1        0.0343
     27 C          49.8243   10.6130  -20.3658 C.ar    1  UNL1        0.1317
     28 N          50.1905   10.1023  -21.5747 N.ar    1  UNL1       -0.1969
     29 C          51.0350    8.7869  -23.9890 C.3     1  UNL1        0.2542
     30 O          49.6851    9.1446  -23.7161 O.3     1  UNL1       -0.4561
@<TRIPOS>BOND
     1    29    30    1
     2    30    23    1
     3    23    24   ar
     4    24    25   ar
     5    25    26   ar
     6    26    27   ar
     7    27    21    1
     8    21    20    1
     9    20    18    1
    10    18    19    1
    11    18    17    1
    12    17     1    1
    13     1     2   ar
    14     2     3   ar
    15     3     4   ar
    16     4     5   ar
    17     5     6    1
    18     5     7   ar
    19     7     8   ar
    20     8     9   ar
    21     9    10   ar
    22    10    11    1
    23    10    12   ar
    24    12    13    1
    25    12    14   ar
    26    14    15   ar
    27    15    16   ar
    28    27    28   ar
    29    28    23   ar
    30    16     1   ar
    31     8     2   ar
    32    16     9   ar
    33    21    22    1
@<TRIPOS>MOLECULE
*****
 30 33 0 0 0
SMALL
GASTEIGER

@<TRIPOS>ATOM
      1 N          47.2640   12.3702  -25.9541 N.ar    1  UNL1       -0.3243
      2 C          46.8995   12.2405  -27.2527 C.ar    1  UNL1        0.0600
      3 C          46.9491   11.0846  -28.0411 C.ar    1  UNL1        0.0177
      4 C          46.5303   11.1715  -29.3773 C.ar    1  UNL1        0.0082
      5 C          46.0743   12.3951  -29.9059 C.ar    1  UNL1        0.0347
      6 BR         45.5112   12.4891  -31.7283 Br      1  UNL1       -0.0490
      7 C          46.0346   13.5478  -29.1030 C.ar    1  UNL1        0.0082
      8 C          46.4554   13.4456  -27.7718 C.ar    1  UNL1        0.0182
      9 C          46.5525   14.3769  -26.7420 C.ar    1  UNL1        0.0239
     10 C          46.2626   15.7533  -26.6539 C.ar    1  UNL1        0.0422
     11 BR         45.5667   16.7635  -28.1315 Br      1  UNL1       -0.0484
     12 C          46.5015   16.3959  -25.4150 C.ar    1  UNL1        0.0409
     13 BR         46.1488   18.2640  -25.1651 Br      1  UNL1       -0.0485
     14 C          47.0118   15.6714  -24.3196 C.ar    1  UNL1        0.0087
     15 C          47.2921   14.3043  -24.4312 C.ar    1  UNL1        0.0177
     16 C          47.0535   13.6754  -25.6547 C.ar    1  UNL1        0.0605
     17 C          47.8203   11.3389  -25.0677 C.3     1  UNL1        0.1429
     18 C          49.3171   11.1202  -25.3318 C.3     1  UNL1        0.2027
     19 F          49.5196   11.0739  -26.7004 F       1  UNL1       -0.2334
     20 C          50.1795   12.2303  -24.7144 C.3     1  UNL1        0.1259
     21 N          50.5630   13.2099  -25.7302 N.pl3   1  UNL1       -0.3157
     22 H          50.9650   12.8548  -26.6277 H       1  UNL1        0.1483
     23 C          49.8762   16.7827  -26.3667 C.ar    1  UNL1        0.2261
     24 C          50.2273   17.3725  -25.1496 C.ar    1  UNL1        0.0578
     25 C          50.6968   16.5686  -24.1094 C.ar    1  UNL1        0.0077
     26 C          50.8118   15.1892  -24.2929 C.ar    1  UNL1        0.0343
     27 C          50.4533   14.6265  -25.5251 C.ar    1  UNL1        0.1317
     28 N          49.9953   15.4344  -26.5220 N.ar    1  UNL1       -0.1969
     29 C          49.2826   18.9969  -27.2982 C.3     1  UNL1        0.2542
     30 O          49.4076   17.5841  -27.4116 O.3     1  UNL1       -0.4561
@<TRIPOS>BOND
     1    29    30    1
     2    30    23    1
     3    23    24   ar
     4    24    25   ar
     5    25    26   ar
     6    26    27   ar
     7    27    21    1
     8    21    20    1
     9    20    18    1
    10    18    19    1
    11    18    17    1
    12    17     1    1
    13     1     2   ar
    14     2     3   ar
    15     3     4   ar
    16     4     5   ar
    17     5     6    1
    18     5     7   ar
    19     7     8   ar
    20     8     9   ar
    21     9    10   ar
    22    10    11    1
    23    10    12   ar
    24    12    13    1
    25    12    14   ar
    26    14    15   ar
    27    15    16   ar
    28    27    28   ar
    29    28    23   ar
    30    16     1   ar
    31     8     2   ar
    32    16     9   ar
    33    21    22    1
@<TRIPOS>MOLECULE
*****
 30 33 0 0 0
SMALL
GASTEIGER

@<TRIPOS>ATOM
      1 N          47.5054   12.2989  -24.8701 N.ar    1  UNL1       -0.3243
      2 C          47.3190   13.5412  -24.3621 C.ar    1  UNL1        0.0600
      3 C          47.5610   13.9722  -23.0523 C.ar    1  UNL1        0.0177
      4 C          47.2876   15.3102  -22.7303 C.ar    1  UNL1        0.0082
      5 C          46.7808   16.1915  -23.7054 C.ar    1  UNL1        0.0347
      6 BR         46.4147   18.0078  -23.2428 Br      1  UNL1       -0.0490
      7 C          46.5390   15.7426  -25.0151 C.ar    1  UNL1        0.0082
      8 C          46.8166   14.4052  -25.3214 C.ar    1  UNL1        0.0182
      9 C          46.6790   13.6596  -26.4886 C.ar    1  UNL1        0.0239
     10 C          46.2187   13.9695  -27.7842 C.ar    1  UNL1        0.0422
     11 BR         45.6172   15.7249  -28.2790 Br      1  UNL1       -0.0484
     12 C          46.2093   12.9280  -28.7434 C.ar    1  UNL1        0.0409
     13 BR         45.6068   13.2196  -30.5402 Br      1  UNL1       -0.0485
     14 C          46.6466   11.6337  -28.3990 C.ar    1  UNL1        0.0087
     15 C          47.0998   11.3499  -27.1051 C.ar    1  UNL1        0.0177
     16 C          47.1082   12.3808  -26.1636 C.ar    1  UNL1        0.0605
     17 C          47.9824   11.1007  -24.1664 C.3     1  UNL1        0.1429
     18 C          49.4935   11.1697  -23.9022 C.3     1  UNL1        0.2027
     19 F          49.8692   10.0366  -23.2015 F       1  UNL1       -0.2334
     20 C          50.3021   11.2700  -25.2035 C.3     1  UNL1        0.1259
     21 N          51.2832   12.3511  -25.1185 N.pl3   1  UNL1       -0.3157
     22 H          52.2960   12.0937  -25.0879 H       1  UNL1        0.1483
     23 C          50.0055   15.6862  -26.0598 C.ar    1  UNL1        0.2261
     24 C          50.1751   16.4121  -24.8779 C.ar    1  UNL1        0.0578
     25 C          50.7207   15.7805  -23.7589 C.ar    1  UNL1        0.0077
     26 C          51.0910   14.4361  -23.8296 C.ar    1  UNL1        0.0343
     27 C          50.9102   13.7344  -25.0289 C.ar    1  UNL1        0.1317
     28 N          50.3727   14.3750  -26.1046 N.ar    1  UNL1       -0.1969
     29 C          48.9060   17.6243  -27.1359 C.3     1  UNL1        0.2542
     30 O          49.4616   16.3152  -27.1832 O.3     1  UNL1       -0.4561
@<TRIPOS>BOND
     1    29    30    1
     2    30    23    1
     3    23    24   ar
     4    24    25   ar
     5    25    26   ar
     6    26    27   ar
     7    27    21    1
     8    21    20    1
     9    20    18    1
    10    18    19    1
    11    18    17    1
    12    17     1    1
    13     1     2   ar
    14     2     3   ar
    15     3     4   ar
    16     4     5   ar
    17     5     6    1
    18     5     7   ar
    19     7     8   ar
    20     8     9   ar
    21     9    10   ar
    22    10    11    1
    23    10    12   ar
    24    12    13    1
    25    12    14   ar
    26    14    15   ar
    27    15    16   ar
    28    27    28   ar
    29    28    23   ar
    30    16     1   ar
    31     8     2   ar
    32    16     9   ar
    33    21    22    1
@<TRIPOS>MOLECULE
*****
 30 33 0 0 0
SMALL
GASTEIGER

@<TRIPOS>ATOM
      1 N          49.1109   13.4151  -22.7360 N.ar    1  UNL1       -0.3243
      2 C          49.9564   12.8593  -23.6373 C.ar    1  UNL1        0.0600
      3 C          50.5964   11.6170  -23.5532 C.ar    1  UNL1        0.0177
      4 C          51.4472   11.2340  -24.6011 C.ar    1  UNL1        0.0082
      5 C          51.6490   12.0843  -25.7060 C.ar    1  UNL1        0.0347
      6 BR         52.8133   11.5419  -27.1191 Br      1  UNL1       -0.0490
      7 C          51.0027   13.3304  -25.7738 C.ar    1  UNL1        0.0082
      8 C          50.1567   13.6988  -24.7210 C.ar    1  UNL1        0.0182
      9 C          49.3983   14.8405  -24.4794 C.ar    1  UNL1        0.0239
     10 C          49.1969   16.0363  -25.1976 C.ar    1  UNL1        0.0422
     11 BR         50.0286   16.3798  -26.8942 Br      1  UNL1       -0.0484
     12 C          48.3417   17.0090  -24.6254 C.ar    1  UNL1        0.0409
     13 BR         47.9857   18.6770  -25.5016 Br      1  UNL1       -0.0485
     14 C          47.7227   16.7750  -23.3816 C.ar    1  UNL1        0.0087
     15 C          47.9380   15.5789  -22.6865 C.ar    1  UNL1        0.0177
     16 C          48.7811   14.6227  -23.2559 C.ar    1  UNL1        0.0605
     17 C          48.6805   12.8615  -21.4449 C.3     1  UNL1        0.1429
     18 C          47.5723   11.8140  -21.6252 C.3     1  UNL1        0.2027
     19 F          47.5397   11.0105  -20.4985 F       1  UNL1       -0.2334
     20 C          46.1974   12.4614  -21.8438 C.3     1  UNL1        0.1259
     21 N          45.6250   12.0363  -23.1206 N.pl3   1  UNL1       -0.3157
     22 H          44.9043   11.2789  -23.1078 H       1  UNL1        0.1483
     23 C          46.0238   14.3793  -25.9478 C.ar    1  UNL1        0.2261
     24 C          46.8494   13.6587  -26.8147 C.ar    1  UNL1        0.0578
     25 C          47.2752   12.3802  -26.4499 C.ar    1  UNL1        0.0077
     26 C          46.8742   11.8347  -25.2288 C.ar    1  UNL1        0.0343
     27 C          46.0448   12.5807  -24.3808 C.ar    1  UNL1        0.1317
     28 N          45.6467   13.8272  -24.7607 N.ar    1  UNL1       -0.1969
     29 C          45.4178   16.0544  -27.6653 C.3     1  UNL1        0.2542
     30 O          45.5934   15.6589  -26.3098 O.3     1  UNL1       -0.4561
@<TRIPOS>BOND
     1    29    30    1
     2    30    23    1
     3    23    24   ar
     4    24    25   ar
     5    25    26   ar
     6    26    27   ar
     7    27    21    1
     8    21    20    1
     9    20    18    1
    10    18    19    1
    11    18    17    1
    12    17     1    1
    13     1     2   ar
    14     2     3   ar
    15     3     4   ar
    16     4     5   ar
    17     5     6    1
    18     5     7   ar
    19     7     8   ar
    20     8     9   ar
    21     9    10   ar
    22    10    11    1
    23    10    12   ar
    24    12    13    1
    25    12    14   ar
    26    14    15   ar
    27    15    16   ar
    28    27    28   ar
    29    28    23   ar
    30    16     1   ar
    31     8     2   ar
    32    16     9   ar
    33    21    22    1
@<TRIPOS>MOLECULE
*****
 30 33 0 0 0
SMALL
GASTEIGER

@<TRIPOS>ATOM
      1 N          49.2151   10.2745  -22.4483 N.ar    1  UNL1       -0.3243
      2 C          49.9599   10.1594  -23.5744 C.ar    1  UNL1        0.0600
      3 C          51.2156    9.5551  -23.7083 C.ar    1  UNL1        0.0177
      4 C          51.8227    9.5544  -24.9732 C.ar    1  UNL1        0.0082
      5 C          51.1795   10.1504  -26.0758 C.ar    1  UNL1        0.0347
      6 BR         52.0267   10.1385  -27.7873 Br      1  UNL1       -0.0490
      7 C          49.9209   10.7569  -25.9244 C.ar    1  UNL1        0.0082
      8 C          49.3276   10.7497  -24.6565 C.ar    1  UNL1        0.0182
      9 C          48.1261   11.2636  -24.1774 C.ar    1  UNL1        0.0239
     10 C          47.0681   11.9709  -24.7830 C.ar    1  UNL1        0.0422
     11 BR         47.0563   12.4216  -26.6498 Br      1  UNL1       -0.0484
     12 C          45.9801   12.3536  -23.9617 C.ar    1  UNL1        0.0409
     13 BR         44.4796   13.3192  -24.6637 Br      1  UNL1       -0.0485
     14 C          45.9710   12.0321  -22.5900 C.ar    1  UNL1        0.0087
     15 C          47.0337   11.3284  -22.0107 C.ar    1  UNL1        0.0177
     16 C          48.1034   10.9524  -22.8254 C.ar    1  UNL1        0.0605
     17 C          49.5536    9.8159  -21.0941 C.3     1  UNL1        0.1429
     18 C          49.4703   10.9628  -20.0764 C.3     1  UNL1        0.2027
     19 F          49.5449   10.4260  -18.8026 F       1  UNL1       -0.2334
     20 C          50.5921   11.9921  -20.2750 C.3     1  UNL1        0.1259
     21 N          50.0346   13.3277  -20.4845 N.pl3   1  UNL1       -0.3157
     22 H          49.7987   13.8991  -19.6414 H       1  UNL1        0.1483
     23 C          48.2850   15.0232  -23.2604 C.ar    1  UNL1        0.2261
     24 C          49.2031   14.9015  -24.3067 C.ar    1  UNL1        0.0578
     25 C          50.4157   14.2477  -24.0809 C.ar    1  UNL1        0.0077
     26 C          50.6993   13.7229  -22.8185 C.ar    1  UNL1        0.0343
     27 C          49.7584   13.8592  -21.7892 C.ar    1  UNL1        0.1317
     28 N          48.5843   14.5046  -22.0366 N.ar    1  UNL1       -0.1969
     29 C          46.9325   17.0898  -23.4117 C.3     1  UNL1        0.2542
     30 O          47.0688   15.6753  -23.4826 O.3     1  UNL1       -0.4561
@<TRIPOS>BOND
     1    29    30    1
     2    30    23    1
     3    23    24   ar
     4    24    25   ar
     5    25    26   ar
     6    26    27   ar
     7    27    21    1
     8    21    20    1
     9    20    18    1
    10    18    19    1
    11    18    17    1
    12    17     1    1
    13     1     2   ar
    14     2     3   ar
    15     3     4   ar
    16     4     5   ar
    17     5     6    1
    18     5     7   ar
    19     7     8   ar
    20     8     9   ar
    21     9    10   ar
    22    10    11    1
    23    10    12   ar
    24    12    13    1
    25    12    14   ar
    26    14    15   ar
    27    15    16   ar
    28    27    28   ar
    29    28    23   ar
    30    16     1   ar
    31     8     2   ar
    32    16     9   ar
    33    21    22    1
