@<TRIPOS>MOLECULE
*****
 45 50 0 0 0
SMALL
GASTEIGER

@<TRIPOS>ATOM
      1 C          60.7754   87.0443    8.4311 C.ar    1  UNL1        0.0702
      2 C          60.1112   85.8416    8.6957 C.ar    1  UNL1        0.0191
      3 C          60.2357   85.2269    9.9425 C.ar    1  UNL1        0.0356
      4 C          61.0480   85.8129   10.9306 C.ar    1  UNL1        0.1318
      5 N          61.7050   86.9704   10.6365 N.ar    1  UNL1       -0.2279
      6 C          61.5956   87.5886    9.4312 C.ar    1  UNL1        0.1149
      7 N          61.1959   85.2134   12.2398 N.pl3   1  UNL1       -0.2932
      8 C          62.4486   85.3694   13.0012 C.3     1  UNL1        0.0923
      9 C          62.5285   84.3877   14.1798 C.3     1  UNL1        0.0252
     10 C          62.0389   82.9968   13.7408 C.3     1  UNL1        0.0472
     11 C          60.5658   83.0382   13.2515 C.3     1  UNL1        0.0252
     12 C          60.0950   84.4440   12.8415 C.3     1  UNL1        0.0923
     13 C          62.2258   81.9742   14.8778 C.3     1  UNL1        0.2054
     14 O          62.2635   80.6399   14.3680 O.3     1  UNL1       -0.4755
     15 C          61.2686   80.0363   13.5810 C.ar    1  UNL1        0.1388
     16 C          60.0316   79.6246   14.1034 C.ar    1  UNL1        0.0374
     17 C          59.0814   79.0320   13.2725 C.ar    1  UNL1        0.0100
     18 C          59.3421   78.8367   11.9117 C.ar    1  UNL1        0.0410
     19 BR         57.9238   78.0722   10.8654 Br      1  UNL1       -0.0488
     20 C          60.5871   79.2425   11.3685 C.ar    1  UNL1        0.0847
     21 C          61.5304   79.8487   12.2200 C.ar    1  UNL1        0.0438
     22 C          60.9440   79.0571    9.9392 C.2     1  UNL1        0.3386
     23 O          60.4923   79.8258    9.0496 O.2     1  UNL1       -0.2451
     24 O          61.7668   77.9987    9.5611 O.3     1  UNL1       -0.4771
     25 H          62.0115   77.8506    8.5892 H       1  UNL1        0.2954
     26 C          59.8764   88.8322    6.8689 C.2     1  UNL1        0.2839
     27 O          59.0474   89.2505    7.7212 O.2     1  UNL1       -0.2665
     28 N          60.6550   87.6540    7.1343 N.am    1  UNL1       -0.2766
     29 H          61.0918   87.1618    6.3223 H       1  UNL1        0.1553
     30 C          57.5191   90.0095    5.0441 C.3     1  UNL1        0.0345
     31 C          58.9938   90.0454    4.7774 C.ar    1  UNL1        0.0202
     32 C          60.0201   89.5294    5.5767 C.ar    1  UNL1        0.1946
     33 O          61.1917   89.7550    5.0095 O.2     1  UNL1       -0.4492
     34 C          60.9784   90.3904    3.8832 C.ar    1  UNL1        0.1452
     35 C          61.9292   90.8261    2.9669 C.ar    1  UNL1        0.0375
     36 C          61.4786   91.4948    1.8156 C.ar    1  UNL1        0.0031
     37 C          60.0920   91.7172    1.5979 C.ar    1  UNL1        0.0002
     38 C          59.1567   91.2569    2.5557 C.ar    1  UNL1        0.0028
     39 C          59.6392   90.5966    3.6868 C.ar    1  UNL1        0.0337
     40 C          59.6277   92.4252    0.3779 C.ar    1  UNL1        0.0000
     41 C          60.5277   93.1813   -0.3971 C.ar    1  UNL1        0.0000
     42 C          60.0875   93.8476   -1.5448 C.ar    1  UNL1        0.0000
     43 C          58.7482   93.7670   -1.9321 C.ar    1  UNL1        0.0000
     44 C          57.8456   93.0200   -1.1720 C.ar    1  UNL1        0.0000
     45 C          58.2800   92.3523   -0.0228 C.ar    1  UNL1        0.0000
@<TRIPOS>BOND
     1    30    31    1
     2    31    32   ar
     3    32    26    1
     4    26    27    2
     5    26    28   am
     6    28     1    1
     7     1     2   ar
     8     2     3   ar
     9     3     4   ar
    10     4     7    1
    11     7     8    1
    12     8     9    1
    13     9    10    1
    14    10    13    1
    15    13    14    1
    16    14    15    1
    17    15    16   ar
    18    16    17   ar
    19    17    18   ar
    20    18    19    1
    21    18    20   ar
    22    20    22    1
    23    22    23    2
    24    22    24    1
    25    20    21   ar
    26    10    11    1
    27    11    12    1
    28     4     5   ar
    29     5     6   ar
    30    32    33   ar
    31    33    34   ar
    32    34    35   ar
    33    35    36   ar
    34    36    37   ar
    35    37    40    1
    36    40    41   ar
    37    41    42   ar
    38    42    43   ar
    39    43    44   ar
    40    44    45   ar
    41    37    38   ar
    42    38    39   ar
    43    39    31   ar
    44     6     1   ar
    45    39    34   ar
    46    12     7    1
    47    45    40   ar
    48    21    15   ar
    49    28    29    1
    50    24    25    1
@<TRIPOS>MOLECULE
*****
 45 50 0 0 0
SMALL
GASTEIGER

@<TRIPOS>ATOM
      1 C          61.1483   87.6268    8.6542 C.ar    1  UNL1        0.0702
      2 C          61.8946   88.3154    9.6167 C.ar    1  UNL1        0.0191
      3 C          61.9580   87.8449   10.9291 C.ar    1  UNL1        0.0356
      4 C          61.2526   86.6815   11.2874 C.ar    1  UNL1        0.1318
      5 N          60.5117   86.0458   10.3361 N.ar    1  UNL1       -0.2279
      6 C          60.4385   86.4834    9.0515 C.ar    1  UNL1        0.1149
      7 N          61.3002   86.1543   12.6346 N.pl3   1  UNL1       -0.2932
      8 C          62.5063   86.3221   13.4656 C.3     1  UNL1        0.0923
      9 C          62.4833   85.4077   14.6996 C.3     1  UNL1        0.0252
     10 C          61.9827   84.0067   14.3076 C.3     1  UNL1        0.0472
     11 C          60.5452   84.0571   13.7225 C.3     1  UNL1        0.0252
     12 C          60.1418   85.4485   13.2056 C.3     1  UNL1        0.0923
     13 C          62.0679   83.0464   15.5093 C.3     1  UNL1        0.2054
     14 O          62.4250   81.7281   15.0894 O.3     1  UNL1       -0.4755
     15 C          62.1404   81.1638   13.8347 C.ar    1  UNL1        0.1388
     16 C          63.0273   81.2395   12.7484 C.ar    1  UNL1        0.0374
     17 C          62.6907   80.6584   11.5262 C.ar    1  UNL1        0.0100
     18 C          61.4701   79.9946   11.3608 C.ar    1  UNL1        0.0410
     19 BR         61.1592   79.1802    9.6487 Br      1  UNL1       -0.0488
     20 C          60.5612   79.9123   12.4456 C.ar    1  UNL1        0.0847
     21 C          60.9223   80.4956   13.6752 C.ar    1  UNL1        0.0438
     22 C          59.2421   79.2380   12.3454 C.2     1  UNL1        0.3386
     23 O          59.1012   78.0300   12.6724 O.2     1  UNL1       -0.2451
     24 O          58.1420   79.9357   11.8524 O.3     1  UNL1       -0.4771
     25 H          57.2371   79.4882   11.7666 H       1  UNL1        0.2954
     26 C          59.9806   88.9199    6.8077 C.2     1  UNL1        0.2839
     27 O          58.8995   88.9885    7.4519 O.2     1  UNL1       -0.2665
     28 N          61.0747   88.1364    7.3115 N.am    1  UNL1       -0.2766
     29 H          61.8215   87.8480    6.6395 H       1  UNL1        0.1553
     30 C          57.6079   90.1205    5.0184 C.3     1  UNL1        0.0345
     31 C          59.0784   90.1387    4.7278 C.ar    1  UNL1        0.0202
     32 C          60.1114   89.6125    5.5116 C.ar    1  UNL1        0.1946
     33 O          61.2763   89.8232    4.9249 O.2     1  UNL1       -0.4492
     34 C          61.0521   90.4584    3.8007 C.ar    1  UNL1        0.1452
     35 C          61.9929   90.8809    2.8680 C.ar    1  UNL1        0.0375
     36 C          61.5315   91.5522    1.7226 C.ar    1  UNL1        0.0031
     37 C          60.1442   91.7902    1.5268 C.ar    1  UNL1        0.0002
     38 C          59.2193   91.3431    2.5008 C.ar    1  UNL1        0.0028
     39 C          59.7124   90.6798    3.6255 C.ar    1  UNL1        0.0337
     40 C          59.6684   92.5008    0.3128 C.ar    1  UNL1        0.0000
     41 C          60.5819   93.1433   -0.5447 C.ar    1  UNL1        0.0000
     42 C          60.1309   93.8124   -1.6866 C.ar    1  UNL1        0.0000
     43 C          58.7673   93.8476   -1.9860 C.ar    1  UNL1        0.0000
     44 C          57.8512   93.2139   -1.1436 C.ar    1  UNL1        0.0000
     45 C          58.2963   92.5441    0.0002 C.ar    1  UNL1        0.0000
@<TRIPOS>BOND
     1    30    31    1
     2    31    32   ar
     3    32    26    1
     4    26    27    2
     5    26    28   am
     6    28     1    1
     7     1     2   ar
     8     2     3   ar
     9     3     4   ar
    10     4     7    1
    11     7     8    1
    12     8     9    1
    13     9    10    1
    14    10    13    1
    15    13    14    1
    16    14    15    1
    17    15    16   ar
    18    16    17   ar
    19    17    18   ar
    20    18    19    1
    21    18    20   ar
    22    20    22    1
    23    22    23    2
    24    22    24    1
    25    20    21   ar
    26    10    11    1
    27    11    12    1
    28     4     5   ar
    29     5     6   ar
    30    32    33   ar
    31    33    34   ar
    32    34    35   ar
    33    35    36   ar
    34    36    37   ar
    35    37    40    1
    36    40    41   ar
    37    41    42   ar
    38    42    43   ar
    39    43    44   ar
    40    44    45   ar
    41    37    38   ar
    42    38    39   ar
    43    39    31   ar
    44     6     1   ar
    45    39    34   ar
    46    12     7    1
    47    45    40   ar
    48    21    15   ar
    49    28    29    1
    50    24    25    1
@<TRIPOS>MOLECULE
*****
 45 50 0 0 0
SMALL
GASTEIGER

@<TRIPOS>ATOM
      1 C          60.1541   87.6975    7.9549 C.ar    1  UNL1        0.0702
      2 C          59.6556   86.3946    8.0614 C.ar    1  UNL1        0.0191
      3 C          59.5071   85.7966    9.3136 C.ar    1  UNL1        0.0356
      4 C          59.8779   86.5036   10.4721 C.ar    1  UNL1        0.1318
      5 N          60.3860   87.7612   10.3373 N.ar    1  UNL1       -0.2279
      6 C          60.5358   88.3648    9.1289 C.ar    1  UNL1        0.1149
      7 N          59.7303   85.9240   11.7902 N.pl3   1  UNL1       -0.2932
      8 C          58.9127   86.5929   12.8186 C.3     1  UNL1        0.0923
      9 C          59.1664   86.0133   14.2183 C.3     1  UNL1        0.0252
     10 C          60.6737   85.7890   14.4301 C.3     1  UNL1        0.0472
     11 C          61.2550   84.7953   13.3881 C.3     1  UNL1        0.0252
     12 C          60.3856   84.6501   12.1276 C.3     1  UNL1        0.0923
     13 C          60.9534   85.3212   15.8711 C.3     1  UNL1        0.2054
     14 O          61.9168   86.1634   16.5070 O.3     1  UNL1       -0.4755
     15 C          62.7014   87.1372   15.8670 C.ar    1  UNL1        0.1388
     16 C          63.5375   86.8441   14.7773 C.ar    1  UNL1        0.0374
     17 C          64.2926   87.8535   14.1811 C.ar    1  UNL1        0.0100
     18 C          64.2323   89.1684   14.6557 C.ar    1  UNL1        0.0410
     19 BR         65.2695   90.4751   13.7029 Br      1  UNL1       -0.0488
     20 C          63.3968   89.4812   15.7575 C.ar    1  UNL1        0.0847
     21 C          62.6336   88.4515   16.3403 C.ar    1  UNL1        0.0438
     22 C          63.2890   90.8479   16.3275 C.2     1  UNL1        0.3386
     23 O          62.1766   91.4319   16.4146 O.2     1  UNL1       -0.2451
     24 O          64.4363   91.5172   16.7471 O.3     1  UNL1       -0.4771
     25 H          64.3826   92.4544   17.1281 H       1  UNL1        0.2954
     26 C          59.3446   89.1353    6.0254 C.2     1  UNL1        0.2839
     27 O          58.1696   89.1933    6.4778 O.2     1  UNL1       -0.2665
     28 N          60.3221   88.2919    6.6563 N.am    1  UNL1       -0.2766
     29 H          61.1690   88.0256    6.1047 H       1  UNL1        0.1553
     30 C          62.2717   89.4595    4.7607 C.3     1  UNL1        0.0345
     31 C          60.9851   90.0471    4.2640 C.ar    1  UNL1        0.0202
     32 C          59.7088   89.9036    4.8198 C.ar    1  UNL1        0.1946
     33 O          58.8243   90.5688    4.0983 O.2     1  UNL1       -0.4492
     34 C          59.4610   91.1368    3.1035 C.ar    1  UNL1        0.1452
     35 C          58.9197   91.9313    2.0989 C.ar    1  UNL1        0.0375
     36 C          59.7899   92.4419    1.1203 C.ar    1  UNL1        0.0031
     37 C          61.1807   92.1527    1.1596 C.ar    1  UNL1        0.0002
     38 C          61.6913   91.3399    2.2001 C.ar    1  UNL1        0.0028
     39 C          60.7988   90.8502    3.1550 C.ar    1  UNL1        0.0337
     40 C          62.0904   92.6976    0.1199 C.ar    1  UNL1        0.0000
     41 C          61.5709   93.3346   -1.0232 C.ar    1  UNL1        0.0000
     42 C          62.4299   93.8458   -2.0009 C.ar    1  UNL1        0.0000
     43 C          63.8132   93.7286   -1.8496 C.ar    1  UNL1        0.0000
     44 C          64.3410   93.0992   -0.7201 C.ar    1  UNL1        0.0000
     45 C          63.4868   92.5853    0.2605 C.ar    1  UNL1        0.0000
@<TRIPOS>BOND
     1    30    31    1
     2    31    32   ar
     3    32    26    1
     4    26    27    2
     5    26    28   am
     6    28     1    1
     7     1     2   ar
     8     2     3   ar
     9     3     4   ar
    10     4     7    1
    11     7     8    1
    12     8     9    1
    13     9    10    1
    14    10    13    1
    15    13    14    1
    16    14    15    1
    17    15    16   ar
    18    16    17   ar
    19    17    18   ar
    20    18    19    1
    21    18    20   ar
    22    20    22    1
    23    22    23    2
    24    22    24    1
    25    20    21   ar
    26    10    11    1
    27    11    12    1
    28     4     5   ar
    29     5     6   ar
    30    32    33   ar
    31    33    34   ar
    32    34    35   ar
    33    35    36   ar
    34    36    37   ar
    35    37    40    1
    36    40    41   ar
    37    41    42   ar
    38    42    43   ar
    39    43    44   ar
    40    44    45   ar
    41    37    38   ar
    42    38    39   ar
    43    39    31   ar
    44     6     1   ar
    45    39    34   ar
    46    12     7    1
    47    45    40   ar
    48    21    15   ar
    49    28    29    1
    50    24    25    1
