@<TRIPOS>MOLECULE
*****
 50 55 0 0 0
SMALL
GASTEIGER

@<TRIPOS>ATOM
      1 O          10.1945   74.5206   28.4177 O.2     1  UNL1       -0.2700
      2 C           9.4636   75.4759   28.0393 C.2     1  UNL1        0.2488
      3 N           8.0439   75.4316   28.2587 N.am    1  UNL1       -0.2945
      4 H           7.4553   76.2031   27.8692 H       1  UNL1        0.1501
      5 C          10.0790   76.6460   27.3783 C.ar    1  UNL1        0.0862
      6 C          10.3019   77.8222   28.1171 C.ar    1  UNL1        0.1461
      7 F           9.9903   77.8813   29.4373 F       1  UNL1       -0.2040
      8 C          10.8881   78.9373   27.5141 C.ar    1  UNL1        0.0443
      9 C          11.2647   78.9062   26.1617 C.ar    1  UNL1        0.0506
     10 C          11.0467   77.7303   25.4254 C.ar    1  UNL1        0.0206
     11 C          10.4602   76.6069   26.0192 C.ar    1  UNL1        0.0378
     12 I          10.1179   74.9243   24.7683 I       1  UNL1       -0.0423
     13 N          11.8750   80.0593   25.5398 N.pl3   1  UNL1       -0.3040
     14 C          13.2266   79.9653   24.9701 C.3     1  UNL1        0.1123
     15 C          13.9614   81.3049   25.0906 C.3     1  UNL1        0.1136
     16 N          13.1424   82.4268   24.6009 N.pl3   1  UNL1       -0.2897
     17 C          11.7156   82.2164   24.3169 C.3     1  UNL1        0.1136
     18 C          11.0897   81.2912   25.3648 C.3     1  UNL1        0.1123
     19 C          13.7582   83.6916   24.2679 C.ar    1  UNL1        0.1318
     20 C          13.7893   84.7560   25.1860 C.ar    1  UNL1        0.0343
     21 C          14.3938   85.9616   24.8266 C.ar    1  UNL1        0.0083
     22 C          14.9496   86.1212   23.5489 C.ar    1  UNL1        0.0906
     23 C          14.9187   85.0295   22.6685 C.ar    1  UNL1        0.1041
     24 N          14.3269   83.8643   23.0414 N.ar    1  UNL1       -0.2292
     25 C          15.6490   87.4008   23.1668 C.3     1  UNL1        0.4200
     26 F          14.7475   88.4492   23.1024 F       1  UNL1       -0.1658
     27 F          16.6129   87.6928   24.1135 F       1  UNL1       -0.1658
     28 F          16.2557   87.2747   21.9291 F       1  UNL1       -0.1658
     29 C           7.3628   74.2746   28.8533 C.3     1  UNL1        0.1535
     30 C           7.3389   74.3901   30.3622 C.2     1  UNL1        0.2443
     31 O           7.8123   73.4560   31.0645 O.2     1  UNL1       -0.2730
     32 N           6.9096   75.5953   31.0172 N.am    1  UNL1       -0.2825
     33 H           7.2940   75.7971   31.9677 H       1  UNL1        0.1549
     34 C           6.0906   76.5966   30.3986 C.ar    1  UNL1        0.0535
     35 C           4.6963   76.5790   30.5472 C.ar    1  UNL1        0.0353
     36 C           3.9286   77.5765   29.9415 C.ar    1  UNL1        0.1002
     37 N           4.5338   78.5662   29.2322 N.ar    1  UNL1       -0.2422
     38 C           5.8856   78.6199   29.0949 C.ar    1  UNL1        0.1002
     39 C           6.6894   77.6412   29.6850 C.ar    1  UNL1        0.0353
     40 C           5.9273   74.1766   28.3138 C.3     1  UNL1        0.0569
     41 C           5.8736   74.5479   26.8610 C.ar    1  UNL1       -0.0017
     42 C           6.5357   73.9117   25.8155 C.ar    1  UNL1        0.0681
     43 N           6.1734   74.4529   24.6299 N.ar    1  UNL1       -0.3523
     44 C           5.2769   75.4128   24.9177 C.ar    1  UNL1        0.0563
     45 C           4.5889   76.2247   24.0171 C.ar    1  UNL1        0.0170
     46 C           3.6630   77.1474   24.5384 C.ar    1  UNL1        0.0015
     47 C           3.4456   77.2341   25.9318 C.ar    1  UNL1        0.0001
     48 C           4.1522   76.3997   26.8162 C.ar    1  UNL1        0.0012
     49 C           5.0657   75.4982   26.2696 C.ar    1  UNL1        0.0131
     50 H           6.5044   74.1620   23.6832 H       1  UNL1        0.1660
@<TRIPOS>BOND
     1     1     2    2
     2     2     3   am
     3     3    29    1
     4    29    40    1
     5    40    41    1
     6    41    42   ar
     7    42    43   ar
     8    43    44   ar
     9    44    45   ar
    10    45    46   ar
    11    46    47   ar
    12    47    48   ar
    13    48    49   ar
    14    29    30    1
    15    30    31    2
    16    30    32   am
    17    32    34    1
    18    34    35   ar
    19    35    36   ar
    20    36    37   ar
    21    37    38   ar
    22    38    39   ar
    23     2     5    1
    24     5     6   ar
    25     6     7    1
    26     6     8   ar
    27     8     9   ar
    28     9    13    1
    29    13    14    1
    30    14    15    1
    31    15    16    1
    32    16    19    1
    33    19    20   ar
    34    20    21   ar
    35    21    22   ar
    36    22    25    1
    37    25    26    1
    38    25    27    1
    39    25    28    1
    40    22    23   ar
    41    23    24   ar
    42    16    17    1
    43    17    18    1
    44     9    10   ar
    45    10    11   ar
    46    11    12    1
    47    49    41   ar
    48    39    34   ar
    49    11     5   ar
    50    49    44   ar
    51    18    13    1
    52    24    19   ar
    53     3     4    1
    54    43    50    1
    55    32    33    1
@<TRIPOS>MOLECULE
*****
 50 55 0 0 0
SMALL
GASTEIGER

@<TRIPOS>ATOM
      1 O          11.2939   74.6573   25.0681 O.2     1  UNL1       -0.2700
      2 C          10.7801   75.6975   24.5741 C.2     1  UNL1        0.2488
      3 N          11.4219   76.9722   24.7440 N.am    1  UNL1       -0.2945
      4 H          10.9358   77.8263   24.3870 H       1  UNL1        0.1501
      5 C           9.5191   75.5945   23.8099 C.ar    1  UNL1        0.0862
      6 C           8.4627   76.4794   24.0924 C.ar    1  UNL1        0.1461
      7 F           8.6022   77.4478   25.0338 F       1  UNL1       -0.2040
      8 C           7.2650   76.4039   23.3779 C.ar    1  UNL1        0.0443
      9 C           7.0922   75.4450   22.3667 C.ar    1  UNL1        0.0506
     10 C           8.1487   74.5647   22.0814 C.ar    1  UNL1        0.0206
     11 C           9.3533   74.6312   22.7907 C.ar    1  UNL1        0.0378
     12 I          10.8362   73.1884   22.3084 I       1  UNL1       -0.0423
     13 N           5.8539   75.3705   21.6254 N.pl3   1  UNL1       -0.3040
     14 C           4.8616   76.4498   21.7301 C.3     1  UNL1        0.1123
     15 C           3.4404   75.8984   21.5721 C.3     1  UNL1        0.1136
     16 N           3.3152   75.0334   20.3868 N.pl3   1  UNL1       -0.2897
     17 C           4.5243   74.5954   19.6746 C.3     1  UNL1        0.1136
     18 C           5.6456   74.2736   20.6671 C.3     1  UNL1        0.1123
     19 C           2.0129   74.7261   19.8394 C.ar    1  UNL1        0.1318
     20 C           1.2733   75.6848   19.1248 C.ar    1  UNL1        0.0343
     21 C           0.0196   75.3490   18.6117 C.ar    1  UNL1        0.0083
     22 C          -0.5124   74.0690   18.8245 C.ar    1  UNL1        0.0906
     23 C           0.2645   73.1330   19.5232 C.ar    1  UNL1        0.1041
     24 N           1.4840   73.4819   20.0114 N.ar    1  UNL1       -0.2292
     25 C          -1.8430   73.6789   18.2328 C.3     1  UNL1        0.4200
     26 F          -2.0011   74.2379   16.9765 F       1  UNL1       -0.1658
     27 F          -1.9069   72.3023   18.1248 F       1  UNL1       -0.1658
     28 F          -2.8817   74.1172   19.0358 F       1  UNL1       -0.1658
     29 C          12.6415   77.1530   25.5416 C.3     1  UNL1        0.1535
     30 C          13.6537   77.9841   24.7832 C.2     1  UNL1        0.2443
     31 O          14.8437   77.5785   24.6870 O.2     1  UNL1       -0.2730
     32 N          13.2659   79.1616   24.0559 N.am    1  UNL1       -0.2825
     33 H          13.8518   79.4445   23.2381 H       1  UNL1        0.1549
     34 C          12.0593   79.8959   24.3024 C.ar    1  UNL1        0.0535
     35 C          12.0510   80.9965   25.1715 C.ar    1  UNL1        0.0353
     36 C          10.8610   81.6976   25.3802 C.ar    1  UNL1        0.1002
     37 N           9.7274   81.3257   24.7280 N.ar    1  UNL1       -0.2422
     38 C           9.7153   80.2783   23.8609 C.ar    1  UNL1        0.1002
     39 C          10.8845   79.5508   23.6245 C.ar    1  UNL1        0.0353
     40 C          12.2996   77.8348   26.8756 C.3     1  UNL1        0.0569
     41 C          11.0869   77.2113   27.5016 C.ar    1  UNL1       -0.0017
     42 C          11.0020   75.9418   28.0649 C.ar    1  UNL1        0.0681
     43 N           9.7849   75.7554   28.6250 N.ar    1  UNL1       -0.3523
     44 C           9.1084   76.9016   28.4343 C.ar    1  UNL1        0.0563
     45 C           7.8192   77.2051   28.8700 C.ar    1  UNL1        0.0170
     46 C           7.3150   78.4883   28.5881 C.ar    1  UNL1        0.0015
     47 C           8.1029   79.4295   27.8883 C.ar    1  UNL1        0.0001
     48 C           9.4015   79.0960   27.4638 C.ar    1  UNL1        0.0012
     49 C           9.8718   77.8154   27.7549 C.ar    1  UNL1        0.0131
     50 H           9.4524   74.9024   29.1274 H       1  UNL1        0.1660
@<TRIPOS>BOND
     1     1     2    2
     2     2     3   am
     3     3    29    1
     4    29    40    1
     5    40    41    1
     6    41    42   ar
     7    42    43   ar
     8    43    44   ar
     9    44    45   ar
    10    45    46   ar
    11    46    47   ar
    12    47    48   ar
    13    48    49   ar
    14    29    30    1
    15    30    31    2
    16    30    32   am
    17    32    34    1
    18    34    35   ar
    19    35    36   ar
    20    36    37   ar
    21    37    38   ar
    22    38    39   ar
    23     2     5    1
    24     5     6   ar
    25     6     7    1
    26     6     8   ar
    27     8     9   ar
    28     9    13    1
    29    13    14    1
    30    14    15    1
    31    15    16    1
    32    16    19    1
    33    19    20   ar
    34    20    21   ar
    35    21    22   ar
    36    22    25    1
    37    25    26    1
    38    25    27    1
    39    25    28    1
    40    22    23   ar
    41    23    24   ar
    42    16    17    1
    43    17    18    1
    44     9    10   ar
    45    10    11   ar
    46    11    12    1
    47    49    41   ar
    48    39    34   ar
    49    11     5   ar
    50    49    44   ar
    51    18    13    1
    52    24    19   ar
    53     3     4    1
    54    43    50    1
    55    32    33    1
@<TRIPOS>MOLECULE
*****
 50 55 0 0 0
SMALL
GASTEIGER

@<TRIPOS>ATOM
      1 O          10.4076   76.6404   26.4786 O.2     1  UNL1       -0.2700
      2 C           9.2798   77.2035   26.5072 C.2     1  UNL1        0.2488
      3 N           8.9940   78.2004   27.5022 N.am    1  UNL1       -0.2945
      4 H           8.0273   78.5966   27.5472 H       1  UNL1        0.1501
      5 C           8.2581   76.8387   25.5034 C.ar    1  UNL1        0.0862
      6 C           6.9164   77.2052   25.7145 C.ar    1  UNL1        0.1461
      7 F           6.5572   77.9198   26.8116 F       1  UNL1       -0.2040
      8 C           5.9360   76.8764   24.7757 C.ar    1  UNL1        0.0443
      9 C           6.2696   76.1745   23.6061 C.ar    1  UNL1        0.0506
     10 C           7.6098   75.8129   23.3930 C.ar    1  UNL1        0.0206
     11 C           8.6007   76.1372   24.3266 C.ar    1  UNL1        0.0378
     12 I          10.5715   75.4600   23.9142 I       1  UNL1       -0.0423
     13 N           5.2548   75.8384   22.6335 N.pl3   1  UNL1       -0.3040
     14 C           4.4715   76.8987   21.9834 C.3     1  UNL1        0.1123
     15 C           3.0572   76.4068   21.6568 C.3     1  UNL1        0.1136
     16 N           3.0740   75.1104   20.9581 N.pl3   1  UNL1       -0.2897
     17 C           4.3238   74.3403   20.8833 C.3     1  UNL1        0.1136
     18 C           5.0966   74.4407   22.2019 C.3     1  UNL1        0.1123
     19 C           1.9104   74.6564   20.2302 C.ar    1  UNL1        0.1318
     20 C           1.2380   75.4965   19.3253 C.ar    1  UNL1        0.0343
     21 C           0.1182   75.0207   18.6414 C.ar    1  UNL1        0.0083
     22 C          -0.3495   73.7184   18.8693 C.ar    1  UNL1        0.0906
     23 C           0.3607   72.9029   19.7629 C.ar    1  UNL1        0.1041
     24 N           1.4501   73.3871   20.4155 N.ar    1  UNL1       -0.2292
     25 C          -1.5274   73.1765   18.1001 C.3     1  UNL1        0.4200
     26 F          -1.5063   73.6297   16.7924 F       1  UNL1       -0.1658
     27 F          -1.4738   71.7953   18.0992 F       1  UNL1       -0.1658
     28 F          -2.7172   73.5816   18.6798 F       1  UNL1       -0.1658
     29 C           9.9410   78.5650   28.5636 C.3     1  UNL1        0.1535
     30 C          10.0677   80.0694   28.6685 C.2     1  UNL1        0.2443
     31 O           9.8194   80.6390   29.7657 O.2     1  UNL1       -0.2730
     32 N          10.5910   80.8570   27.5861 N.am    1  UNL1       -0.2825
     33 H          11.0526   81.7644   27.8220 H       1  UNL1        0.1549
     34 C          10.6332   80.4182   26.2216 C.ar    1  UNL1        0.0535
     35 C           9.5799   80.7032   25.3407 C.ar    1  UNL1        0.0353
     36 C           9.6582   80.2715   24.0145 C.ar    1  UNL1        0.1002
     37 N          10.7573   79.5993   23.5802 N.ar    1  UNL1       -0.2422
     38 C          11.8028   79.3329   24.4079 C.ar    1  UNL1        0.1002
     39 C          11.7639   79.7473   25.7417 C.ar    1  UNL1        0.0353
     40 C           9.4721   77.9849   29.9070 C.3     1  UNL1        0.0569
     41 C           8.0284   77.5810   29.8425 C.ar    1  UNL1       -0.0017
     42 C           6.9245   78.4161   29.9843 C.ar    1  UNL1        0.0681
     43 N           5.7813   77.7270   29.7653 N.ar    1  UNL1       -0.3523
     44 C           6.1557   76.4697   29.4706 C.ar    1  UNL1        0.0563
     45 C           5.3297   75.3989   29.1317 C.ar    1  UNL1        0.0170
     46 C           5.9404   74.1689   28.8246 C.ar    1  UNL1        0.0015
     47 C           7.3469   74.0394   28.8593 C.ar    1  UNL1        0.0001
     48 C           8.1552   75.1381   29.2018 C.ar    1  UNL1        0.0012
     49 C           7.5203   76.3427   29.5045 C.ar    1  UNL1        0.0131
     50 H           4.8085   78.1057   29.7930 H       1  UNL1        0.1660
@<TRIPOS>BOND
     1     1     2    2
     2     2     3   am
     3     3    29    1
     4    29    40    1
     5    40    41    1
     6    41    42   ar
     7    42    43   ar
     8    43    44   ar
     9    44    45   ar
    10    45    46   ar
    11    46    47   ar
    12    47    48   ar
    13    48    49   ar
    14    29    30    1
    15    30    31    2
    16    30    32   am
    17    32    34    1
    18    34    35   ar
    19    35    36   ar
    20    36    37   ar
    21    37    38   ar
    22    38    39   ar
    23     2     5    1
    24     5     6   ar
    25     6     7    1
    26     6     8   ar
    27     8     9   ar
    28     9    13    1
    29    13    14    1
    30    14    15    1
    31    15    16    1
    32    16    19    1
    33    19    20   ar
    34    20    21   ar
    35    21    22   ar
    36    22    25    1
    37    25    26    1
    38    25    27    1
    39    25    28    1
    40    22    23   ar
    41    23    24   ar
    42    16    17    1
    43    17    18    1
    44     9    10   ar
    45    10    11   ar
    46    11    12    1
    47    49    41   ar
    48    39    34   ar
    49    11     5   ar
    50    49    44   ar
    51    18    13    1
    52    24    19   ar
    53     3     4    1
    54    43    50    1
    55    32    33    1
@<TRIPOS>MOLECULE
*****
 50 55 0 0 0
SMALL
GASTEIGER

@<TRIPOS>ATOM
      1 O           8.5090   74.6234   24.9354 O.2     1  UNL1       -0.2700
      2 C           8.2299   75.6487   25.6143 C.2     1  UNL1        0.2488
      3 N           7.0892   75.6491   26.4885 N.am    1  UNL1       -0.2945
      4 H           6.8402   76.5365   26.9824 H       1  UNL1        0.1501
      5 C           9.0906   76.8460   25.5124 C.ar    1  UNL1        0.0862
      6 C           8.8935   77.7540   24.4562 C.ar    1  UNL1        0.1461
      7 F           7.8998   77.5602   23.5514 F       1  UNL1       -0.2040
      8 C           9.6910   78.8952   24.3447 C.ar    1  UNL1        0.0443
      9 C          10.7031   79.1572   25.2822 C.ar    1  UNL1        0.0506
     10 C          10.8966   78.2533   26.3395 C.ar    1  UNL1        0.0206
     11 C          10.1035   77.1066   26.4612 C.ar    1  UNL1        0.0378
     12 I          10.5573   75.7870   28.0629 I       1  UNL1       -0.0423
     13 N          11.5251   80.3405   25.1681 N.pl3   1  UNL1       -0.3040
     14 C          11.0143   81.6434   25.6175 C.3     1  UNL1        0.1123
     15 C          11.5970   82.7779   24.7674 C.3     1  UNL1        0.1136
     16 N          13.0613   82.6772   24.6461 N.pl3   1  UNL1       -0.2897
     17 C          13.7454   81.4528   25.0862 C.3     1  UNL1        0.1136
     18 C          12.9208   80.2152   24.7198 C.3     1  UNL1        0.1123
     19 C          13.8412   83.8203   24.2279 C.ar    1  UNL1        0.1318
     20 C          13.9518   84.9669   25.0341 C.ar    1  UNL1        0.0343
     21 C          14.7146   86.0500   24.5948 C.ar    1  UNL1        0.0083
     22 C          15.3516   86.0067   23.3462 C.ar    1  UNL1        0.0906
     23 C          15.2361   84.8372   22.5801 C.ar    1  UNL1        0.1041
     24 N          14.4899   83.7940   23.0296 N.ar    1  UNL1       -0.2292
     25 C          16.2187   87.1496   22.8830 C.3     1  UNL1        0.4200
     26 F          17.4065   87.1799   23.5931 F       1  UNL1       -0.1658
     27 F          16.5010   86.9911   21.5392 F       1  UNL1       -0.1658
     28 F          15.5722   88.3594   23.0686 F       1  UNL1       -0.1658
     29 C           6.1600   74.5166   26.5906 C.3     1  UNL1        0.1535
     30 C           6.2822   73.8497   27.9437 C.2     1  UNL1        0.2443
     31 O           6.4886   72.6075   28.0078 O.2     1  UNL1       -0.2730
     32 N           6.3002   74.6151   29.1601 N.am    1  UNL1       -0.2825
     33 H           6.7958   74.2079   29.9851 H       1  UNL1        0.1549
     34 C           5.7935   75.9516   29.2748 C.ar    1  UNL1        0.0535
     35 C           4.4505   76.1869   29.6025 C.ar    1  UNL1        0.0353
     36 C           3.9921   77.5013   29.7182 C.ar    1  UNL1        0.1002
     37 N           4.8492   78.5408   29.5345 N.ar    1  UNL1       -0.2422
     38 C           6.1616   78.3388   29.2413 C.ar    1  UNL1        0.1002
     39 C           6.6598   77.0394   29.1165 C.ar    1  UNL1        0.0353
     40 C           4.7176   75.0003   26.3746 C.3     1  UNL1        0.0569
     41 C           4.5839   75.7215   25.0656 C.ar    1  UNL1       -0.0017
     42 C           5.2179   75.3983   23.8699 C.ar    1  UNL1        0.0681
     43 N           4.7828   76.2030   22.8735 N.ar    1  UNL1       -0.3523
     44 C           3.8685   77.0189   23.4268 C.ar    1  UNL1        0.0563
     45 C           3.1122   77.9993   22.7861 C.ar    1  UNL1        0.0170
     46 C           2.1806   78.7193   23.5569 C.ar    1  UNL1        0.0015
     47 C           2.0254   78.4438   24.9339 C.ar    1  UNL1        0.0001
     48 C           2.8002   77.4466   25.5526 C.ar    1  UNL1        0.0012
     49 C           3.7175   76.7528   24.7632 C.ar    1  UNL1        0.0131
     50 H           5.0793   76.1740   21.8726 H       1  UNL1        0.1660
@<TRIPOS>BOND
     1     1     2    2
     2     2     3   am
     3     3    29    1
     4    29    40    1
     5    40    41    1
     6    41    42   ar
     7    42    43   ar
     8    43    44   ar
     9    44    45   ar
    10    45    46   ar
    11    46    47   ar
    12    47    48   ar
    13    48    49   ar
    14    29    30    1
    15    30    31    2
    16    30    32   am
    17    32    34    1
    18    34    35   ar
    19    35    36   ar
    20    36    37   ar
    21    37    38   ar
    22    38    39   ar
    23     2     5    1
    24     5     6   ar
    25     6     7    1
    26     6     8   ar
    27     8     9   ar
    28     9    13    1
    29    13    14    1
    30    14    15    1
    31    15    16    1
    32    16    19    1
    33    19    20   ar
    34    20    21   ar
    35    21    22   ar
    36    22    25    1
    37    25    26    1
    38    25    27    1
    39    25    28    1
    40    22    23   ar
    41    23    24   ar
    42    16    17    1
    43    17    18    1
    44     9    10   ar
    45    10    11   ar
    46    11    12    1
    47    49    41   ar
    48    39    34   ar
    49    11     5   ar
    50    49    44   ar
    51    18    13    1
    52    24    19   ar
    53     3     4    1
    54    43    50    1
    55    32    33    1
@<TRIPOS>MOLECULE
*****
 50 55 0 0 0
SMALL
GASTEIGER

@<TRIPOS>ATOM
      1 O           8.5679   74.4668   27.7519 O.2     1  UNL1       -0.2700
      2 C           8.1461   75.6527   27.8277 C.2     1  UNL1        0.2488
      3 N           6.9012   75.9371   28.4871 N.am    1  UNL1       -0.2945
      4 H           6.5412   76.9187   28.4703 H       1  UNL1        0.1501
      5 C           8.9465   76.7491   27.2429 C.ar    1  UNL1        0.0862
      6 C           8.2977   77.7929   26.5586 C.ar    1  UNL1        0.1461
      7 F           6.9438   77.8215   26.4605 F       1  UNL1       -0.2040
      8 C           9.0342   78.8421   26.0041 C.ar    1  UNL1        0.0443
      9 C          10.4335   78.8748   26.1180 C.ar    1  UNL1        0.0506
     10 C          11.0808   77.8352   26.8055 C.ar    1  UNL1        0.0206
     11 C          10.3531   76.7789   27.3652 C.ar    1  UNL1        0.0378
     12 I          11.4667   75.2351   28.3082 I       1  UNL1       -0.0423
     13 N          11.1942   79.9631   25.5474 N.pl3   1  UNL1       -0.3040
     14 C          12.5728   79.7423   25.0879 C.3     1  UNL1        0.1123
     15 C          13.4148   81.0104   25.2672 C.3     1  UNL1        0.1136
     16 N          12.7434   82.1985   24.7136 N.pl3   1  UNL1       -0.2897
     17 C          11.3307   82.1169   24.3159 C.3     1  UNL1        0.1136
     18 C          10.5412   81.2600   25.3101 C.3     1  UNL1        0.1123
     19 C          13.4969   83.3996   24.4313 C.ar    1  UNL1        0.1318
     20 C          13.6513   84.4116   25.3951 C.ar    1  UNL1        0.0343
     21 C          14.3867   85.5563   25.0839 C.ar    1  UNL1        0.0083
     22 C          14.9521   85.7094   23.8097 C.ar    1  UNL1        0.0906
     23 C          14.7949   84.6687   22.8823 C.ar    1  UNL1        0.1041
     24 N          14.0768   83.5620   23.2087 N.ar    1  UNL1       -0.2292
     25 C          15.7900   86.9180   23.4782 C.3     1  UNL1        0.4200
     26 F          14.9847   87.9967   23.1561 F       1  UNL1       -0.1658
     27 F          16.5673   87.2470   24.5729 F       1  UNL1       -0.1658
     28 F          16.6171   86.6576   22.3994 F       1  UNL1       -0.1658
     29 C           6.0294   74.8901   29.0348 C.3     1  UNL1        0.1535
     30 C           4.9807   75.4939   29.9437 C.2     1  UNL1        0.2443
     31 O           3.9040   74.8709   30.1501 O.2     1  UNL1       -0.2730
     32 N           5.2320   76.6997   30.6844 N.am    1  UNL1       -0.2825
     33 H           4.7061   76.8429   31.5760 H       1  UNL1        0.1549
     34 C           6.2474   77.6534   30.3442 C.ar    1  UNL1        0.0535
     35 C           6.0095   78.6463   29.3829 C.ar    1  UNL1        0.0353
     36 C           7.0161   79.5675   29.0837 C.ar    1  UNL1        0.1002
     37 N           8.2075   79.5113   29.7366 N.ar    1  UNL1       -0.2422
     38 C           8.4535   78.5743   30.6909 C.ar    1  UNL1        0.1002
     39 C           7.4732   77.6345   31.0194 C.ar    1  UNL1        0.0353
     40 C           5.3497   74.1217   27.8907 C.3     1  UNL1        0.0569
     41 C           5.0517   75.0320   26.7358 C.ar    1  UNL1       -0.0017
     42 C           4.2189   76.1467   26.7493 C.ar    1  UNL1        0.0681
     43 N           4.2686   76.7864   25.5585 N.ar    1  UNL1       -0.3523
     44 C           5.1375   76.0945   24.8008 C.ar    1  UNL1        0.0563
     45 C           5.5487   76.3903   23.5019 C.ar    1  UNL1        0.0170
     46 C           6.5010   75.5435   22.9048 C.ar    1  UNL1        0.0015
     47 C           7.0174   74.4351   23.6127 C.ar    1  UNL1        0.0001
     48 C           6.5861   74.1632   24.9233 C.ar    1  UNL1        0.0012
     49 C           5.6388   75.0184   25.4865 C.ar    1  UNL1        0.0131
     50 H           3.7556   77.6570   25.2952 H       1  UNL1        0.1660
@<TRIPOS>BOND
     1     1     2    2
     2     2     3   am
     3     3    29    1
     4    29    40    1
     5    40    41    1
     6    41    42   ar
     7    42    43   ar
     8    43    44   ar
     9    44    45   ar
    10    45    46   ar
    11    46    47   ar
    12    47    48   ar
    13    48    49   ar
    14    29    30    1
    15    30    31    2
    16    30    32   am
    17    32    34    1
    18    34    35   ar
    19    35    36   ar
    20    36    37   ar
    21    37    38   ar
    22    38    39   ar
    23     2     5    1
    24     5     6   ar
    25     6     7    1
    26     6     8   ar
    27     8     9   ar
    28     9    13    1
    29    13    14    1
    30    14    15    1
    31    15    16    1
    32    16    19    1
    33    19    20   ar
    34    20    21   ar
    35    21    22   ar
    36    22    25    1
    37    25    26    1
    38    25    27    1
    39    25    28    1
    40    22    23   ar
    41    23    24   ar
    42    16    17    1
    43    17    18    1
    44     9    10   ar
    45    10    11   ar
    46    11    12    1
    47    49    41   ar
    48    39    34   ar
    49    11     5   ar
    50    49    44   ar
    51    18    13    1
    52    24    19   ar
    53     3     4    1
    54    43    50    1
    55    32    33    1
@<TRIPOS>MOLECULE
*****
 50 55 0 0 0
SMALL
GASTEIGER

@<TRIPOS>ATOM
      1 O           9.5354   74.8986   26.5575 O.2     1  UNL1       -0.2700
      2 C           9.2562   75.6762   25.6050 C.2     1  UNL1        0.2488
      3 N           8.2450   75.3157   24.6494 N.am    1  UNL1       -0.2945
      4 H           8.0867   75.9457   23.8299 H       1  UNL1        0.1501
      5 C           9.9688   76.9656   25.4848 C.ar    1  UNL1        0.0862
      6 C          11.1528   77.0358   24.7284 C.ar    1  UNL1        0.1461
      7 F          11.6274   75.9413   24.0801 F       1  UNL1       -0.2040
      8 C          11.8384   78.2454   24.5962 C.ar    1  UNL1        0.0443
      9 C          11.3607   79.4120   25.2149 C.ar    1  UNL1        0.0506
     10 C          10.1760   79.3429   25.9660 C.ar    1  UNL1        0.0206
     11 C           9.4806   78.1364   26.1053 C.ar    1  UNL1        0.0378
     12 I           7.7473   78.1597   27.3334 I       1  UNL1       -0.0423
     13 N          12.0688   80.6639   25.0740 N.pl3   1  UNL1       -0.3040
     14 C          11.3509   81.9399   25.2047 C.3     1  UNL1        0.1123
     15 C          11.9844   83.0134   24.3129 C.3     1  UNL1        0.1136
     16 N          13.4445   83.0849   24.4918 N.pl3   1  UNL1       -0.2897
     17 C          14.1381   82.0290   25.2434 C.3     1  UNL1        0.1136
     18 C          13.5327   80.6581   24.9270 C.3     1  UNL1        0.1123
     19 C          14.1790   84.2508   24.0546 C.ar    1  UNL1        0.1318
     20 C          14.2816   85.3977   24.8614 C.ar    1  UNL1        0.0343
     21 C          15.0001   86.5031   24.4035 C.ar    1  UNL1        0.0083
     22 C          15.6002   86.4814   23.1362 C.ar    1  UNL1        0.0906
     23 C          15.4945   85.3114   22.3695 C.ar    1  UNL1        0.1041
     24 N          14.7918   84.2462   22.8373 N.ar    1  UNL1       -0.2292
     25 C          16.4205   87.6496   22.6514 C.3     1  UNL1        0.4200
     26 F          16.7971   87.4675   21.3320 F       1  UNL1       -0.1658
     27 F          15.6689   88.8055   22.7500 F       1  UNL1       -0.1658
     28 F          17.5673   87.7908   23.4136 F       1  UNL1       -0.1658
     29 C           7.5437   74.0259   24.6759 C.3     1  UNL1        0.1535
     30 C           6.1452   74.1932   25.2297 C.2     1  UNL1        0.2443
     31 O           5.8319   73.6220   26.3093 O.2     1  UNL1       -0.2730
     32 N           5.2005   75.0931   24.6268 N.am    1  UNL1       -0.2825
     33 H           4.4548   75.4979   25.2368 H       1  UNL1        0.1549
     34 C           5.2934   75.5677   23.2769 C.ar    1  UNL1        0.0535
     35 C           4.8206   74.7936   22.2074 C.ar    1  UNL1        0.0353
     36 C           4.9151   75.2908   20.9054 C.ar    1  UNL1        0.1002
     37 N           5.4426   76.5242   20.6834 N.ar    1  UNL1       -0.2422
     38 C           5.8845   77.3046   21.7056 C.ar    1  UNL1        0.1002
     39 C           5.8079   76.8442   23.0225 C.ar    1  UNL1        0.0353
     40 C           7.4776   73.4354   23.2589 C.3     1  UNL1        0.0569
     41 C           8.6395   73.8982   22.4300 C.ar    1  UNL1       -0.0017
     42 C           8.7115   75.0675   21.6791 C.ar    1  UNL1        0.0681
     43 N           9.9463   75.2093   21.1453 N.ar    1  UNL1       -0.3523
     44 C          10.6575   74.1488   21.5664 C.ar    1  UNL1        0.0563
     45 C          11.9994   73.8736   21.3071 C.ar    1  UNL1        0.0170
     46 C          12.5560   72.7156   21.8811 C.ar    1  UNL1        0.0015
     47 C          11.7687   71.8704   22.6949 C.ar    1  UNL1        0.0001
     48 C          10.4182   72.1752   22.9416 C.ar    1  UNL1        0.0012
     49 C           9.8944   73.3277   22.3557 C.ar    1  UNL1        0.0131
     50 H          10.2827   75.9986   20.5501 H       1  UNL1        0.1660
@<TRIPOS>BOND
     1     1     2    2
     2     2     3   am
     3     3    29    1
     4    29    40    1
     5    40    41    1
     6    41    42   ar
     7    42    43   ar
     8    43    44   ar
     9    44    45   ar
    10    45    46   ar
    11    46    47   ar
    12    47    48   ar
    13    48    49   ar
    14    29    30    1
    15    30    31    2
    16    30    32   am
    17    32    34    1
    18    34    35   ar
    19    35    36   ar
    20    36    37   ar
    21    37    38   ar
    22    38    39   ar
    23     2     5    1
    24     5     6   ar
    25     6     7    1
    26     6     8   ar
    27     8     9   ar
    28     9    13    1
    29    13    14    1
    30    14    15    1
    31    15    16    1
    32    16    19    1
    33    19    20   ar
    34    20    21   ar
    35    21    22   ar
    36    22    25    1
    37    25    26    1
    38    25    27    1
    39    25    28    1
    40    22    23   ar
    41    23    24   ar
    42    16    17    1
    43    17    18    1
    44     9    10   ar
    45    10    11   ar
    46    11    12    1
    47    49    41   ar
    48    39    34   ar
    49    11     5   ar
    50    49    44   ar
    51    18    13    1
    52    24    19   ar
    53     3     4    1
    54    43    50    1
    55    32    33    1
@<TRIPOS>MOLECULE
*****
 50 55 0 0 0
SMALL
GASTEIGER

@<TRIPOS>ATOM
      1 O           7.8882   74.9741   24.3329 O.2     1  UNL1       -0.2700
      2 C           8.1398   75.6401   25.3737 C.2     1  UNL1        0.2488
      3 N           7.5982   75.2334   26.6413 N.am    1  UNL1       -0.2945
      4 H           7.7631   75.8454   27.4730 H       1  UNL1        0.1501
      5 C           9.0042   76.8355   25.2821 C.ar    1  UNL1        0.0862
      6 C           8.5484   78.0623   25.7980 C.ar    1  UNL1        0.1461
      7 F           7.3394   78.1511   26.4094 F       1  UNL1       -0.2040
      8 C           9.3517   79.2027   25.7279 C.ar    1  UNL1        0.0443
      9 C          10.6265   79.1471   25.1417 C.ar    1  UNL1        0.0506
     10 C          11.0836   77.9212   24.6311 C.ar    1  UNL1        0.0206
     11 C          10.2874   76.7721   24.6959 C.ar    1  UNL1        0.0378
     12 I          11.0721   75.0055   23.8147 I       1  UNL1       -0.0423
     13 N          11.4584   80.3269   25.0734 N.pl3   1  UNL1       -0.3040
     14 C          10.9462   81.6228   25.5413 C.3     1  UNL1        0.1123
     15 C          11.5551   82.7723   24.7308 C.3     1  UNL1        0.1136
     16 N          13.0210   82.6642   24.6399 N.pl3   1  UNL1       -0.2897
     17 C          13.6872   81.4253   25.0666 C.3     1  UNL1        0.1136
     18 C          12.8630   80.2023   24.6535 C.3     1  UNL1        0.1123
     19 C          13.8175   83.8113   24.2656 C.ar    1  UNL1        0.1318
     20 C          13.9206   84.9365   25.1022 C.ar    1  UNL1        0.0343
     21 C          14.7000   86.0241   24.7051 C.ar    1  UNL1        0.0083
     22 C          15.3612   86.0068   23.4685 C.ar    1  UNL1        0.0906
     23 C          15.2521   84.8577   22.6714 C.ar    1  UNL1        0.1041
     24 N          14.4895   83.8095   23.0799 N.ar    1  UNL1       -0.2292
     25 C          16.2457   87.1540   23.0511 C.3     1  UNL1        0.4200
     26 F          16.4553   87.1358   21.6830 F       1  UNL1       -0.1658
     27 F          15.6385   88.3464   23.3980 F       1  UNL1       -0.1658
     28 F          17.4767   87.0751   23.6790 F       1  UNL1       -0.1658
     29 C           6.6849   74.0935   26.7917 C.3     1  UNL1        0.1535
     30 C           6.7811   73.5165   28.1875 C.2     1  UNL1        0.2443
     31 O           5.9631   72.6282   28.5504 O.2     1  UNL1       -0.2730
     32 N           7.8629   73.8590   29.0696 N.am    1  UNL1       -0.2825
     33 H           8.1342   73.1639   29.8013 H       1  UNL1        0.1549
     34 C           8.6727   75.0338   28.9277 C.ar    1  UNL1        0.0535
     35 C           8.2076   76.2851   29.3572 C.ar    1  UNL1        0.0353
     36 C           9.0268   77.4077   29.2154 C.ar    1  UNL1        0.1002
     37 N          10.2720   77.2802   28.6844 N.ar    1  UNL1       -0.2422
     38 C          10.7558   76.0740   28.2841 C.ar    1  UNL1        0.1002
     39 C           9.9680   74.9267   28.4085 C.ar    1  UNL1        0.0353
     40 C           5.2414   74.5367   26.5075 C.3     1  UNL1        0.0569
     41 C           4.9709   75.8915   27.0930 C.ar    1  UNL1       -0.0017
     42 C           4.7738   77.0763   26.3904 C.ar    1  UNL1        0.0681
     43 N           4.4534   78.0796   27.2393 N.ar    1  UNL1       -0.3523
     44 C           4.4307   77.5341   28.4680 C.ar    1  UNL1        0.0563
     45 C           4.1119   78.1672   29.6685 C.ar    1  UNL1        0.0170
     46 C           4.1172   77.3914   30.8426 C.ar    1  UNL1        0.0015
     47 C           4.4337   76.0155   30.7903 C.ar    1  UNL1        0.0001
     48 C           4.7483   75.4031   29.5641 C.ar    1  UNL1        0.0012
     49 C           4.7383   76.1990   28.4185 C.ar    1  UNL1        0.0131
     50 H           4.2403   79.0695   26.9843 H       1  UNL1        0.1660
@<TRIPOS>BOND
     1     1     2    2
     2     2     3   am
     3     3    29    1
     4    29    40    1
     5    40    41    1
     6    41    42   ar
     7    42    43   ar
     8    43    44   ar
     9    44    45   ar
    10    45    46   ar
    11    46    47   ar
    12    47    48   ar
    13    48    49   ar
    14    29    30    1
    15    30    31    2
    16    30    32   am
    17    32    34    1
    18    34    35   ar
    19    35    36   ar
    20    36    37   ar
    21    37    38   ar
    22    38    39   ar
    23     2     5    1
    24     5     6   ar
    25     6     7    1
    26     6     8   ar
    27     8     9   ar
    28     9    13    1
    29    13    14    1
    30    14    15    1
    31    15    16    1
    32    16    19    1
    33    19    20   ar
    34    20    21   ar
    35    21    22   ar
    36    22    25    1
    37    25    26    1
    38    25    27    1
    39    25    28    1
    40    22    23   ar
    41    23    24   ar
    42    16    17    1
    43    17    18    1
    44     9    10   ar
    45    10    11   ar
    46    11    12    1
    47    49    41   ar
    48    39    34   ar
    49    11     5   ar
    50    49    44   ar
    51    18    13    1
    52    24    19   ar
    53     3     4    1
    54    43    50    1
    55    32    33    1
@<TRIPOS>MOLECULE
*****
 50 55 0 0 0
SMALL
GASTEIGER

@<TRIPOS>ATOM
      1 O           8.7353   74.6402   25.1988 O.2     1  UNL1       -0.2700
      2 C           8.3631   75.7192   25.7346 C.2     1  UNL1        0.2488
      3 N           7.1498   75.7642   26.5037 N.am    1  UNL1       -0.2945
      4 H           6.8286   76.6878   26.8740 H       1  UNL1        0.1501
      5 C           9.1892   76.9344   25.5749 C.ar    1  UNL1        0.0862
      6 C           9.8425   77.4811   26.6944 C.ar    1  UNL1        0.1461
      7 F           9.7504   76.8847   27.9107 F       1  UNL1       -0.2040
      8 C          10.6333   78.6249   26.5647 C.ar    1  UNL1        0.0443
      9 C          10.7907   79.2505   25.3174 C.ar    1  UNL1        0.0506
     10 C          10.1424   78.7019   24.1987 C.ar    1  UNL1        0.0206
     11 C           9.3476   77.5560   24.3168 C.ar    1  UNL1        0.0378
     12 I           8.3635   76.8810   22.5594 I       1  UNL1       -0.0423
     13 N          11.6125   80.4317   25.1836 N.pl3   1  UNL1       -0.3040
     14 C          11.1122   81.7375   25.6365 C.3     1  UNL1        0.1123
     15 C          11.6816   82.8672   24.7713 C.3     1  UNL1        0.1136
     16 N          13.1433   82.7633   24.6243 N.pl3   1  UNL1       -0.2897
     17 C          13.8330   81.5396   25.0573 C.3     1  UNL1        0.1136
     18 C          12.9998   80.3020   24.7110 C.3     1  UNL1        0.1123
     19 C          13.9176   83.9033   24.1873 C.ar    1  UNL1        0.1318
     20 C          13.9930   85.0771   24.9577 C.ar    1  UNL1        0.0343
     21 C          14.7516   86.1560   24.5013 C.ar    1  UNL1        0.0083
     22 C          15.4194   86.0811   23.2704 C.ar    1  UNL1        0.0906
     23 C          15.3384   84.8857   22.5408 C.ar    1  UNL1        0.1041
     24 N          14.5957   83.8471   23.0064 N.ar    1  UNL1       -0.2292
     25 C          16.2820   87.2206   22.7906 C.3     1  UNL1        0.4200
     26 F          17.4706   87.2646   23.4987 F       1  UNL1       -0.1658
     27 F          16.5633   87.0447   21.4487 F       1  UNL1       -0.1658
     28 F          15.6316   88.4305   22.9606 F       1  UNL1       -0.1658
     29 C           6.2534   74.6105   26.6506 C.3     1  UNL1        0.1535
     30 C           6.4292   73.9713   28.0111 C.2     1  UNL1        0.2443
     31 O           6.6912   72.7404   28.0902 O.2     1  UNL1       -0.2730
     32 N           6.4353   74.7559   29.2152 N.am    1  UNL1       -0.2825
     33 H           6.9632   74.3840   30.0369 H       1  UNL1        0.1549
     34 C           5.8725   76.0707   29.3191 C.ar    1  UNL1        0.0535
     35 C           6.6454   77.2084   29.0456 C.ar    1  UNL1        0.0353
     36 C           6.0628   78.4742   29.1445 C.ar    1  UNL1        0.1002
     37 N           4.7515   78.5965   29.4829 N.ar    1  UNL1       -0.2422
     38 C           3.9744   77.5079   29.7280 C.ar    1  UNL1        0.1002
     39 C           4.5189   76.2241   29.6400 C.ar    1  UNL1        0.0353
     40 C           4.7936   75.0535   26.4659 C.3     1  UNL1        0.0569
     41 C           4.5992   75.7191   25.1353 C.ar    1  UNL1       -0.0017
     42 C           5.1793   75.3463   23.9266 C.ar    1  UNL1        0.0681
     43 N           4.6977   76.1083   22.9181 N.ar    1  UNL1       -0.3523
     44 C           3.8074   76.9463   23.4776 C.ar    1  UNL1        0.0563
     45 C           3.0206   77.8986   22.8313 C.ar    1  UNL1        0.0170
     46 C           2.1232   78.6499   23.6127 C.ar    1  UNL1        0.0015
     47 C           2.0310   78.4324   25.0056 C.ar    1  UNL1        0.0001
     48 C           2.8354   77.4623   25.6298 C.ar    1  UNL1        0.0012
     49 C           3.7176   76.7364   24.8294 C.ar    1  UNL1        0.0131
     50 H           4.9486   76.0375   21.9069 H       1  UNL1        0.1660
@<TRIPOS>BOND
     1     1     2    2
     2     2     3   am
     3     3    29    1
     4    29    40    1
     5    40    41    1
     6    41    42   ar
     7    42    43   ar
     8    43    44   ar
     9    44    45   ar
    10    45    46   ar
    11    46    47   ar
    12    47    48   ar
    13    48    49   ar
    14    29    30    1
    15    30    31    2
    16    30    32   am
    17    32    34    1
    18    34    35   ar
    19    35    36   ar
    20    36    37   ar
    21    37    38   ar
    22    38    39   ar
    23     2     5    1
    24     5     6   ar
    25     6     7    1
    26     6     8   ar
    27     8     9   ar
    28     9    13    1
    29    13    14    1
    30    14    15    1
    31    15    16    1
    32    16    19    1
    33    19    20   ar
    34    20    21   ar
    35    21    22   ar
    36    22    25    1
    37    25    26    1
    38    25    27    1
    39    25    28    1
    40    22    23   ar
    41    23    24   ar
    42    16    17    1
    43    17    18    1
    44     9    10   ar
    45    10    11   ar
    46    11    12    1
    47    49    41   ar
    48    39    34   ar
    49    11     5   ar
    50    49    44   ar
    51    18    13    1
    52    24    19   ar
    53     3     4    1
    54    43    50    1
    55    32    33    1
@<TRIPOS>MOLECULE
*****
 50 55 0 0 0
SMALL
GASTEIGER

@<TRIPOS>ATOM
      1 O          10.7574   76.7471   25.2151 O.2     1  UNL1       -0.2700
      2 C           9.9118   77.5768   24.7832 C.2     1  UNL1        0.2488
      3 N          10.0539   78.9758   25.0803 N.am    1  UNL1       -0.2945
      4 H           9.2989   79.6300   24.7712 H       1  UNL1        0.1501
      5 C           8.7798   77.1014   23.9603 C.ar    1  UNL1        0.0862
      6 C           7.4655   77.2401   24.4423 C.ar    1  UNL1        0.1461
      7 F           7.2248   77.8370   25.6379 F       1  UNL1       -0.2040
      8 C           6.3808   76.8037   23.6783 C.ar    1  UNL1        0.0443
      9 C           6.5807   76.2187   22.4175 C.ar    1  UNL1        0.0506
     10 C           7.8926   76.0847   21.9341 C.ar    1  UNL1        0.0206
     11 C           8.9870   76.5185   22.6908 C.ar    1  UNL1        0.0378
     12 I          10.9182   76.1826   21.8720 I       1  UNL1       -0.0423
     13 N           5.4573   75.7713   21.6260 N.pl3   1  UNL1       -0.3040
     14 C           5.0340   76.5338   20.4429 C.3     1  UNL1        0.1123
     15 C           3.5201   76.4169   20.2343 C.3     1  UNL1        0.1136
     16 N           3.0652   75.0171   20.2839 N.pl3   1  UNL1       -0.2897
     17 C           3.9820   73.9703   20.7578 C.3     1  UNL1        0.1136
     18 C           4.8195   74.4816   21.9338 C.3     1  UNL1        0.1123
     19 C           1.7767   74.6469   19.7428 C.ar    1  UNL1        0.1318
     20 C           1.2599   73.3491   19.9029 C.ar    1  UNL1        0.0343
     21 C           0.0116   73.0310   19.3658 C.ar    1  UNL1        0.0083
     22 C          -0.7171   73.9926   18.6510 C.ar    1  UNL1        0.0906
     23 C          -0.1786   75.2824   18.5312 C.ar    1  UNL1        0.1041
     24 N           1.0379   75.5699   19.0648 N.ar    1  UNL1       -0.2292
     25 C          -2.0879   73.6758   18.1095 C.3     1  UNL1        0.4200
     26 F          -2.3388   72.3165   18.1814 F       1  UNL1       -0.1658
     27 F          -3.0380   74.3493   18.8539 F       1  UNL1       -0.1658
     28 F          -2.1921   74.0660   16.7855 F       1  UNL1       -0.1658
     29 C          11.1190   79.5060   25.9408 C.3     1  UNL1        0.1535
     30 C          11.7603   80.7205   25.3050 C.2     1  UNL1        0.2443
     31 O          11.0982   81.7882   25.1973 O.2     1  UNL1       -0.2730
     32 N          13.1498   80.7312   24.9376 N.am    1  UNL1       -0.2825
     33 H          13.6415   81.6531   24.9164 H       1  UNL1        0.1549
     34 C          13.9324   79.5489   24.7238 C.ar    1  UNL1        0.0535
     35 C          13.3905   78.4362   24.0644 C.ar    1  UNL1        0.0353
     36 C          14.1840   77.3046   23.8616 C.ar    1  UNL1        0.1002
     37 N          15.4768   77.2942   24.2829 N.ar    1  UNL1       -0.2422
     38 C          16.0332   78.3696   24.9017 C.ar    1  UNL1        0.1002
     39 C          15.2733   79.5209   25.1239 C.ar    1  UNL1        0.0353
     40 C          10.5454   79.8780   27.3169 C.3     1  UNL1        0.0569
     41 C           9.9383   78.6804   27.9867 C.ar    1  UNL1       -0.0017
     42 C          10.6054   77.5300   28.3964 C.ar    1  UNL1        0.0681
     43 N           9.7601   76.7046   29.0550 N.ar    1  UNL1       -0.3523
     44 C           8.5710   77.3318   29.0786 C.ar    1  UNL1        0.0563
     45 C           7.3941   76.8906   29.6820 C.ar    1  UNL1        0.0170
     46 C           6.2661   77.7292   29.6141 C.ar    1  UNL1        0.0015
     47 C           6.3400   78.9769   28.9553 C.ar    1  UNL1        0.0001
     48 C           7.5419   79.3971   28.3582 C.ar    1  UNL1        0.0012
     49 C           8.6414   78.5424   28.4391 C.ar    1  UNL1        0.0131
     50 H           9.9948   75.7808   29.4817 H       1  UNL1        0.1660
@<TRIPOS>BOND
     1     1     2    2
     2     2     3   am
     3     3    29    1
     4    29    40    1
     5    40    41    1
     6    41    42   ar
     7    42    43   ar
     8    43    44   ar
     9    44    45   ar
    10    45    46   ar
    11    46    47   ar
    12    47    48   ar
    13    48    49   ar
    14    29    30    1
    15    30    31    2
    16    30    32   am
    17    32    34    1
    18    34    35   ar
    19    35    36   ar
    20    36    37   ar
    21    37    38   ar
    22    38    39   ar
    23     2     5    1
    24     5     6   ar
    25     6     7    1
    26     6     8   ar
    27     8     9   ar
    28     9    13    1
    29    13    14    1
    30    14    15    1
    31    15    16    1
    32    16    19    1
    33    19    20   ar
    34    20    21   ar
    35    21    22   ar
    36    22    25    1
    37    25    26    1
    38    25    27    1
    39    25    28    1
    40    22    23   ar
    41    23    24   ar
    42    16    17    1
    43    17    18    1
    44     9    10   ar
    45    10    11   ar
    46    11    12    1
    47    49    41   ar
    48    39    34   ar
    49    11     5   ar
    50    49    44   ar
    51    18    13    1
    52    24    19   ar
    53     3     4    1
    54    43    50    1
    55    32    33    1
