@<TRIPOS>MOLECULE
*****
 37 41 0 0 0
SMALL
GASTEIGER

@<TRIPOS>ATOM
      1 C          48.9245   12.8670  -25.7135 C.2     1  UNL1        0.2490
      2 O          48.6970   11.9255  -26.5218 O.2     1  UNL1       -0.2699
      3 N          49.4328   12.5629  -24.3997 N.am    1  UNL1       -0.2760
      4 C          50.2485   11.3556  -24.2090 C.3     1  UNL1        0.0954
      5 C          50.9871   11.4037  -22.8661 C.3     1  UNL1        0.0399
      6 C          50.0228   11.5827  -21.6548 C.3     1  UNL1        0.0645
      7 C          48.7756   12.4438  -22.0360 C.3     1  UNL1        0.0399
      8 C          49.0329   13.3639  -23.2323 C.3     1  UNL1        0.0954
      9 C          50.8175   12.2878  -20.4987 C.3     1  UNL1        0.0477
     10 C          50.1241   12.1103  -19.1823 C.ar    1  UNL1        0.0220
     11 C          50.2587   12.7909  -17.9948 C.ar    1  UNL1        0.0923
     12 N          49.5439   12.1265  -17.0518 N.ar    1  UNL1       -0.2534
     13 N          48.9980   11.0387  -17.5891 N.ar    1  UNL1       -0.1651
     14 C          49.3520   11.0304  -18.8858 C.ar    1  UNL1        0.1515
     15 C          49.0612   10.0188  -19.8887 C.2     1  UNL1        0.2650
     16 O          48.4268    8.9705  -19.5983 O.2     1  UNL1       -0.2684
     17 N          49.5452   10.2457  -21.2218 N.am    1  UNL1       -0.3023
     18 H          49.3770    9.5035  -21.9385 H       1  UNL1        0.1497
     19 C          50.2248   17.6189  -25.8182 C.ar    1  UNL1        0.2248
     20 N          49.9999   18.8991  -26.2147 N.ar    1  UNL1       -0.2101
     21 C          48.9195   19.2412  -26.9550 C.ar    1  UNL1        0.1021
     22 C          47.9917   18.2743  -27.3360 C.ar    1  UNL1        0.0206
     23 C          48.1647   16.9273  -26.9551 C.ar    1  UNL1        0.0021
     24 C          47.2435   15.8896  -27.3083 C.ar    1  UNL1       -0.0222
     25 C          47.5193   14.5739  -26.8815 C.ar    1  UNL1        0.0002
     26 C          48.6634   14.2608  -26.1420 C.ar    1  UNL1        0.0534
     27 C          49.5451   15.2791  -25.7798 C.ar    1  UNL1        0.0091
     28 C          49.3152   16.6033  -26.1794 C.ar    1  UNL1        0.0531
     29 C          45.9576   16.0863  -28.1225 C.3     1  UNL1        0.0224
     30 C          44.7915   16.6359  -27.2881 C.3     1  UNL1        0.0047
     31 C          45.5775   14.8617  -28.9684 C.3     1  UNL1        0.0047
     32 C          52.2719   18.3036  -24.5957 C.3     1  UNL1        0.2542
     33 O          51.3585   17.3136  -25.0538 O.3     1  UNL1       -0.4561
     34 C          49.4432   12.4916  -15.6246 C.3     1  UNL1        0.0867
     35 C          48.5762   13.7568  -15.4730 C.3     1  UNL1        0.0244
     36 C          50.8530   12.7576  -15.0658 C.3     1  UNL1        0.0244
     37 C          48.7923   11.3484  -14.8163 C.3     1  UNL1        0.0244
@<TRIPOS>BOND
     1    32    33    1
     2    33    19    1
     3    19    20   ar
     4    20    21   ar
     5    21    22   ar
     6    22    23   ar
     7    23    24   ar
     8    24    29    1
     9    29    30    1
    10    29    31    1
    11    24    25   ar
    12    25    26   ar
    13    26     1    1
    14     1     2    2
    15     1     3   am
    16     3     4    1
    17     4     5    1
    18     5     6    1
    19     6     7    1
    20     7     8    1
    21     6     9    1
    22     9    10    1
    23    10    11   ar
    24    11    12   ar
    25    12    34    1
    26    34    35    1
    27    34    36    1
    28    34    37    1
    29    12    13   ar
    30    13    14   ar
    31    14    15    1
    32    15    16    2
    33    15    17   am
    34    26    27   ar
    35    27    28   ar
    36    28    19   ar
    37    28    23   ar
    38     8     3    1
    39    14    10   ar
    40    17     6    1
    41    17    18    1
@<TRIPOS>MOLECULE
*****
 37 41 0 0 0
SMALL
GASTEIGER

@<TRIPOS>ATOM
      1 C          48.8077   12.4757  -25.2609 C.2     1  UNL1        0.2490
      2 O          49.0658   11.5218  -26.0450 O.2     1  UNL1       -0.2699
      3 N          49.3723   12.4730  -23.9350 N.am    1  UNL1       -0.2760
      4 C          50.6556   11.7953  -23.7044 C.3     1  UNL1        0.0954
      5 C          51.2575   12.2121  -22.3571 C.3     1  UNL1        0.0399
      6 C          50.2976   11.9409  -21.1594 C.3     1  UNL1        0.0645
      7 C          48.8001   12.1064  -21.5747 C.3     1  UNL1        0.0399
      8 C          48.6192   13.0151  -22.7934 C.3     1  UNL1        0.0954
      9 C          50.6440   12.9600  -20.0162 C.3     1  UNL1        0.0477
     10 C          50.0886   12.5038  -18.7015 C.ar    1  UNL1        0.0220
     11 C          49.8634   13.1914  -17.5319 C.ar    1  UNL1        0.0923
     12 N          49.5256   12.2881  -16.5772 N.ar    1  UNL1       -0.2534
     13 N          49.5661   11.0608  -17.0892 N.ar    1  UNL1       -0.1651
     14 C          49.9088   11.1939  -18.3821 C.ar    1  UNL1        0.1515
     15 C          50.1481   10.1444  -19.3594 C.2     1  UNL1        0.2650
     16 O          50.0749    8.9270  -19.0459 O.2     1  UNL1       -0.2684
     17 N          50.4957   10.5454  -20.6941 N.am    1  UNL1       -0.3023
     18 H          50.7107    9.7970  -21.3916 H       1  UNL1        0.1497
     19 C          45.7181   14.3394  -28.6170 C.ar    1  UNL1        0.2248
     20 N          44.9033   15.3367  -29.0510 N.ar    1  UNL1       -0.2101
     21 C          44.7304   16.4794  -28.3462 C.ar    1  UNL1        0.1021
     22 C          45.3955   16.6686  -27.1367 C.ar    1  UNL1        0.0206
     23 C          46.2579   15.6735  -26.6311 C.ar    1  UNL1        0.0021
     24 C          46.9749   15.8115  -25.3994 C.ar    1  UNL1       -0.0222
     25 C          47.8042   14.7492  -24.9834 C.ar    1  UNL1        0.0002
     26 C          47.9309   13.5740  -25.7296 C.ar    1  UNL1        0.0534
     27 C          47.2492   13.4544  -26.9406 C.ar    1  UNL1        0.0091
     28 C          46.4127   14.4826  -27.3978 C.ar    1  UNL1        0.0531
     29 C          46.9224   17.0364  -24.4765 C.3     1  UNL1        0.0224
     30 C          47.7171   18.2346  -25.0159 C.3     1  UNL1        0.0047
     31 C          47.2354   16.7087  -23.0088 C.3     1  UNL1        0.0047
     32 C          45.6640   13.1433  -30.7895 C.3     1  UNL1        0.2542
     33 O          45.8637   13.1744  -29.3812 O.3     1  UNL1       -0.4561
     34 C          49.2361   12.5916  -15.1615 C.3     1  UNL1        0.0867
     35 C          48.5070   11.3981  -14.5139 C.3     1  UNL1        0.0244
     36 C          48.3501   13.8482  -15.0804 C.3     1  UNL1        0.0244
     37 C          50.5443   12.8509  -14.3834 C.3     1  UNL1        0.0244
@<TRIPOS>BOND
     1    32    33    1
     2    33    19    1
     3    19    20   ar
     4    20    21   ar
     5    21    22   ar
     6    22    23   ar
     7    23    24   ar
     8    24    29    1
     9    29    30    1
    10    29    31    1
    11    24    25   ar
    12    25    26   ar
    13    26     1    1
    14     1     2    2
    15     1     3   am
    16     3     4    1
    17     4     5    1
    18     5     6    1
    19     6     7    1
    20     7     8    1
    21     6     9    1
    22     9    10    1
    23    10    11   ar
    24    11    12   ar
    25    12    34    1
    26    34    35    1
    27    34    36    1
    28    34    37    1
    29    12    13   ar
    30    13    14   ar
    31    14    15    1
    32    15    16    2
    33    15    17   am
    34    26    27   ar
    35    27    28   ar
    36    28    19   ar
    37    28    23   ar
    38     8     3    1
    39    14    10   ar
    40    17     6    1
    41    17    18    1
@<TRIPOS>MOLECULE
*****
 37 41 0 0 0
SMALL
GASTEIGER

@<TRIPOS>ATOM
      1 C          47.1200   12.4088  -23.7569 C.2     1  UNL1        0.2490
      2 O          46.0961   11.7777  -24.1374 O.2     1  UNL1       -0.2699
      3 N          47.7983   11.9956  -22.5543 N.am    1  UNL1       -0.2760
      4 C          47.7375   10.5852  -22.1463 C.3     1  UNL1        0.0954
      5 C          48.7991   10.2794  -21.0830 C.3     1  UNL1        0.0399
      6 C          48.6748   11.1951  -19.8278 C.3     1  UNL1        0.0645
      7 C          48.1514   12.6186  -20.2048 C.3     1  UNL1        0.0399
      8 C          48.4275   12.9847  -21.6656 C.3     1  UNL1        0.0954
      9 C          50.0945   11.3127  -19.1673 C.3     1  UNL1        0.0477
     10 C          49.9922   11.7973  -17.7531 C.ar    1  UNL1        0.0220
     11 C          50.9387   12.3424  -16.9174 C.ar    1  UNL1        0.0923
     12 N          50.3922   12.4413  -15.6792 N.ar    1  UNL1       -0.2534
     13 N          49.1572   11.9470  -15.6953 N.ar    1  UNL1       -0.1651
     14 C          48.9152   11.5556  -16.9581 C.ar    1  UNL1        0.1515
     15 C          47.7312   10.8932  -17.4808 C.2     1  UNL1        0.2650
     16 O          46.7688   10.5819  -16.7309 O.2     1  UNL1       -0.2684
     17 N          47.7072   10.5832  -18.8831 N.am    1  UNL1       -0.3023
     18 H          46.8780   10.0691  -19.2584 H       1  UNL1        0.1497
     19 C          50.3176   16.0889  -24.4742 C.ar    1  UNL1        0.2248
     20 N          50.7689   17.1380  -25.2107 N.ar    1  UNL1       -0.2101
     21 C          50.1576   17.5275  -26.3539 C.ar    1  UNL1        0.1021
     22 C          49.0286   16.8532  -26.8142 C.ar    1  UNL1        0.0206
     23 C          48.5072   15.7572  -26.0953 C.ar    1  UNL1        0.0021
     24 C          47.3470   15.0289  -26.5117 C.ar    1  UNL1       -0.0222
     25 C          46.9172   13.9429  -25.7210 C.ar    1  UNL1        0.0002
     26 C          47.5965   13.5575  -24.5618 C.ar    1  UNL1        0.0534
     27 C          48.7121   14.2852  -24.1474 C.ar    1  UNL1        0.0091
     28 C          49.1787   15.3733  -24.8987 C.ar    1  UNL1        0.0531
     29 C          46.5125   15.3327  -27.7632 C.3     1  UNL1        0.0224
     30 C          45.3307   16.2739  -27.4885 C.3     1  UNL1        0.0047
     31 C          46.1195   14.0762  -28.5547 C.3     1  UNL1        0.0047
     32 C          51.6959   14.4979  -23.1619 C.3     1  UNL1        0.2542
     33 O          50.9852   15.7228  -23.2983 O.3     1  UNL1       -0.4561
     34 C          51.0750   12.9399  -14.4687 C.3     1  UNL1        0.0867
     35 C          51.3689   11.7633  -13.5174 C.3     1  UNL1        0.0244
     36 C          50.1729   13.9675  -13.7612 C.3     1  UNL1        0.0244
     37 C          52.4112   13.6189  -14.8398 C.3     1  UNL1        0.0244
@<TRIPOS>BOND
     1    32    33    1
     2    33    19    1
     3    19    20   ar
     4    20    21   ar
     5    21    22   ar
     6    22    23   ar
     7    23    24   ar
     8    24    29    1
     9    29    30    1
    10    29    31    1
    11    24    25   ar
    12    25    26   ar
    13    26     1    1
    14     1     2    2
    15     1     3   am
    16     3     4    1
    17     4     5    1
    18     5     6    1
    19     6     7    1
    20     7     8    1
    21     6     9    1
    22     9    10    1
    23    10    11   ar
    24    11    12   ar
    25    12    34    1
    26    34    35    1
    27    34    36    1
    28    34    37    1
    29    12    13   ar
    30    13    14   ar
    31    14    15    1
    32    15    16    2
    33    15    17   am
    34    26    27   ar
    35    27    28   ar
    36    28    19   ar
    37    28    23   ar
    38     8     3    1
    39    14    10   ar
    40    17     6    1
    41    17    18    1
@<TRIPOS>MOLECULE
*****
 37 41 0 0 0
SMALL
GASTEIGER

@<TRIPOS>ATOM
      1 C          52.1293    9.5852  -25.8481 C.2     1  UNL1        0.2490
      2 O          52.5193    8.7830  -24.9560 O.2     1  UNL1       -0.2699
      3 N          51.8520   10.9545  -25.4946 N.am    1  UNL1       -0.2760
      4 C          52.5735   11.5638  -24.3687 C.3     1  UNL1        0.0954
      5 C          52.4219   13.0895  -24.3862 C.3     1  UNL1        0.0399
      6 C          50.9320   13.5466  -24.3643 C.3     1  UNL1        0.0645
      7 C          50.0095   12.5342  -25.1169 C.3     1  UNL1        0.0399
      8 C          50.7664   11.6982  -26.1523 C.3     1  UNL1        0.0954
      9 C          50.8435   14.9545  -25.0540 C.3     1  UNL1        0.0477
     10 C          49.5640   15.6487  -24.6989 C.ar    1  UNL1        0.0220
     11 C          48.9207   16.7098  -25.2920 C.ar    1  UNL1        0.0923
     12 N          47.8968   17.0803  -24.4821 N.ar    1  UNL1       -0.2534
     13 N          47.8942   16.3211  -23.3896 N.ar    1  UNL1       -0.1651
     14 C          48.9093   15.4503  -23.5232 C.ar    1  UNL1        0.1515
     15 C          49.3655   14.4512  -22.5705 C.2     1  UNL1        0.2650
     16 O          48.8228   14.3257  -21.4412 O.2     1  UNL1       -0.2684
     17 N          50.4763   13.6253  -22.9538 N.am    1  UNL1       -0.3023
     18 H          50.8373   12.9336  -22.2582 H       1  UNL1        0.1497
     19 C          49.2281    8.2711  -29.6082 C.ar    1  UNL1        0.2248
     20 N          49.0710    7.8305  -30.8841 N.ar    1  UNL1       -0.2101
     21 C          50.1284    7.5464  -31.6801 C.ar    1  UNL1        0.1021
     22 C          51.4291    7.6988  -31.2047 C.ar    1  UNL1        0.0206
     23 C          51.6616    8.1499  -29.8886 C.ar    1  UNL1        0.0021
     24 C          52.9731    8.3194  -29.3397 C.ar    1  UNL1       -0.0222
     25 C          53.0902    8.7852  -28.0136 C.ar    1  UNL1        0.0002
     26 C          51.9700    9.0938  -27.2365 C.ar    1  UNL1        0.0534
     27 C          50.6942    8.9040  -27.7676 C.ar    1  UNL1        0.0091
     28 C          50.5250    8.4427  -29.0808 C.ar    1  UNL1        0.0531
     29 C          54.2866    8.0309  -30.0789 C.3     1  UNL1        0.0224
     30 C          54.8311    6.6193  -29.8164 C.3     1  UNL1        0.0047
     31 C          55.3415    9.1335  -29.9018 C.3     1  UNL1        0.0047
     32 C          47.2671    9.6830  -29.0473 C.3     1  UNL1        0.2542
     33 O          48.1026    8.5534  -28.8234 O.3     1  UNL1       -0.4561
     34 C          46.9689   18.2043  -24.7185 C.3     1  UNL1        0.0867
     35 C          47.7682   19.4636  -25.1069 C.3     1  UNL1        0.0244
     36 C          46.1607   18.4765  -23.4366 C.3     1  UNL1        0.0244
     37 C          45.9905   17.8687  -25.8649 C.3     1  UNL1        0.0244
@<TRIPOS>BOND
     1    32    33    1
     2    33    19    1
     3    19    20   ar
     4    20    21   ar
     5    21    22   ar
     6    22    23   ar
     7    23    24   ar
     8    24    29    1
     9    29    30    1
    10    29    31    1
    11    24    25   ar
    12    25    26   ar
    13    26     1    1
    14     1     2    2
    15     1     3   am
    16     3     4    1
    17     4     5    1
    18     5     6    1
    19     6     7    1
    20     7     8    1
    21     6     9    1
    22     9    10    1
    23    10    11   ar
    24    11    12   ar
    25    12    34    1
    26    34    35    1
    27    34    36    1
    28    34    37    1
    29    12    13   ar
    30    13    14   ar
    31    14    15    1
    32    15    16    2
    33    15    17   am
    34    26    27   ar
    35    27    28   ar
    36    28    19   ar
    37    28    23   ar
    38     8     3    1
    39    14    10   ar
    40    17     6    1
    41    17    18    1
@<TRIPOS>MOLECULE
*****
 37 41 0 0 0
SMALL
GASTEIGER

@<TRIPOS>ATOM
      1 C          51.8981    9.5790  -25.9248 C.2     1  UNL1        0.2490
      2 O          52.3728    8.7850  -25.0670 O.2     1  UNL1       -0.2699
      3 N          51.6668   10.9546  -25.5626 N.am    1  UNL1       -0.2760
      4 C          52.5036   11.5724  -24.5247 C.3     1  UNL1        0.0954
      5 C          52.3602   13.0989  -24.5464 C.3     1  UNL1        0.0399
      6 C          50.8831   13.5671  -24.3778 C.3     1  UNL1        0.0645
      7 C          49.8822   12.5522  -25.0185 C.3     1  UNL1        0.0399
      8 C          50.5238   11.6979  -26.1151 C.3     1  UNL1        0.0954
      9 C          50.7328   14.9669  -25.0731 C.3     1  UNL1        0.0477
     10 C          49.5006   15.6748  -24.5978 C.ar    1  UNL1        0.0220
     11 C          48.8063   16.7331  -25.1355 C.ar    1  UNL1        0.0923
     12 N          47.8731   17.1211  -24.2298 N.ar    1  UNL1       -0.2534
     13 N          47.9781   16.3755  -23.1330 N.ar    1  UNL1       -0.1651
     14 C          48.9690   15.4958  -23.3586 C.ar    1  UNL1        0.1515
     15 C          49.5146   14.5052  -22.4448 C.2     1  UNL1        0.2650
     16 O          49.0899   14.3976  -21.2642 O.2     1  UNL1       -0.2684
     17 N          50.5752   13.6666  -22.9292 N.am    1  UNL1       -0.3023
     18 H          51.0015   12.9809  -22.2653 H       1  UNL1        0.1497
     19 C          53.4205    7.7924  -30.2575 C.ar    1  UNL1        0.2248
     20 N          53.1519    7.3160  -31.5016 N.ar    1  UNL1       -0.2101
     21 C          51.8870    7.2129  -31.9724 C.ar    1  UNL1        0.1021
     22 C          50.8072    7.6005  -31.1819 C.ar    1  UNL1        0.0206
     23 C          51.0172    8.1060  -29.8819 C.ar    1  UNL1        0.0021
     24 C          49.9509    8.5276  -29.0245 C.ar    1  UNL1       -0.0222
     25 C          50.2743    9.0093  -27.7389 C.ar    1  UNL1        0.0002
     26 C          51.5942    9.0716  -27.2830 C.ar    1  UNL1        0.0534
     27 C          52.6311    8.6823  -28.1308 C.ar    1  UNL1        0.0091
     28 C          52.3615    8.1968  -29.4183 C.ar    1  UNL1        0.0531
     29 C          48.4602    8.5045  -29.3882 C.3     1  UNL1        0.0224
     30 C          48.2012    8.1335  -30.8557 C.3     1  UNL1        0.0047
     31 C          47.7016    9.7608  -28.9345 C.3     1  UNL1        0.0047
     32 C          55.6906    6.8290  -29.9891 C.3     1  UNL1        0.2542
     33 O          54.7466    7.8790  -29.8142 O.3     1  UNL1       -0.4561
     34 C          46.9326   18.2488  -24.3844 C.3     1  UNL1        0.0867
     35 C          47.7180   19.5431  -24.6733 C.3     1  UNL1        0.0244
     36 C          46.1171   18.4138  -23.0890 C.3     1  UNL1        0.0244
     37 C          45.9620   17.9894  -25.5569 C.3     1  UNL1        0.0244
@<TRIPOS>BOND
     1    32    33    1
     2    33    19    1
     3    19    20   ar
     4    20    21   ar
     5    21    22   ar
     6    22    23   ar
     7    23    24   ar
     8    24    29    1
     9    29    30    1
    10    29    31    1
    11    24    25   ar
    12    25    26   ar
    13    26     1    1
    14     1     2    2
    15     1     3   am
    16     3     4    1
    17     4     5    1
    18     5     6    1
    19     6     7    1
    20     7     8    1
    21     6     9    1
    22     9    10    1
    23    10    11   ar
    24    11    12   ar
    25    12    34    1
    26    34    35    1
    27    34    36    1
    28    34    37    1
    29    12    13   ar
    30    13    14   ar
    31    14    15    1
    32    15    16    2
    33    15    17   am
    34    26    27   ar
    35    27    28   ar
    36    28    19   ar
    37    28    23   ar
    38     8     3    1
    39    14    10   ar
    40    17     6    1
    41    17    18    1
@<TRIPOS>MOLECULE
*****
 37 41 0 0 0
SMALL
GASTEIGER

@<TRIPOS>ATOM
      1 C          51.8066   13.5242  -20.3772 C.2     1  UNL1        0.2490
      2 O          52.9486   13.9774  -20.0910 O.2     1  UNL1       -0.2699
      3 N          51.3445   13.5830  -21.7410 N.am    1  UNL1       -0.2760
      4 C          52.3280   13.5523  -22.8324 C.3     1  UNL1        0.0954
      5 C          51.6456   13.2521  -24.1723 C.3     1  UNL1        0.0399
      6 C          50.5146   14.2691  -24.5129 C.3     1  UNL1        0.0645
      7 C          49.7963   14.7823  -23.2233 C.3     1  UNL1        0.0399
      8 C          49.9237   13.8112  -22.0466 C.3     1  UNL1        0.0954
      9 C          49.4758   13.5494  -25.4447 C.3     1  UNL1        0.0477
     10 C          48.6126   14.5445  -26.1586 C.ar    1  UNL1        0.0220
     11 C          47.4045   14.3934  -26.7983 C.ar    1  UNL1        0.0923
     12 N          47.1287   15.5542  -27.4449 N.ar    1  UNL1       -0.2534
     13 N          48.1297   16.4125  -27.2685 N.ar    1  UNL1       -0.1651
     14 C          49.0319   15.7966  -26.4854 C.ar    1  UNL1        0.1515
     15 C          50.3308   16.2882  -26.0554 C.2     1  UNL1        0.2650
     16 O          50.7655   17.4086  -26.4313 O.2     1  UNL1       -0.2684
     17 N          51.1145   15.4383  -25.2030 N.am    1  UNL1       -0.3023
     18 H          52.0670   15.7663  -24.9240 H       1  UNL1        0.1497
     19 C          51.1381   12.4121  -15.6234 C.ar    1  UNL1        0.2248
     20 N          50.3777   11.8896  -14.6256 N.ar    1  UNL1       -0.2101
     21 C          49.1612   11.3445  -14.8614 C.ar    1  UNL1        0.1021
     22 C          48.6471   11.3020  -16.1555 C.ar    1  UNL1        0.0206
     23 C          49.3868   11.8248  -17.2368 C.ar    1  UNL1        0.0021
     24 C          48.9170   11.8040  -18.5892 C.ar    1  UNL1       -0.0222
     25 C          49.7357   12.3632  -19.5924 C.ar    1  UNL1        0.0002
     26 C          50.9739   12.9418  -19.2993 C.ar    1  UNL1        0.0534
     27 C          51.4377   12.9380  -17.9838 C.ar    1  UNL1        0.0091
     28 C          50.6614   12.3939  -16.9507 C.ar    1  UNL1        0.0531
     29 C          47.5786   11.2135  -19.0527 C.3     1  UNL1        0.0224
     30 C          47.6846   10.4384  -20.3741 C.3     1  UNL1        0.0047
     31 C          46.4244   12.2271  -19.0319 C.3     1  UNL1        0.0047
     32 C          52.6525   13.6965  -14.1366 C.3     1  UNL1        0.2542
     33 O          52.3906   12.9666  -15.3294 O.3     1  UNL1       -0.4561
     34 C          45.9454   15.8153  -28.2887 C.3     1  UNL1        0.0867
     35 C          44.7975   16.3615  -27.4173 C.3     1  UNL1        0.0244
     36 C          45.5046   14.5058  -28.9679 C.3     1  UNL1        0.0244
     37 C          46.2754   16.8577  -29.3789 C.3     1  UNL1        0.0244
@<TRIPOS>BOND
     1    32    33    1
     2    33    19    1
     3    19    20   ar
     4    20    21   ar
     5    21    22   ar
     6    22    23   ar
     7    23    24   ar
     8    24    29    1
     9    29    30    1
    10    29    31    1
    11    24    25   ar
    12    25    26   ar
    13    26     1    1
    14     1     2    2
    15     1     3   am
    16     3     4    1
    17     4     5    1
    18     5     6    1
    19     6     7    1
    20     7     8    1
    21     6     9    1
    22     9    10    1
    23    10    11   ar
    24    11    12   ar
    25    12    34    1
    26    34    35    1
    27    34    36    1
    28    34    37    1
    29    12    13   ar
    30    13    14   ar
    31    14    15    1
    32    15    16    2
    33    15    17   am
    34    26    27   ar
    35    27    28   ar
    36    28    19   ar
    37    28    23   ar
    38     8     3    1
    39    14    10   ar
    40    17     6    1
    41    17    18    1
@<TRIPOS>MOLECULE
*****
 37 41 0 0 0
SMALL
GASTEIGER

@<TRIPOS>ATOM
      1 C          48.7950   11.3708  -25.9085 C.2     1  UNL1        0.2490
      2 O          49.1024   10.3382  -26.5648 O.2     1  UNL1       -0.2699
      3 N          49.3308   11.5508  -24.5828 N.am    1  UNL1       -0.2760
      4 C          50.6314   10.9538  -24.2488 C.3     1  UNL1        0.0954
      5 C          51.1896   11.5539  -22.9529 C.3     1  UNL1        0.0399
      6 C          50.2141   11.3962  -21.7475 C.3     1  UNL1        0.0645
      7 C          48.7210   11.4548  -22.2054 C.3     1  UNL1        0.0399
      8 C          48.5353   12.2005  -23.5296 C.3     1  UNL1        0.0954
      9 C          50.5008   12.5595  -20.7325 C.3     1  UNL1        0.0477
     10 C          49.9333   12.2474  -19.3813 C.ar    1  UNL1        0.0220
     11 C          49.6597   13.0641  -18.3091 C.ar    1  UNL1        0.0923
     12 N          49.3326   12.2724  -17.2566 N.ar    1  UNL1       -0.2534
     13 N          49.4260   10.9941  -17.6131 N.ar    1  UNL1       -0.1651
     14 C          49.7916   10.9806  -18.9065 C.ar    1  UNL1        0.1515
     15 C          50.0876    9.8290  -19.7431 C.2     1  UNL1        0.2650
     16 O          50.0495    8.6572  -19.2837 O.2     1  UNL1       -0.2684
     17 N          50.4498   10.0762  -21.1108 N.am    1  UNL1       -0.3023
     18 H          50.7052    9.2566  -21.7072 H       1  UNL1        0.1497
     19 C          46.5919   15.7772  -25.7976 C.ar    1  UNL1        0.2248
     20 N          45.7729   16.7054  -26.3583 N.ar    1  UNL1       -0.2101
     21 C          45.1464   16.4896  -27.5387 C.ar    1  UNL1        0.1021
     22 C          45.3257   15.2890  -28.2223 C.ar    1  UNL1        0.0206
     23 C          46.1608   14.2826  -27.6938 C.ar    1  UNL1        0.0021
     24 C          46.3793   13.0257  -28.3439 C.ar    1  UNL1       -0.0222
     25 C          47.2423   12.0941  -27.7301 C.ar    1  UNL1        0.0002
     26 C          47.8914   12.3707  -26.5235 C.ar    1  UNL1        0.0534
     27 C          47.6564   13.5868  -25.8820 C.ar    1  UNL1        0.0091
     28 C          46.8067   14.5460  -26.4513 C.ar    1  UNL1        0.0531
     29 C          45.7438   12.5934  -29.6721 C.3     1  UNL1        0.0224
     30 C          46.3137   11.2746  -30.2144 C.3     1  UNL1        0.0047
     31 C          45.6990   13.7148  -30.7210 C.3     1  UNL1        0.0047
     32 C          46.7664   17.0560  -23.6792 C.3     1  UNL1        0.2542
     33 O          47.2193   16.0473  -24.5745 O.3     1  UNL1       -0.4561
     34 C          49.0026   12.7360  -15.8941 C.3     1  UNL1        0.0867
     35 C          50.2954   13.1294  -15.1529 C.3     1  UNL1        0.0244
     36 C          48.2887   11.6059  -15.1300 C.3     1  UNL1        0.0244
     37 C          48.0726   13.9672  -15.9499 C.3     1  UNL1        0.0244
@<TRIPOS>BOND
     1    32    33    1
     2    33    19    1
     3    19    20   ar
     4    20    21   ar
     5    21    22   ar
     6    22    23   ar
     7    23    24   ar
     8    24    29    1
     9    29    30    1
    10    29    31    1
    11    24    25   ar
    12    25    26   ar
    13    26     1    1
    14     1     2    2
    15     1     3   am
    16     3     4    1
    17     4     5    1
    18     5     6    1
    19     6     7    1
    20     7     8    1
    21     6     9    1
    22     9    10    1
    23    10    11   ar
    24    11    12   ar
    25    12    34    1
    26    34    35    1
    27    34    36    1
    28    34    37    1
    29    12    13   ar
    30    13    14   ar
    31    14    15    1
    32    15    16    2
    33    15    17   am
    34    26    27   ar
    35    27    28   ar
    36    28    19   ar
    37    28    23   ar
    38     8     3    1
    39    14    10   ar
    40    17     6    1
    41    17    18    1
@<TRIPOS>MOLECULE
*****
 37 41 0 0 0
SMALL
GASTEIGER

@<TRIPOS>ATOM
      1 C          50.1276    7.9829  -27.1317 C.2     1  UNL1        0.2490
      2 O          49.6357    7.0543  -26.4337 O.2     1  UNL1       -0.2699
      3 N          50.3127    9.2860  -26.5446 N.am    1  UNL1       -0.2760
      4 C          50.5435    9.3932  -25.0973 C.3     1  UNL1        0.0954
      5 C          51.0763   10.7839  -24.7323 C.3     1  UNL1        0.0399
      6 C          50.1318   11.9322  -25.2000 C.3     1  UNL1        0.0645
      7 C          49.3920   11.5630  -26.5262 C.3     1  UNL1        0.0399
      8 C          50.1365   10.5065  -27.3468 C.3     1  UNL1        0.0954
      9 C          51.0024   13.2199  -25.4223 C.3     1  UNL1        0.0477
     10 C          50.1477   14.4504  -25.4465 C.ar    1  UNL1        0.0220
     11 C          50.4057   15.7167  -25.9169 C.ar    1  UNL1        0.0923
     12 N          49.3787   16.5183  -25.5369 N.ar    1  UNL1       -0.2534
     13 N          48.5073   15.8168  -24.8169 N.ar    1  UNL1       -0.1651
     14 C          48.9767   14.5585  -24.7630 C.ar    1  UNL1        0.1515
     15 C          48.4219   13.4241  -24.0424 C.2     1  UNL1        0.2650
     16 O          47.3893   13.5401  -23.3311 O.2     1  UNL1       -0.2684
     17 N          49.1084   12.1672  -24.1509 N.am    1  UNL1       -0.3023
     18 H          48.7401   11.3573  -23.6022 H       1  UNL1        0.1497
     19 C          53.5769    7.0866  -30.5349 C.ar    1  UNL1        0.2248
     20 N          53.9311    6.8201  -31.8195 N.ar    1  UNL1       -0.2101
     21 C          53.0142    6.7207  -32.8103 C.ar    1  UNL1        0.1021
     22 C          51.6592    6.8934  -32.5363 C.ar    1  UNL1        0.0206
     23 C          51.2248    7.1750  -31.2241 C.ar    1  UNL1        0.0021
     24 C          49.8487    7.3703  -30.8803 C.ar    1  UNL1       -0.0222
     25 C          49.5252    7.6382  -29.5339 C.ar    1  UNL1        0.0002
     26 C          50.5030    7.7038  -28.5373 C.ar    1  UNL1        0.0534
     27 C          51.8444    7.5366  -28.8814 C.ar    1  UNL1        0.0091
     28 C          52.2174    7.2687  -30.2062 C.ar    1  UNL1        0.0531
     29 C          48.6734    7.3162  -31.8656 C.3     1  UNL1        0.0224
     30 C          47.4136    8.0225  -31.3439 C.3     1  UNL1        0.0047
     31 C          48.3996    5.9069  -32.4122 C.3     1  UNL1        0.0047
     32 C          55.9418    6.9422  -29.8001 C.3     1  UNL1        0.2542
     33 O          54.5625    7.1786  -29.5435 O.3     1  UNL1       -0.4561
     34 C          49.2680   17.9670  -25.7999 C.3     1  UNL1        0.0867
     35 C          48.9222   18.1997  -27.2838 C.3     1  UNL1        0.0244
     36 C          50.6066   18.6498  -25.4649 C.3     1  UNL1        0.0244
     37 C          48.1558   18.5931  -24.9309 C.3     1  UNL1        0.0244
@<TRIPOS>BOND
     1    32    33    1
     2    33    19    1
     3    19    20   ar
     4    20    21   ar
     5    21    22   ar
     6    22    23   ar
     7    23    24   ar
     8    24    29    1
     9    29    30    1
    10    29    31    1
    11    24    25   ar
    12    25    26   ar
    13    26     1    1
    14     1     2    2
    15     1     3   am
    16     3     4    1
    17     4     5    1
    18     5     6    1
    19     6     7    1
    20     7     8    1
    21     6     9    1
    22     9    10    1
    23    10    11   ar
    24    11    12   ar
    25    12    34    1
    26    34    35    1
    27    34    36    1
    28    34    37    1
    29    12    13   ar
    30    13    14   ar
    31    14    15    1
    32    15    16    2
    33    15    17   am
    34    26    27   ar
    35    27    28   ar
    36    28    19   ar
    37    28    23   ar
    38     8     3    1
    39    14    10   ar
    40    17     6    1
    41    17    18    1
@<TRIPOS>MOLECULE
*****
 37 41 0 0 0
SMALL
GASTEIGER

@<TRIPOS>ATOM
      1 C          51.9446   10.6038  -27.1630 C.2     1  UNL1        0.2490
      2 O          53.1982   10.6642  -27.2905 O.2     1  UNL1       -0.2699
      3 N          51.3094   11.3134  -26.0813 N.am    1  UNL1       -0.2760
      4 C          51.9398   12.5329  -25.5570 C.3     1  UNL1        0.0954
      5 C          50.9534   13.3276  -24.6929 C.3     1  UNL1        0.0399
      6 C          50.3733   12.4880  -23.5148 C.3     1  UNL1        0.0645
      7 C          50.2324   10.9798  -23.8993 C.3     1  UNL1        0.0399
      8 C          50.1228   10.7603  -25.4105 C.3     1  UNL1        0.0954
      9 C          48.9634   13.0728  -23.1469 C.3     1  UNL1        0.0477
     10 C          48.5341   12.6258  -21.7827 C.ar    1  UNL1        0.0220
     11 C          47.2941   12.6131  -21.1881 C.ar    1  UNL1        0.0923
     12 N          47.4634   12.2906  -19.8808 N.ar    1  UNL1       -0.2534
     13 N          48.7595   12.1375  -19.6227 N.ar    1  UNL1       -0.1651
     14 C          49.4097   12.3417  -20.7812 C.ar    1  UNL1        0.1515
     15 C          50.8447   12.3509  -21.0150 C.2     1  UNL1        0.2650
     16 O          51.6638   12.1817  -20.0738 O.2     1  UNL1       -0.2684
     17 N          51.2981   12.5845  -22.3577 N.am    1  UNL1       -0.3023
     18 H          52.3285   12.6348  -22.5266 H       1  UNL1        0.1497
     19 C          51.7546    7.2462  -30.7648 C.ar    1  UNL1        0.2248
     20 N          51.0443    6.5006  -31.6516 N.ar    1  UNL1       -0.2101
     21 C          49.6976    6.5941  -31.7505 C.ar    1  UNL1        0.1021
     22 C          48.9904    7.4732  -30.9333 C.ar    1  UNL1        0.0206
     23 C          49.6676    8.2779  -29.9932 C.ar    1  UNL1        0.0021
     24 C          48.9991    9.2052  -29.1312 C.ar    1  UNL1       -0.0222
     25 C          49.7743    9.9539  -28.2213 C.ar    1  UNL1        0.0002
     26 C          51.1613    9.8043  -28.1334 C.ar    1  UNL1        0.0534
     27 C          51.8105    8.9172  -28.9920 C.ar    1  UNL1        0.0091
     28 C          51.0845    8.1502  -29.9144 C.ar    1  UNL1        0.0531
     29 C          47.4866    9.4637  -29.1113 C.3     1  UNL1        0.0224
     30 C          46.9232    9.8638  -30.4826 C.3     1  UNL1        0.0047
     31 C          47.0416   10.3960  -27.9743 C.3     1  UNL1        0.0047
     32 C          53.9188    6.5267  -31.7404 C.3     1  UNL1        0.2542
     33 O          53.1476    7.1132  -30.6986 O.3     1  UNL1       -0.4561
     34 C          46.3949   12.2007  -18.8657 C.3     1  UNL1        0.0867
     35 C          46.3728   13.4895  -18.0207 C.3     1  UNL1        0.0244
     36 C          46.6570   10.9869  -17.9556 C.3     1  UNL1        0.0244
     37 C          45.0169   12.0310  -19.5414 C.3     1  UNL1        0.0244
@<TRIPOS>BOND
     1    32    33    1
     2    33    19    1
     3    19    20   ar
     4    20    21   ar
     5    21    22   ar
     6    22    23   ar
     7    23    24   ar
     8    24    29    1
     9    29    30    1
    10    29    31    1
    11    24    25   ar
    12    25    26   ar
    13    26     1    1
    14     1     2    2
    15     1     3   am
    16     3     4    1
    17     4     5    1
    18     5     6    1
    19     6     7    1
    20     7     8    1
    21     6     9    1
    22     9    10    1
    23    10    11   ar
    24    11    12   ar
    25    12    34    1
    26    34    35    1
    27    34    36    1
    28    34    37    1
    29    12    13   ar
    30    13    14   ar
    31    14    15    1
    32    15    16    2
    33    15    17   am
    34    26    27   ar
    35    27    28   ar
    36    28    19   ar
    37    28    23   ar
    38     8     3    1
    39    14    10   ar
    40    17     6    1
    41    17    18    1
