@<TRIPOS>MOLECULE
*****
 43 47 0 0 0
SMALL
GASTEIGER

@<TRIPOS>ATOM
      1 C          -5.9427  -11.5091   29.5183 C.3     1  UNL1        0.1562
      2 C          -4.9481  -10.3499   29.3838 C.3     1  UNL1        0.0622
      3 C          -5.7377   -9.0340   29.6280 C.3     1  UNL1        0.1294
      4 O          -5.6450   -8.2137   28.4833 O.3     1  UNL1       -0.3808
      5 C          -7.2118   -9.4521   29.7975 C.3     1  UNL1        0.1264
      6 N          -7.2382  -10.9045   29.7877 N.am    1  UNL1       -0.2544
      7 C          -8.4029  -11.6731   30.1436 C.2     1  UNL1        0.3081
      8 O          -8.3065  -12.9240   30.2739 O.2     1  UNL1       -0.2522
      9 N          -9.6782  -11.0312   30.3136 N.am    1  UNL1       -0.2681
     10 H          -4.6816   -8.0522   28.3005 H       1  UNL1        0.2107
     11 H          -9.8321  -10.1083   29.8498 H       1  UNL1        0.1564
     12 C          -5.2468   -8.2913   30.8846 C.ar    1  UNL1        0.0310
     13 C          -4.7540   -6.9691   30.8032 C.ar    1  UNL1        0.0026
     14 C          -4.3270   -6.2920   31.9487 C.ar    1  UNL1        0.0295
     15 C          -4.3969   -6.9100   33.1966 C.ar    1  UNL1        0.1424
     16 F          -3.9842   -6.2484   34.3058 F       1  UNL1       -0.2041
     17 C          -4.9042   -8.2046   33.3041 C.ar    1  UNL1        0.0590
     18 C          -5.3342   -8.8915   32.1647 C.ar    1  UNL1        0.1406
     19 F          -5.8527  -10.1351   32.3208 F       1  UNL1       -0.2044
     20 C         -10.7991  -11.6413   30.9762 C.ar    1  UNL1        0.0516
     21 C         -10.5707  -12.6172   31.9592 C.ar    1  UNL1        0.0156
     22 C         -11.6448  -13.2405   32.6018 C.ar    1  UNL1        0.0127
     23 C         -12.9578  -12.9052   32.2578 C.ar    1  UNL1        0.0578
     24 CL        -14.3045  -13.6902   33.0624 Cl      1  UNL1       -0.0822
     25 C         -13.1958  -11.9507   31.2640 C.ar    1  UNL1        0.0127
     26 C         -12.1235  -11.3250   30.6203 C.ar    1  UNL1        0.0156
     27 O          -5.4977  -11.8871   27.2002 O.2     1  UNL1       -0.2730
     28 C          -6.0005  -12.3422   28.2630 C.2     1  UNL1        0.2454
     29 N          -6.5872  -13.6546   28.2906 N.am    1  UNL1       -0.2680
     30 H          -6.7356  -14.1073   29.2204 H       1  UNL1        0.1563
     31 C          -6.8771  -14.4372   27.1225 C.ar    1  UNL1        0.1346
     32 C          -8.0308  -15.2335   27.0361 C.ar    1  UNL1        0.0406
     33 C          -8.2536  -15.9989   25.8905 C.ar    1  UNL1        0.0736
     34 C          -7.3224  -15.9860   24.8424 C.ar    1  UNL1        0.2466
     35 C          -6.1745  -15.1913   24.9754 C.ar    1  UNL1        0.1691
     36 N          -5.9788  -14.4534   26.1000 N.ar    1  UNL1       -0.2228
     37 N          -7.5421  -16.7654   23.6492 N.am    1  UNL1       -0.0841
     38 C          -6.4733  -17.0545   22.8439 C.2     1  UNL1        0.2905
     39 C          -6.6424  -17.7979   21.6743 C.2     1  UNL1        0.0758
     40 C          -7.9131  -18.2501   21.3285 C.2     1  UNL1        0.0161
     41 C          -8.9977  -17.9601   22.1533 C.2     1  UNL1        0.1156
     42 C          -8.7982  -17.2158   23.3211 C.2     1  UNL1        0.4230
     43 O          -9.7847  -16.9802   24.0719 O.2     1  UNL1       -0.2135
@<TRIPOS>BOND
     1    27    28    2
     2    28    29   am
     3    29    31    1
     4    31    32   ar
     5    32    33   ar
     6    33    34   ar
     7    34    37    1
     8    37    38    1
     9    38    39    2
    10    39    40    1
    11    40    41    2
    12    41    42    1
    13    42    43    2
    14    34    35   ar
    15    35    36   ar
    16    28     1    1
    17     1     2    1
    18     2     3    1
    19     3     4    1
    20     3    12    1
    21    12    13   ar
    22    13    14   ar
    23    14    15   ar
    24    15    16    1
    25    15    17   ar
    26    17    18   ar
    27    18    19    1
    28     3     5    1
    29     5     6    1
    30     6     7   am
    31     7     8    2
    32     7     9   am
    33     9    20    1
    34    20    21   ar
    35    21    22   ar
    36    22    23   ar
    37    23    24    1
    38    23    25   ar
    39    25    26   ar
    40    36    31   ar
    41     6     1    1
    42    26    20   ar
    43    42    37    1
    44    18    12   ar
    45    29    30    1
    46     4    10    1
    47     9    11    1
@<TRIPOS>MOLECULE
*****
 43 47 0 0 0
SMALL
GASTEIGER

@<TRIPOS>ATOM
      1 C          -6.0060  -11.5180   29.5216 C.3     1  UNL1        0.1562
      2 C          -5.0264  -10.3435   29.4124 C.3     1  UNL1        0.0622
      3 C          -5.8394   -9.0411   29.6522 C.3     1  UNL1        0.1294
      4 O          -5.7391   -8.2111   28.5151 O.3     1  UNL1       -0.3808
      5 C          -7.3098   -9.4819   29.7934 C.3     1  UNL1        0.1264
      6 N          -7.3147  -10.9344   29.7729 N.am    1  UNL1       -0.2544
      7 C          -8.4739  -11.7225   30.1033 C.2     1  UNL1        0.3081
      8 O          -8.3613  -12.9728   30.2264 O.2     1  UNL1       -0.2522
      9 N          -9.7611  -11.1005   30.2557 N.am    1  UNL1       -0.2681
     10 H          -4.7753   -8.0343   28.3500 H       1  UNL1        0.2107
     11 H          -9.9207  -10.1766   29.7959 H       1  UNL1        0.1564
     12 C          -5.3811   -8.3004   30.9222 C.ar    1  UNL1        0.0310
     13 C          -4.8499   -9.0065   32.0255 C.ar    1  UNL1        0.0026
     14 C          -4.4178   -8.3289   33.1688 C.ar    1  UNL1        0.0295
     15 C          -4.4907   -6.9379   33.2301 C.ar    1  UNL1        0.1424
     16 F          -4.0677   -6.2843   34.3402 F       1  UNL1       -0.2041
     17 C          -4.9868   -6.2188   32.1431 C.ar    1  UNL1        0.0590
     18 C          -5.4221   -6.8863   30.9942 C.ar    1  UNL1        0.1406
     19 F          -5.8644   -6.1447   29.9481 F       1  UNL1       -0.2044
     20 C         -10.8841  -11.7318   30.8947 C.ar    1  UNL1        0.0516
     21 C         -10.6990  -12.9501   31.5671 C.ar    1  UNL1        0.0156
     22 C         -11.7798  -13.5940   32.1771 C.ar    1  UNL1        0.0127
     23 C         -13.0591  -13.0340   32.1085 C.ar    1  UNL1        0.0578
     24 CL        -14.4149  -13.8444   32.8715 Cl      1  UNL1       -0.0822
     25 C         -13.2579  -11.8323   31.4218 C.ar    1  UNL1        0.0127
     26 C         -12.1785  -11.1856   30.8115 C.ar    1  UNL1        0.0156
     27 O          -5.5197  -11.8709   27.2078 O.2     1  UNL1       -0.2730
     28 C          -6.0300  -12.3427   28.2597 C.2     1  UNL1        0.2454
     29 N          -6.5933  -13.6656   28.2691 N.am    1  UNL1       -0.2680
     30 H          -6.7473  -14.1278   29.1932 H       1  UNL1        0.1563
     31 C          -6.8515  -14.4446   27.0912 C.ar    1  UNL1        0.1346
     32 C          -8.0051  -15.2363   26.9691 C.ar    1  UNL1        0.0406
     33 C          -8.1969  -15.9985   25.8157 C.ar    1  UNL1        0.0736
     34 C          -7.2352  -15.9868   24.7955 C.ar    1  UNL1        0.2466
     35 C          -6.0888  -15.1967   24.9640 C.ar    1  UNL1        0.1691
     36 N          -5.9236  -14.4620   26.0955 N.ar    1  UNL1       -0.2228
     37 N          -7.4225  -16.7629   23.5946 N.am    1  UNL1       -0.0841
     38 C          -6.3292  -17.0690   22.8297 C.2     1  UNL1        0.2905
     39 C          -6.4662  -17.8098   21.6542 C.2     1  UNL1        0.0758
     40 C          -7.7302  -18.2419   21.2610 C.2     1  UNL1        0.0161
     41 C          -8.8401  -17.9346   22.0449 C.2     1  UNL1        0.1156
     42 C          -8.6726  -17.1933   23.2197 C.2     1  UNL1        0.4230
     43 O          -9.6825  -16.9420   23.9332 O.2     1  UNL1       -0.2135
@<TRIPOS>BOND
     1    27    28    2
     2    28    29   am
     3    29    31    1
     4    31    32   ar
     5    32    33   ar
     6    33    34   ar
     7    34    37    1
     8    37    38    1
     9    38    39    2
    10    39    40    1
    11    40    41    2
    12    41    42    1
    13    42    43    2
    14    34    35   ar
    15    35    36   ar
    16    28     1    1
    17     1     2    1
    18     2     3    1
    19     3     4    1
    20     3    12    1
    21    12    13   ar
    22    13    14   ar
    23    14    15   ar
    24    15    16    1
    25    15    17   ar
    26    17    18   ar
    27    18    19    1
    28     3     5    1
    29     5     6    1
    30     6     7   am
    31     7     8    2
    32     7     9   am
    33     9    20    1
    34    20    21   ar
    35    21    22   ar
    36    22    23   ar
    37    23    24    1
    38    23    25   ar
    39    25    26   ar
    40    36    31   ar
    41     6     1    1
    42    26    20   ar
    43    42    37    1
    44    18    12   ar
    45    29    30    1
    46     4    10    1
    47     9    11    1
@<TRIPOS>MOLECULE
*****
 43 47 0 0 0
SMALL
GASTEIGER

@<TRIPOS>ATOM
      1 C          -6.2074  -11.7101   29.4715 C.3     1  UNL1        0.1562
      2 C          -5.1972  -10.5633   29.3477 C.3     1  UNL1        0.0622
      3 C          -5.9749   -9.2372   29.5745 C.3     1  UNL1        0.1294
      4 O          -5.8550   -8.4227   28.4282 O.3     1  UNL1       -0.3808
      5 C          -7.4562   -9.6371   29.7232 C.3     1  UNL1        0.1264
      6 N          -7.4997  -11.0892   29.7187 N.am    1  UNL1       -0.2544
      7 C          -8.6787  -11.8425   30.0598 C.2     1  UNL1        0.3081
      8 O          -8.5991  -13.0940   30.1965 O.2     1  UNL1       -0.2522
      9 N          -9.9486  -11.1849   30.2078 N.am    1  UNL1       -0.2681
     10 H          -4.8871   -8.2733   28.2595 H       1  UNL1        0.2107
     11 H         -10.0846  -10.2622   29.7380 H       1  UNL1        0.1564
     12 C          -5.4944   -8.4951   30.8355 C.ar    1  UNL1        0.0310
     13 C          -4.8554   -9.1875   31.8892 C.ar    1  UNL1        0.0026
     14 C          -4.4042   -8.5073   33.0235 C.ar    1  UNL1        0.0295
     15 C          -4.5651   -7.1261   33.1242 C.ar    1  UNL1        0.1424
     16 F          -4.1233   -6.4697   34.2253 F       1  UNL1       -0.2041
     17 C          -5.1692   -6.4186   32.0852 C.ar    1  UNL1        0.0590
     18 C          -5.6245   -7.0888   30.9457 C.ar    1  UNL1        0.1406
     19 F          -6.1741   -6.3562   29.9452 F       1  UNL1       -0.2044
     20 C         -11.0866  -11.7791   30.8556 C.ar    1  UNL1        0.0516
     21 C         -12.1430  -10.9587   31.2819 C.ar    1  UNL1        0.0156
     22 C         -13.2500  -11.5105   31.9339 C.ar    1  UNL1        0.0127
     23 C         -13.3054  -12.8858   32.1793 C.ar    1  UNL1        0.0578
     24 CL        -14.6933  -13.5765   33.0002 Cl      1  UNL1       -0.0822
     25 C         -12.2479  -13.7083   31.7788 C.ar    1  UNL1        0.0127
     26 C         -11.1399  -13.1593   31.1257 C.ar    1  UNL1        0.0156
     27 O          -5.7451  -12.0964   27.1582 O.2     1  UNL1       -0.2730
     28 C          -6.2560  -12.5476   28.2188 C.2     1  UNL1        0.2454
     29 N          -6.8431  -13.8599   28.2467 N.am    1  UNL1       -0.2680
     30 H          -6.9985  -14.3093   29.1769 H       1  UNL1        0.1563
     31 C          -7.1243  -14.6465   27.0792 C.ar    1  UNL1        0.1346
     32 C          -6.1181  -14.9900   26.1616 C.ar    1  UNL1        0.0406
     33 C          -6.4470  -15.7323   25.0264 C.ar    1  UNL1        0.0736
     34 C          -7.7759  -16.1157   24.7961 C.ar    1  UNL1        0.2466
     35 C          -8.7538  -15.7375   25.7275 C.ar    1  UNL1        0.1691
     36 N          -8.4099  -15.0152   26.8264 N.ar    1  UNL1       -0.2228
     37 N          -8.1305  -16.8892   23.6318 N.am    1  UNL1       -0.0841
     38 C          -7.1329  -17.4776   22.9018 C.2     1  UNL1        0.2905
     39 C          -7.4306  -18.2272   21.7621 C.2     1  UNL1        0.0758
     40 C          -8.7580  -18.3771   21.3690 C.2     1  UNL1        0.0161
     41 C          -9.7715  -17.7828   22.1177 C.2     1  UNL1        0.1156
     42 C          -9.4440  -17.0399   23.2572 C.2     1  UNL1        0.4230
     43 O         -10.3727  -16.5266   23.9400 O.2     1  UNL1       -0.2135
@<TRIPOS>BOND
     1    27    28    2
     2    28    29   am
     3    29    31    1
     4    31    32   ar
     5    32    33   ar
     6    33    34   ar
     7    34    37    1
     8    37    38    1
     9    38    39    2
    10    39    40    1
    11    40    41    2
    12    41    42    1
    13    42    43    2
    14    34    35   ar
    15    35    36   ar
    16    28     1    1
    17     1     2    1
    18     2     3    1
    19     3     4    1
    20     3    12    1
    21    12    13   ar
    22    13    14   ar
    23    14    15   ar
    24    15    16    1
    25    15    17   ar
    26    17    18   ar
    27    18    19    1
    28     3     5    1
    29     5     6    1
    30     6     7   am
    31     7     8    2
    32     7     9   am
    33     9    20    1
    34    20    21   ar
    35    21    22   ar
    36    22    23   ar
    37    23    24    1
    38    23    25   ar
    39    25    26   ar
    40    36    31   ar
    41     6     1    1
    42    26    20   ar
    43    42    37    1
    44    18    12   ar
    45    29    30    1
    46     4    10    1
    47     9    11    1
@<TRIPOS>MOLECULE
*****
 43 47 0 0 0
SMALL
GASTEIGER

@<TRIPOS>ATOM
      1 C          -6.7018  -10.9452   30.0235 C.3     1  UNL1        0.1562
      2 C          -6.1060   -9.5480   29.8145 C.3     1  UNL1        0.0622
      3 C          -7.2897   -8.5415   29.7856 C.3     1  UNL1        0.1294
      4 O          -7.2991   -7.8660   28.5464 O.3     1  UNL1       -0.3808
      5 C          -8.5707   -9.3944   29.8741 C.3     1  UNL1        0.1264
      6 N          -8.1449  -10.7686   30.0763 N.am    1  UNL1       -0.2544
      7 C          -9.0520  -11.8299   30.4294 C.2     1  UNL1        0.3081
      8 O          -8.5922  -12.9595   30.7516 O.2     1  UNL1       -0.2522
      9 N         -10.4739  -11.6224   30.3808 N.am    1  UNL1       -0.2681
     10 H          -6.4174   -7.4215   28.4342 H       1  UNL1        0.2107
     11 H         -10.8406  -10.8562   29.7734 H       1  UNL1        0.1564
     12 C          -7.2299   -7.5467   30.9597 C.ar    1  UNL1        0.0310
     13 C          -6.7652   -7.9492   32.2324 C.ar    1  UNL1        0.0026
     14 C          -6.6950   -7.0386   33.2902 C.ar    1  UNL1        0.0295
     15 C          -7.0696   -5.7094   33.0984 C.ar    1  UNL1        0.1424
     16 F          -6.9971   -4.8286   34.1267 F       1  UNL1       -0.2041
     17 C          -7.5062   -5.2839   31.8441 C.ar    1  UNL1        0.0590
     18 C          -7.5806   -6.1863   30.7787 C.ar    1  UNL1        0.1406
     19 F          -7.9775   -5.7207   29.5681 F       1  UNL1       -0.2044
     20 C         -11.4308  -12.4871   31.0168 C.ar    1  UNL1        0.0516
     21 C         -12.6861  -11.9755   31.3816 C.ar    1  UNL1        0.0156
     22 C         -13.6249  -12.7908   32.0210 C.ar    1  UNL1        0.0127
     23 C         -13.3129  -14.1216   32.3152 C.ar    1  UNL1        0.0578
     24 CL        -14.4904  -15.1427   33.1201 Cl      1  UNL1       -0.0822
     25 C         -12.0570  -14.6343   31.9761 C.ar    1  UNL1        0.0127
     26 C         -11.1163  -13.8213   31.3358 C.ar    1  UNL1        0.0156
     27 O          -5.3633  -11.5841   28.1487 O.2     1  UNL1       -0.2730
     28 C          -6.3263  -11.8841   28.9051 C.2     1  UNL1        0.2454
     29 N          -7.0341  -13.1235   28.7309 N.am    1  UNL1       -0.2680
     30 H          -7.6227  -13.4688   29.5219 H       1  UNL1        0.1563
     31 C          -6.8968  -13.9810   27.5879 C.ar    1  UNL1        0.1346
     32 C          -7.8166  -15.0087   27.3223 C.ar    1  UNL1        0.0406
     33 C          -7.6238  -15.8345   26.2139 C.ar    1  UNL1        0.0736
     34 C          -6.5096  -15.6498   25.3831 C.ar    1  UNL1        0.2466
     35 C          -5.6051  -14.6237   25.6929 C.ar    1  UNL1        0.1691
     36 N          -5.8137  -13.8312   26.7772 N.ar    1  UNL1       -0.2228
     37 N          -6.3005  -16.4899   24.2298 N.am    1  UNL1       -0.0841
     38 C          -5.0235  -16.8661   23.9103 C.2     1  UNL1        0.2905
     39 C          -4.7747  -17.6707   22.7968 C.2     1  UNL1        0.0758
     40 C          -5.8402  -18.0949   22.0071 C.2     1  UNL1        0.0161
     41 C          -7.1393  -17.7161   22.3385 C.2     1  UNL1        0.1156
     42 C          -7.3593  -16.9117   23.4620 C.2     1  UNL1        0.4230
     43 O          -8.5426  -16.5953   23.7650 O.2     1  UNL1       -0.2135
@<TRIPOS>BOND
     1    27    28    2
     2    28    29   am
     3    29    31    1
     4    31    32   ar
     5    32    33   ar
     6    33    34   ar
     7    34    37    1
     8    37    38    1
     9    38    39    2
    10    39    40    1
    11    40    41    2
    12    41    42    1
    13    42    43    2
    14    34    35   ar
    15    35    36   ar
    16    28     1    1
    17     1     2    1
    18     2     3    1
    19     3     4    1
    20     3    12    1
    21    12    13   ar
    22    13    14   ar
    23    14    15   ar
    24    15    16    1
    25    15    17   ar
    26    17    18   ar
    27    18    19    1
    28     3     5    1
    29     5     6    1
    30     6     7   am
    31     7     8    2
    32     7     9   am
    33     9    20    1
    34    20    21   ar
    35    21    22   ar
    36    22    23   ar
    37    23    24    1
    38    23    25   ar
    39    25    26   ar
    40    36    31   ar
    41     6     1    1
    42    26    20   ar
    43    42    37    1
    44    18    12   ar
    45    29    30    1
    46     4    10    1
    47     9    11    1
@<TRIPOS>MOLECULE
*****
 43 47 0 0 0
SMALL
GASTEIGER

@<TRIPOS>ATOM
      1 C          -6.8572  -11.1344   29.9908 C.3     1  UNL1        0.1562
      2 C          -6.2400   -9.7549   29.7318 C.3     1  UNL1        0.0622
      3 C          -7.4011   -8.7222   29.7352 C.3     1  UNL1        0.1294
      4 O          -7.4487   -8.0677   28.4858 O.3     1  UNL1       -0.3808
      5 C          -8.6958   -9.5439   29.8933 C.3     1  UNL1        0.1264
      6 N          -8.2924  -10.9238   30.1017 N.am    1  UNL1       -0.2544
      7 C          -9.2069  -11.9579   30.5119 C.2     1  UNL1        0.3081
      8 O          -8.7589  -13.0922   30.8342 O.2     1  UNL1       -0.2522
      9 N         -10.6246  -11.7187   30.5200 N.am    1  UNL1       -0.2681
     10 H          -6.5629   -7.6454   28.3283 H       1  UNL1        0.2107
     11 H         -10.9999  -10.9547   29.9151 H       1  UNL1        0.1564
     12 C          -7.2690   -7.7094   30.8878 C.ar    1  UNL1        0.0310
     13 C          -7.3045   -6.3179   30.6424 C.ar    1  UNL1        0.0026
     14 C          -7.2030   -5.4023   31.6933 C.ar    1  UNL1        0.0295
     15 C          -7.0809   -5.8524   33.0073 C.ar    1  UNL1        0.1424
     16 F          -6.9856   -4.9607   34.0241 F       1  UNL1       -0.2041
     17 C          -7.0702   -7.2210   33.2755 C.ar    1  UNL1        0.0590
     18 C          -7.1709   -8.1460   32.2318 C.ar    1  UNL1        0.1406
     19 F          -7.1913   -9.4662   32.5423 F       1  UNL1       -0.2044
     20 C         -11.5724  -12.5504   31.2113 C.ar    1  UNL1        0.0516
     21 C         -11.2001  -13.8490   31.5928 C.ar    1  UNL1        0.0156
     22 C         -12.1113  -14.6841   32.2464 C.ar    1  UNL1        0.0127
     23 C         -13.4084  -14.2348   32.5119 C.ar    1  UNL1        0.0578
     24 CL        -14.5517  -15.2846   33.3291 Cl      1  UNL1       -0.0822
     25 C         -13.7960  -12.9510   32.1157 C.ar    1  UNL1        0.0127
     26 C         -12.8864  -12.1132   31.4627 C.ar    1  UNL1        0.0156
     27 O          -5.5506  -11.8892   28.1367 O.2     1  UNL1       -0.2730
     28 C          -6.5509  -12.1004   28.8744 C.2     1  UNL1        0.2454
     29 N          -7.3682  -13.2675   28.6813 N.am    1  UNL1       -0.2680
     30 H          -8.0007  -13.5591   29.4599 H       1  UNL1        0.1563
     31 C          -7.2910  -14.1302   27.5364 C.ar    1  UNL1        0.1346
     32 C          -8.3471  -14.9873   27.1865 C.ar    1  UNL1        0.0406
     33 C          -8.2127  -15.8282   26.0807 C.ar    1  UNL1        0.0736
     34 C          -7.0242  -15.8291   25.3368 C.ar    1  UNL1        0.2466
     35 C          -5.9867  -14.9711   25.7297 C.ar    1  UNL1        0.1691
     36 N          -6.1405  -14.1603   26.8097 N.ar    1  UNL1       -0.2228
     37 N          -6.8727  -16.6866   24.1873 N.am    1  UNL1       -0.0841
     38 C          -7.9615  -17.3829   23.7356 C.2     1  UNL1        0.2905
     39 C          -7.8573  -18.2317   22.6320 C.2     1  UNL1        0.0758
     40 C          -6.6314  -18.3664   21.9855 C.2     1  UNL1        0.0161
     41 C          -5.5268  -17.6515   22.4433 C.2     1  UNL1        0.1156
     42 C          -5.6612  -16.8056   23.5497 C.2     1  UNL1        0.4230
     43 O          -4.6591  -16.1455   23.9398 O.2     1  UNL1       -0.2135
@<TRIPOS>BOND
     1    27    28    2
     2    28    29   am
     3    29    31    1
     4    31    32   ar
     5    32    33   ar
     6    33    34   ar
     7    34    37    1
     8    37    38    1
     9    38    39    2
    10    39    40    1
    11    40    41    2
    12    41    42    1
    13    42    43    2
    14    34    35   ar
    15    35    36   ar
    16    28     1    1
    17     1     2    1
    18     2     3    1
    19     3     4    1
    20     3    12    1
    21    12    13   ar
    22    13    14   ar
    23    14    15   ar
    24    15    16    1
    25    15    17   ar
    26    17    18   ar
    27    18    19    1
    28     3     5    1
    29     5     6    1
    30     6     7   am
    31     7     8    2
    32     7     9   am
    33     9    20    1
    34    20    21   ar
    35    21    22   ar
    36    22    23   ar
    37    23    24    1
    38    23    25   ar
    39    25    26   ar
    40    36    31   ar
    41     6     1    1
    42    26    20   ar
    43    42    37    1
    44    18    12   ar
    45    29    30    1
    46     4    10    1
    47     9    11    1
