@<TRIPOS>MOLECULE
*****
 37 41 0 0 0
SMALL
GASTEIGER

@<TRIPOS>ATOM
      1 C         -30.1764   49.1226  -10.2040 C.ar    1  UNL1        0.1317
      2 C         -31.3538   49.1492   -9.4297 C.ar    1  UNL1        0.0286
      3 C         -31.3713   49.7972   -8.1808 C.ar    1  UNL1        0.0777
      4 C         -30.2097   50.4239   -7.7103 C.ar    1  UNL1        0.2970
      5 N         -29.0950   50.3784   -8.4852 N.ar    1  UNL1       -0.1220
      6 C         -27.8813   50.9191   -8.2928 C.ar    1  UNL1        0.2819
      7 BR        -27.4159   52.0502   -6.8151 Br      1  UNL1        0.0296
      8 C         -27.1152   50.6131   -9.4159 C.ar    1  UNL1        0.1326
      9 N         -27.8566   49.8980  -10.2968 N.ar    1  UNL1       -0.2938
     10 C         -29.0499   49.7690   -9.6822 C.ar    1  UNL1        0.3126
     11 H         -27.5870   49.5534  -11.1787 H       1  UNL1        0.1718
     12 N         -30.3925   47.1537  -13.9733 N.3     1  UNL1       -0.2647
     13 C         -30.4305   46.3777  -12.7158 C.3     1  UNL1        0.0941
     14 C         -29.6533   47.1021  -11.6135 C.3     1  UNL1        0.1084
     15 N         -30.1399   48.4776  -11.4889 N.pl3   1  UNL1       -0.2988
     16 C         -30.2529   49.2724  -12.7141 C.3     1  UNL1        0.1084
     17 C         -31.0211   48.4782  -13.7705 C.3     1  UNL1        0.0941
     18 C         -31.0836   46.4069  -15.0440 C.3     1  UNL1        0.1199
     19 C         -29.3014   47.3898  -17.9910 C.ar    1  UNL1        0.1165
     20 N         -29.8379   47.7079  -16.7922 N.ar    1  UNL1       -0.2344
     21 C         -30.3422   46.5411  -16.3423 C.ar    1  UNL1        0.0878
     22 C         -30.1179   45.5506  -17.2794 C.ar    1  UNL1        0.0499
     23 C         -30.5427   44.1185  -17.2006 C.3     1  UNL1        0.0511
     24 N         -29.4646   46.0924  -18.3191 N.ar    1  UNL1       -0.3443
     25 H         -29.1634   45.6174  -19.1993 H       1  UNL1        0.1668
     26 C         -27.2859   48.7796  -18.4006 C.3     1  UNL1        0.0084
     27 C         -28.6743   48.3992  -18.9007 C.3     1  UNL1        0.0637
     28 C         -25.7186   51.0131   -9.6885 C.ar    1  UNL1        0.0221
     29 C         -25.2665   51.2348  -10.9960 C.ar    1  UNL1        0.0013
     30 C         -23.9477   51.6308  -11.2363 C.ar    1  UNL1       -0.0042
     31 C         -23.0404   51.8279  -10.1690 C.ar    1  UNL1       -0.0228
     32 C         -23.5193   51.6231   -8.8563 C.ar    1  UNL1       -0.0042
     33 C         -24.8383   51.2288   -8.6210 C.ar    1  UNL1        0.0013
     34 C         -21.5765   52.2635  -10.3869 C.3     1  UNL1        0.0189
     35 C         -20.9130   52.5418   -9.0203 C.3     1  UNL1        0.0044
     36 C         -21.5441   53.5478  -11.2435 C.3     1  UNL1        0.0044
     37 C         -20.7259   51.1927  -11.1117 C.3     1  UNL1        0.0044
@<TRIPOS>BOND
     1    26    27    1
     2    27    19    1
     3    19    20   ar
     4    20    21   ar
     5    21    18    1
     6    18    12    1
     7    12    13    1
     8    13    14    1
     9    14    15    1
    10    15     1    1
    11     1     2   ar
    12     2     3   ar
    13     3     4   ar
    14     4     5   ar
    15     5     6   ar
    16     6     7    1
    17     6     8   ar
    18     8    28    1
    19    28    29   ar
    20    29    30   ar
    21    30    31   ar
    22    31    34    1
    23    34    35    1
    24    34    36    1
    25    34    37    1
    26    31    32   ar
    27    32    33   ar
    28     8     9   ar
    29     9    10   ar
    30    15    16    1
    31    16    17    1
    32    21    22   ar
    33    22    23    1
    34    22    24   ar
    35    24    19   ar
    36    17    12    1
    37    10     1   ar
    38    10     5   ar
    39    33    28   ar
    40    24    25    1
    41     9    11    1
@<TRIPOS>MOLECULE
*****
 37 41 0 0 0
SMALL
GASTEIGER

@<TRIPOS>ATOM
      1 C         -30.1993   49.9850   -9.5818 C.ar    1  UNL1        0.1317
      2 C         -31.3307   49.9117   -8.7444 C.ar    1  UNL1        0.0286
      3 C         -31.2327   50.2508   -7.3823 C.ar    1  UNL1        0.0777
      4 C         -30.0013   50.6694   -6.8605 C.ar    1  UNL1        0.2970
      5 N         -28.9340   50.7287   -7.6986 N.ar    1  UNL1       -0.1220
      6 C         -27.6718   51.1250   -7.4700 C.ar    1  UNL1        0.2819
      7 BR        -27.0419   51.8463   -5.8079 Br      1  UNL1        0.0296
      8 C         -26.9902   51.0367   -8.6822 C.ar    1  UNL1        0.1326
      9 N         -27.8308   50.5990   -9.6511 N.ar    1  UNL1       -0.2938
     10 C         -28.9988   50.4131   -9.0033 C.ar    1  UNL1        0.3126
     11 H         -27.6347   50.4514  -10.6045 H       1  UNL1        0.1718
     12 N         -30.7659   49.0523  -13.6976 N.3     1  UNL1       -0.2647
     13 C         -31.1312   48.0777  -12.6481 C.3     1  UNL1        0.0941
     14 C         -30.2427   48.2580  -11.4144 C.3     1  UNL1        0.1084
     15 N         -30.2799   49.6557  -10.9794 N.pl3   1  UNL1       -0.2988
     16 C         -30.0539   50.6893  -11.9926 C.3     1  UNL1        0.1084
     17 C         -30.9589   50.4318  -13.1974 C.3     1  UNL1        0.0941
     18 C         -31.5820   48.8168  -14.9060 C.3     1  UNL1        0.1199
     19 C         -30.3560   46.0041  -16.7533 C.ar    1  UNL1        0.1165
     20 N         -31.2169   46.5190  -15.8479 N.ar    1  UNL1       -0.2344
     21 C         -30.9062   47.8307  -15.8138 C.ar    1  UNL1        0.0878
     22 C         -29.8587   48.0786  -16.6803 C.ar    1  UNL1        0.0499
     23 C         -29.1787   49.3881  -16.9254 C.3     1  UNL1        0.0511
     24 N         -29.5130   46.9222  -17.2673 N.ar    1  UNL1       -0.3443
     25 H         -28.7462   46.7634  -17.9586 H       1  UNL1        0.1668
     26 C         -30.5620   44.3143  -18.5598 C.3     1  UNL1        0.0084
     27 C         -30.2864   44.5451  -17.0789 C.3     1  UNL1        0.0637
     28 C         -25.5806   51.3921   -8.9497 C.ar    1  UNL1        0.0221
     29 C         -24.5363   50.8540   -8.1861 C.ar    1  UNL1        0.0013
     30 C         -23.2070   51.1854   -8.4634 C.ar    1  UNL1       -0.0042
     31 C         -22.8809   52.0613   -9.5253 C.ar    1  UNL1       -0.0228
     32 C         -23.9441   52.5756  -10.2997 C.ar    1  UNL1       -0.0042
     33 C         -25.2707   52.2406  -10.0197 C.ar    1  UNL1        0.0013
     34 C         -21.4289   52.4554   -9.8670 C.3     1  UNL1        0.0189
     35 C         -20.5636   52.3916   -8.5894 C.3     1  UNL1        0.0044
     36 C         -21.4052   53.8926  -10.4310 C.3     1  UNL1        0.0044
     37 C         -20.7794   51.5257  -10.9202 C.3     1  UNL1        0.0044
@<TRIPOS>BOND
     1    26    27    1
     2    27    19    1
     3    19    20   ar
     4    20    21   ar
     5    21    18    1
     6    18    12    1
     7    12    13    1
     8    13    14    1
     9    14    15    1
    10    15     1    1
    11     1     2   ar
    12     2     3   ar
    13     3     4   ar
    14     4     5   ar
    15     5     6   ar
    16     6     7    1
    17     6     8   ar
    18     8    28    1
    19    28    29   ar
    20    29    30   ar
    21    30    31   ar
    22    31    34    1
    23    34    35    1
    24    34    36    1
    25    34    37    1
    26    31    32   ar
    27    32    33   ar
    28     8     9   ar
    29     9    10   ar
    30    15    16    1
    31    16    17    1
    32    21    22   ar
    33    22    23    1
    34    22    24   ar
    35    24    19   ar
    36    17    12    1
    37    10     1   ar
    38    10     5   ar
    39    33    28   ar
    40    24    25    1
    41     9    11    1
@<TRIPOS>MOLECULE
*****
 37 41 0 0 0
SMALL
GASTEIGER

@<TRIPOS>ATOM
      1 C         -28.7894   50.1959   -8.6679 C.ar    1  UNL1        0.1317
      2 C         -30.0367   49.9762   -9.2864 C.ar    1  UNL1        0.0286
      3 C         -30.2024   50.2178  -10.6627 C.ar    1  UNL1        0.0777
      4 C         -29.1157   50.6742  -11.4207 C.ar    1  UNL1        0.2970
      5 N         -27.9293   50.8728  -10.7898 N.ar    1  UNL1       -0.1220
      6 C         -26.7410   51.2627  -11.2782 C.ar    1  UNL1        0.2819
      7 BR        -26.3751   51.5661  -13.1366 Br      1  UNL1        0.0296
      8 C         -25.8413   51.2599  -10.2141 C.ar    1  UNL1        0.1326
      9 N         -26.4704   50.8611   -9.0817 N.ar    1  UNL1       -0.2938
     10 C         -27.7416   50.6486   -9.4781 C.ar    1  UNL1        0.3126
     11 H         -26.0886   50.7521   -8.1808 H       1  UNL1        0.1718
     12 N         -27.8880   49.4954   -4.5657 N.3     1  UNL1       -0.2647
     13 C         -27.5765   48.4755   -5.5893 C.3     1  UNL1        0.0941
     14 C         -28.5603   48.5696   -6.7586 C.3     1  UNL1        0.1084
     15 N         -28.5943   49.9429   -7.2656 N.pl3   1  UNL1       -0.2988
     16 C         -28.7714   51.0229   -6.2920 C.3     1  UNL1        0.1084
     17 C         -27.7712   50.8507   -5.1488 C.3     1  UNL1        0.0941
     18 C         -26.9768   49.3432   -3.4133 C.3     1  UNL1        0.1199
     19 C         -26.7448   45.9469   -2.3005 C.ar    1  UNL1        0.1165
     20 N         -26.2103   46.9956   -2.9642 N.ar    1  UNL1       -0.2344
     21 C         -27.1200   47.9781   -2.8056 C.ar    1  UNL1        0.0878
     22 C         -28.1879   47.5024   -2.0688 C.ar    1  UNL1        0.0499
     23 C         -29.4295   48.2467   -1.6921 C.3     1  UNL1        0.0511
     24 N         -27.9478   46.2194   -1.7563 N.ar    1  UNL1       -0.3443
     25 H         -28.5657   45.5676   -1.2230 H       1  UNL1        0.1668
     26 C         -25.7661   44.1183   -3.6643 C.3     1  UNL1        0.0084
     27 C         -26.1061   44.5942   -2.2570 C.3     1  UNL1        0.0637
     28 C         -24.4004   51.5869  -10.2533 C.ar    1  UNL1        0.0221
     29 C         -23.7598   51.9122  -11.4562 C.ar    1  UNL1        0.0013
     30 C         -22.4006   52.2373  -11.4743 C.ar    1  UNL1       -0.0042
     31 C         -21.6403   52.2569  -10.2814 C.ar    1  UNL1       -0.0228
     32 C         -22.3072   51.9498   -9.0750 C.ar    1  UNL1       -0.0042
     33 C         -23.6659   51.6268   -9.0617 C.ar    1  UNL1        0.0013
     34 C         -20.1385   52.6088  -10.2538 C.3     1  UNL1        0.0189
     35 C         -19.9651   54.1377  -10.3862 C.3     1  UNL1        0.0044
     36 C         -19.4243   51.9082  -11.4300 C.3     1  UNL1        0.0044
     37 C         -19.4357   52.1687   -8.9470 C.3     1  UNL1        0.0044
@<TRIPOS>BOND
     1    26    27    1
     2    27    19    1
     3    19    20   ar
     4    20    21   ar
     5    21    18    1
     6    18    12    1
     7    12    13    1
     8    13    14    1
     9    14    15    1
    10    15     1    1
    11     1     2   ar
    12     2     3   ar
    13     3     4   ar
    14     4     5   ar
    15     5     6   ar
    16     6     7    1
    17     6     8   ar
    18     8    28    1
    19    28    29   ar
    20    29    30   ar
    21    30    31   ar
    22    31    34    1
    23    34    35    1
    24    34    36    1
    25    34    37    1
    26    31    32   ar
    27    32    33   ar
    28     8     9   ar
    29     9    10   ar
    30    15    16    1
    31    16    17    1
    32    21    22   ar
    33    22    23    1
    34    22    24   ar
    35    24    19   ar
    36    17    12    1
    37    10     1   ar
    38    10     5   ar
    39    33    28   ar
    40    24    25    1
    41     9    11    1
@<TRIPOS>MOLECULE
*****
 37 41 0 0 0
SMALL
GASTEIGER

@<TRIPOS>ATOM
      1 C         -29.8824   49.7898   -8.1659 C.ar    1  UNL1        0.1317
      2 C         -31.1961   49.6523   -8.6575 C.ar    1  UNL1        0.0286
      3 C         -31.5071   50.0312   -9.9766 C.ar    1  UNL1        0.0777
      4 C         -30.4994   50.5426  -10.8052 C.ar    1  UNL1        0.2970
      5 N         -29.2453   50.6589  -10.2965 N.ar    1  UNL1       -0.1220
      6 C         -28.1085   51.0758  -10.8765 C.ar    1  UNL1        0.2819
      7 BR        -27.9431   51.5552  -12.7265 Br      1  UNL1        0.0296
      8 C         -27.0965   50.9536   -9.9262 C.ar    1  UNL1        0.1326
      9 N         -27.6065   50.4551   -8.7736 N.ar    1  UNL1       -0.2938
     10 C         -28.9192   50.3033   -9.0422 C.ar    1  UNL1        0.3126
     11 H         -27.1302   50.2517   -7.9364 H       1  UNL1        0.1718
     12 N         -29.1887   48.5579   -4.1495 N.3     1  UNL1       -0.2647
     13 C         -29.8253   49.8604   -4.4377 C.3     1  UNL1        0.0941
     14 C         -29.3446   50.4074   -5.7844 C.3     1  UNL1        0.1084
     15 N         -29.5397   49.3966   -6.8257 N.pl3   1  UNL1       -0.2988
     16 C         -29.0482   48.0426   -6.5596 C.3     1  UNL1        0.1084
     17 C         -29.5515   47.5743   -5.1942 C.3     1  UNL1        0.0941
     18 C         -29.6065   48.0802   -2.8158 C.3     1  UNL1        0.1199
     19 C         -27.0048   45.7029   -2.1780 C.ar    1  UNL1        0.1165
     20 N         -27.4813   46.7467   -2.8917 N.ar    1  UNL1       -0.2344
     21 C         -28.6762   47.0093   -2.3248 C.ar    1  UNL1        0.0878
     22 C         -28.9052   46.1139   -1.2975 C.ar    1  UNL1        0.0499
     23 C         -30.1203   46.0252   -0.4297 C.3     1  UNL1        0.0511
     24 N         -27.8495   45.2896   -1.2119 N.ar    1  UNL1       -0.3443
     25 H         -27.7177   44.4902   -0.5526 H       1  UNL1        0.1668
     26 C         -25.8671   44.1184   -3.7130 C.3     1  UNL1        0.0084
     27 C         -25.7119   45.0181   -2.4929 C.3     1  UNL1        0.0637
     28 C         -25.6605   51.2596  -10.0967 C.ar    1  UNL1        0.0221
     29 C         -25.0478   51.2015  -11.3554 C.ar    1  UNL1        0.0013
     30 C         -23.6931   51.5118  -11.5032 C.ar    1  UNL1       -0.0042
     31 C         -22.9096   51.9018  -10.3917 C.ar    1  UNL1       -0.0228
     32 C         -23.5487   51.9782   -9.1347 C.ar    1  UNL1       -0.0042
     33 C         -24.9031   51.6684   -8.9921 C.ar    1  UNL1        0.0013
     34 C         -21.4116   52.2524  -10.5076 C.3     1  UNL1        0.0189
     35 C         -20.8438   52.5575   -9.1042 C.3     1  UNL1        0.0044
     36 C         -21.2422   53.4938  -11.4101 C.3     1  UNL1        0.0044
     37 C         -20.5658   51.1085  -11.1171 C.3     1  UNL1        0.0044
@<TRIPOS>BOND
     1    26    27    1
     2    27    19    1
     3    19    20   ar
     4    20    21   ar
     5    21    18    1
     6    18    12    1
     7    12    13    1
     8    13    14    1
     9    14    15    1
    10    15     1    1
    11     1     2   ar
    12     2     3   ar
    13     3     4   ar
    14     4     5   ar
    15     5     6   ar
    16     6     7    1
    17     6     8   ar
    18     8    28    1
    19    28    29   ar
    20    29    30   ar
    21    30    31   ar
    22    31    34    1
    23    34    35    1
    24    34    36    1
    25    34    37    1
    26    31    32   ar
    27    32    33   ar
    28     8     9   ar
    29     9    10   ar
    30    15    16    1
    31    16    17    1
    32    21    22   ar
    33    22    23    1
    34    22    24   ar
    35    24    19   ar
    36    17    12    1
    37    10     1   ar
    38    10     5   ar
    39    33    28   ar
    40    24    25    1
    41     9    11    1
@<TRIPOS>MOLECULE
*****
 37 41 0 0 0
SMALL
GASTEIGER

@<TRIPOS>ATOM
      1 C         -29.7818   49.9341   -8.2716 C.ar    1  UNL1        0.1317
      2 C         -31.0839   49.7873   -8.7908 C.ar    1  UNL1        0.0286
      3 C         -31.3604   50.1252  -10.1285 C.ar    1  UNL1        0.0777
      4 C         -30.3299   50.6049  -10.9480 C.ar    1  UNL1        0.2970
      5 N         -29.0880   50.7313  -10.4126 N.ar    1  UNL1       -0.1220
      6 C         -27.9350   51.1239  -10.9774 C.ar    1  UNL1        0.2819
      7 BR        -27.7217   51.5429  -12.8371 Br      1  UNL1        0.0296
      8 C         -26.9473   51.0272   -9.9992 C.ar    1  UNL1        0.1326
      9 N         -27.4881   50.5685   -8.8441 N.ar    1  UNL1       -0.2938
     10 C         -28.7947   50.4145   -9.1399 C.ar    1  UNL1        0.3126
     11 H         -27.0335   50.3896   -7.9893 H       1  UNL1        0.1718
     12 N         -28.5509   48.8987   -4.3291 N.3     1  UNL1       -0.2647
     13 C         -28.5009   47.9017   -5.4191 C.3     1  UNL1        0.0941
     14 C         -29.5819   48.1924   -6.4636 C.3     1  UNL1        0.1084
     15 N         -29.4743   49.5823   -6.9115 N.pl3   1  UNL1       -0.2988
     16 C         -29.3889   50.6230   -5.8842 C.3     1  UNL1        0.1084
     17 C         -28.3058   50.2542   -4.8705 C.3     1  UNL1        0.0941
     18 C         -27.5515   48.5614   -3.2953 C.3     1  UNL1        0.1199
     19 C         -29.2133   46.3264   -1.0436 C.ar    1  UNL1        0.1165
     20 N         -29.1660   47.5162   -1.6824 N.ar    1  UNL1       -0.2344
     21 C         -28.0468   47.4389   -2.4304 C.ar    1  UNL1        0.0878
     22 C         -27.4338   46.2189   -2.2173 C.ar    1  UNL1        0.0499
     23 C         -26.1524   45.7339   -2.8173 C.3     1  UNL1        0.0511
     24 N         -28.1718   45.5228   -1.3385 N.ar    1  UNL1       -0.3443
     25 H         -27.9739   44.5725   -0.9527 H       1  UNL1        0.1668
     26 C         -30.4637   47.1226    0.9474 C.3     1  UNL1        0.0084
     27 C         -30.2666   45.9780   -0.0392 C.3     1  UNL1        0.0637
     28 C         -25.5058   51.3206  -10.1439 C.ar    1  UNL1        0.0221
     29 C         -24.9038   51.4096  -11.4059 C.ar    1  UNL1        0.0013
     30 C         -23.5433   51.7061  -11.5269 C.ar    1  UNL1       -0.0042
     31 C         -22.7429   51.9341  -10.3829 C.ar    1  UNL1       -0.0228
     32 C         -23.3710   51.8640   -9.1199 C.ar    1  UNL1       -0.0042
     33 C         -24.7311   51.5687   -9.0041 C.ar    1  UNL1        0.0013
     34 C         -21.2380   52.2634  -10.4685 C.3     1  UNL1        0.0189
     35 C         -20.6810   52.5008   -9.0478 C.3     1  UNL1        0.0044
     36 C         -21.0378   53.5377  -11.3172 C.3     1  UNL1        0.0044
     37 C         -20.4047   51.1311  -11.1157 C.3     1  UNL1        0.0044
@<TRIPOS>BOND
     1    26    27    1
     2    27    19    1
     3    19    20   ar
     4    20    21   ar
     5    21    18    1
     6    18    12    1
     7    12    13    1
     8    13    14    1
     9    14    15    1
    10    15     1    1
    11     1     2   ar
    12     2     3   ar
    13     3     4   ar
    14     4     5   ar
    15     5     6   ar
    16     6     7    1
    17     6     8   ar
    18     8    28    1
    19    28    29   ar
    20    29    30   ar
    21    30    31   ar
    22    31    34    1
    23    34    35    1
    24    34    36    1
    25    34    37    1
    26    31    32   ar
    27    32    33   ar
    28     8     9   ar
    29     9    10   ar
    30    15    16    1
    31    16    17    1
    32    21    22   ar
    33    22    23    1
    34    22    24   ar
    35    24    19   ar
    36    17    12    1
    37    10     1   ar
    38    10     5   ar
    39    33    28   ar
    40    24    25    1
    41     9    11    1
@<TRIPOS>MOLECULE
*****
 37 41 0 0 0
SMALL
GASTEIGER

@<TRIPOS>ATOM
      1 C         -29.2497   48.6811   -7.2362 C.ar    1  UNL1        0.1317
      2 C         -30.6279   48.5312   -7.4904 C.ar    1  UNL1        0.0286
      3 C         -31.2144   49.1337   -8.6186 C.ar    1  UNL1        0.0777
      4 C         -30.4181   49.8821   -9.4958 C.ar    1  UNL1        0.2970
      5 N         -29.0939   50.0029   -9.2184 N.ar    1  UNL1       -0.1220
      6 C         -28.1169   50.6212   -9.9009 C.ar    1  UNL1        0.2819
      7 BR        -28.3487   51.4669  -11.6070 Br      1  UNL1        0.0296
      8 C         -26.9301   50.4016   -9.2044 C.ar    1  UNL1        0.1326
      9 N         -27.1749   49.6448   -8.1069 N.ar    1  UNL1       -0.2938
     10 C         -28.5065   49.4371   -8.1503 C.ar    1  UNL1        0.3126
     11 H         -26.5312   49.3223   -7.4354 H       1  UNL1        0.1718
     12 N         -27.7081   46.7512   -3.7678 N.3     1  UNL1       -0.2647
     13 C         -28.4367   48.0323   -3.6548 C.3     1  UNL1        0.0941
     14 C         -28.2606   48.8650   -4.9274 C.3     1  UNL1        0.1084
     15 N         -28.6272   48.0631   -6.0965 N.pl3   1  UNL1       -0.2988
     16 C         -28.0430   46.7249   -6.2134 C.3     1  UNL1        0.1084
     17 C         -28.2404   45.9638   -4.9024 C.3     1  UNL1        0.0941
     18 C         -27.8278   45.9936   -2.5056 C.3     1  UNL1        0.1199
     19 C         -30.1371   47.6488   -0.3251 C.ar    1  UNL1        0.1165
     20 N         -28.9075   47.5726   -0.8803 N.ar    1  UNL1       -0.2344
     21 C         -28.9849   46.5008   -1.6949 C.ar    1  UNL1        0.0878
     22 C         -30.2459   45.9431   -1.6036 C.ar    1  UNL1        0.0499
     23 C         -30.7482   44.7234   -2.3089 C.3     1  UNL1        0.0511
     24 N         -30.9673   46.6689   -0.7351 N.ar    1  UNL1       -0.3443
     25 H         -31.9519   46.5014   -0.4292 H       1  UNL1        0.1668
     26 C         -29.9359   48.2723    2.0691 C.3     1  UNL1        0.0084
     27 C         -30.5058   48.6637    0.7111 C.3     1  UNL1        0.0637
     28 C         -25.5730   50.8567   -9.5731 C.ar    1  UNL1        0.0221
     29 C         -25.2033   51.0341  -10.9129 C.ar    1  UNL1        0.0013
     30 C         -23.9219   51.4829  -11.2448 C.ar    1  UNL1       -0.0042
     31 C         -22.9708   51.7791  -10.2403 C.ar    1  UNL1       -0.0228
     32 C         -23.3679   51.6175   -8.8947 C.ar    1  UNL1       -0.0042
     33 C         -24.6499   51.1701   -8.5678 C.ar    1  UNL1        0.0013
     34 C         -21.5456   52.2759  -10.5599 C.3     1  UNL1        0.0189
     35 C         -20.8826   52.8043   -9.2690 C.3     1  UNL1        0.0044
     36 C         -21.6189   53.4136  -11.6013 C.3     1  UNL1        0.0044
     37 C         -20.6316   51.1680  -11.1368 C.3     1  UNL1        0.0044
@<TRIPOS>BOND
     1    26    27    1
     2    27    19    1
     3    19    20   ar
     4    20    21   ar
     5    21    18    1
     6    18    12    1
     7    12    13    1
     8    13    14    1
     9    14    15    1
    10    15     1    1
    11     1     2   ar
    12     2     3   ar
    13     3     4   ar
    14     4     5   ar
    15     5     6   ar
    16     6     7    1
    17     6     8   ar
    18     8    28    1
    19    28    29   ar
    20    29    30   ar
    21    30    31   ar
    22    31    34    1
    23    34    35    1
    24    34    36    1
    25    34    37    1
    26    31    32   ar
    27    32    33   ar
    28     8     9   ar
    29     9    10   ar
    30    15    16    1
    31    16    17    1
    32    21    22   ar
    33    22    23    1
    34    22    24   ar
    35    24    19   ar
    36    17    12    1
    37    10     1   ar
    38    10     5   ar
    39    33    28   ar
    40    24    25    1
    41     9    11    1
@<TRIPOS>MOLECULE
*****
 37 41 0 0 0
SMALL
GASTEIGER

@<TRIPOS>ATOM
      1 C         -28.9633   47.8204   -8.1284 C.ar    1  UNL1        0.1317
      2 C         -30.3294   47.6389   -8.4239 C.ar    1  UNL1        0.0286
      3 C         -30.9648   48.4481   -9.3838 C.ar    1  UNL1        0.0777
      4 C         -30.2291   49.4359  -10.0522 C.ar    1  UNL1        0.2970
      5 N         -28.9147   49.5799   -9.7415 N.ar    1  UNL1       -0.1220
      6 C         -27.9883   50.4083  -10.2496 C.ar    1  UNL1        0.2819
      7 BR        -28.2909   51.6142  -11.7104 Br      1  UNL1        0.0296
      8 C         -26.7841   50.1139   -9.6131 C.ar    1  UNL1        0.1326
      9 N         -26.9674   49.1045   -8.7274 N.ar    1  UNL1       -0.2938
     10 C         -28.2815   48.8205   -8.8313 C.ar    1  UNL1        0.3126
     11 H         -26.2980   48.6784   -8.1447 H       1  UNL1        0.1718
     12 N         -27.0408   45.6117   -5.0370 N.3     1  UNL1       -0.2647
     13 C         -26.3965   46.8078   -5.6195 C.3     1  UNL1        0.0941
     14 C         -26.8290   46.9957   -7.0761 C.3     1  UNL1        0.1084
     15 N         -28.2909   46.9960   -7.1606 N.pl3   1  UNL1       -0.2988
     16 C         -29.0106   45.9075   -6.4950 C.3     1  UNL1        0.1084
     17 C         -28.5123   45.7687   -5.0566 C.3     1  UNL1        0.0941
     18 C         -26.5567   45.4039   -3.6571 C.3     1  UNL1        0.1199
     19 C         -29.1687   46.2242   -1.3481 C.ar    1  UNL1        0.1165
     20 N         -28.5545   45.3177   -2.1399 N.ar    1  UNL1       -0.2344
     21 C         -27.5165   45.9977   -2.6674 C.ar    1  UNL1        0.0878
     22 C         -27.5334   47.2984   -2.2011 C.ar    1  UNL1        0.0499
     23 C         -26.5868   48.3996   -2.5595 C.3     1  UNL1        0.0511
     24 N         -28.5801   47.4368   -1.3724 N.ar    1  UNL1       -0.3443
     25 H         -28.8839   48.3003   -0.8693 H       1  UNL1        0.1668
     26 C         -30.4469   46.6851    0.7292 C.3     1  UNL1        0.0084
     27 C         -30.4294   45.9331   -0.5961 C.3     1  UNL1        0.0637
     28 C         -25.4648   50.7366   -9.8512 C.ar    1  UNL1        0.0221
     29 C         -24.6239   51.0904   -8.7879 C.ar    1  UNL1        0.0013
     30 C         -23.3713   51.6614   -9.0299 C.ar    1  UNL1       -0.0042
     31 C         -22.9163   51.8869  -10.3503 C.ar    1  UNL1       -0.0228
     32 C         -23.7666   51.5025  -11.4103 C.ar    1  UNL1       -0.0042
     33 C         -25.0168   50.9310  -11.1636 C.ar    1  UNL1        0.0013
     34 C         -21.5425   52.5149  -10.6645 C.3     1  UNL1        0.0189
     35 C         -20.9499   53.1283   -9.3770 C.3     1  UNL1        0.0044
     36 C         -21.7138   53.6214  -11.7278 C.3     1  UNL1        0.0044
     37 C         -20.5179   51.4916  -11.2110 C.3     1  UNL1        0.0044
@<TRIPOS>BOND
     1    26    27    1
     2    27    19    1
     3    19    20   ar
     4    20    21   ar
     5    21    18    1
     6    18    12    1
     7    12    13    1
     8    13    14    1
     9    14    15    1
    10    15     1    1
    11     1     2   ar
    12     2     3   ar
    13     3     4   ar
    14     4     5   ar
    15     5     6   ar
    16     6     7    1
    17     6     8   ar
    18     8    28    1
    19    28    29   ar
    20    29    30   ar
    21    30    31   ar
    22    31    34    1
    23    34    35    1
    24    34    36    1
    25    34    37    1
    26    31    32   ar
    27    32    33   ar
    28     8     9   ar
    29     9    10   ar
    30    15    16    1
    31    16    17    1
    32    21    22   ar
    33    22    23    1
    34    22    24   ar
    35    24    19   ar
    36    17    12    1
    37    10     1   ar
    38    10     5   ar
    39    33    28   ar
    40    24    25    1
    41     9    11    1
@<TRIPOS>MOLECULE
*****
 37 41 0 0 0
SMALL
GASTEIGER

@<TRIPOS>ATOM
      1 C         -29.9079   48.9716   -8.6495 C.ar    1  UNL1        0.1317
      2 C         -31.1779   48.7948   -9.2347 C.ar    1  UNL1        0.0286
      3 C         -31.4576   49.3288  -10.5061 C.ar    1  UNL1        0.0777
      4 C         -30.4619   50.0352  -11.1941 C.ar    1  UNL1        0.2970
      5 N         -29.2502   50.1836  -10.5986 N.ar    1  UNL1       -0.1220
      6 C         -28.1295   50.7726  -11.0456 C.ar    1  UNL1        0.2819
      7 BR        -27.9188   51.5209  -12.7993 Br      1  UNL1        0.0296
      8 C         -27.1582   50.6029  -10.0609 C.ar    1  UNL1        0.1326
      9 N         -27.6759   49.9054   -9.0204 N.ar    1  UNL1       -0.2938
     10 C         -28.9544   49.6830   -9.3870 C.ar    1  UNL1        0.3126
     11 H         -27.2243   49.6265   -8.1913 H       1  UNL1        0.1718
     12 N         -29.2733   47.1840   -4.8374 N.3     1  UNL1       -0.2647
     13 C         -30.2468   48.2843   -4.9997 C.3     1  UNL1        0.0941
     14 C         -29.8255   49.2104   -6.1437 C.3     1  UNL1        0.1084
     15 N         -29.5964   48.4232   -7.3570 N.pl3   1  UNL1       -0.2988
     16 C         -28.7422   47.2383   -7.2475 C.3     1  UNL1        0.1084
     17 C         -29.2109   46.3758   -6.0756 C.3     1  UNL1        0.0941
     18 C         -29.6550   46.3433   -3.6845 C.3     1  UNL1        0.1199
     19 C         -29.8953   48.0629   -0.5520 C.ar    1  UNL1        0.1165
     20 N         -30.4756   47.3283   -1.5265 N.ar    1  UNL1       -0.2344
     21 C         -29.4742   47.0981   -2.3997 C.ar    1  UNL1        0.0878
     22 C         -28.3198   47.7088   -1.9479 C.ar    1  UNL1        0.0499
     23 C         -26.9866   47.7357   -2.6256 C.3     1  UNL1        0.0511
     24 N         -28.5922   48.3193   -0.7841 N.ar    1  UNL1       -0.3443
     25 H         -27.9417   48.8853   -0.1945 H       1  UNL1        0.1668
     26 C         -29.7834   48.5922    1.8705 C.3     1  UNL1        0.0084
     27 C         -30.6499   48.6136    0.6171 C.3     1  UNL1        0.0637
     28 C         -25.7498   51.0498  -10.0999 C.ar    1  UNL1        0.0221
     29 C         -25.0417   51.3295   -8.9237 C.ar    1  UNL1        0.0013
     30 C         -23.7046   51.7333   -8.9762 C.ar    1  UNL1       -0.0042
     31 C         -23.0298   51.8597  -10.2131 C.ar    1  UNL1       -0.0228
     32 C         -23.7515   51.5508  -11.3871 C.ar    1  UNL1       -0.0042
     33 C         -25.0870   51.1464  -11.3296 C.ar    1  UNL1        0.0013
     34 C         -21.5557   52.3027  -10.3190 C.3     1  UNL1        0.0189
     35 C         -20.9627   52.4618   -8.9019 C.3     1  UNL1        0.0044
     36 C         -21.4767   53.6536  -11.0625 C.3     1  UNL1        0.0044
     37 C         -20.6713   51.2906  -11.0864 C.3     1  UNL1        0.0044
@<TRIPOS>BOND
     1    26    27    1
     2    27    19    1
     3    19    20   ar
     4    20    21   ar
     5    21    18    1
     6    18    12    1
     7    12    13    1
     8    13    14    1
     9    14    15    1
    10    15     1    1
    11     1     2   ar
    12     2     3   ar
    13     3     4   ar
    14     4     5   ar
    15     5     6   ar
    16     6     7    1
    17     6     8   ar
    18     8    28    1
    19    28    29   ar
    20    29    30   ar
    21    30    31   ar
    22    31    34    1
    23    34    35    1
    24    34    36    1
    25    34    37    1
    26    31    32   ar
    27    32    33   ar
    28     8     9   ar
    29     9    10   ar
    30    15    16    1
    31    16    17    1
    32    21    22   ar
    33    22    23    1
    34    22    24   ar
    35    24    19   ar
    36    17    12    1
    37    10     1   ar
    38    10     5   ar
    39    33    28   ar
    40    24    25    1
    41     9    11    1
@<TRIPOS>MOLECULE
*****
 37 41 0 0 0
SMALL
GASTEIGER

@<TRIPOS>ATOM
      1 C         -29.4053   47.7719   -8.5137 C.ar    1  UNL1        0.1317
      2 C         -30.7565   47.6355   -8.8910 C.ar    1  UNL1        0.0286
      3 C         -31.3142   48.4852   -9.8642 C.ar    1  UNL1        0.0777
      4 C         -30.5157   49.4682  -10.4638 C.ar    1  UNL1        0.2970
      5 N         -29.2179   49.5683  -10.0753 N.ar    1  UNL1       -0.1220
      6 C         -28.2425   50.3829  -10.5084 C.ar    1  UNL1        0.2819
      7 BR        -28.4290   51.6320  -11.9522 Br      1  UNL1        0.0296
      8 C         -27.0850   50.0399   -9.8124 C.ar    1  UNL1        0.1326
      9 N         -27.3453   49.0146   -8.9650 N.ar    1  UNL1       -0.2938
     10 C         -28.6583   48.7696   -9.1506 C.ar    1  UNL1        0.3126
     11 H         -26.7219   48.5561   -8.3564 H       1  UNL1        0.1718
     12 N         -27.7556   45.4180   -5.3724 N.3     1  UNL1       -0.2647
     13 C         -27.1131   46.6851   -5.7801 C.3     1  UNL1        0.0941
     14 C         -27.3734   46.9673   -7.2622 C.3     1  UNL1        0.1084
     15 N         -28.8115   46.9059   -7.5311 N.pl3   1  UNL1       -0.2988
     16 C         -29.5451   45.7357   -7.0429 C.3     1  UNL1        0.1084
     17 C         -29.2201   45.5069   -5.5668 C.3     1  UNL1        0.0941
     18 C         -27.4337   45.1244   -3.9611 C.3     1  UNL1        0.1199
     19 C         -26.5069   48.2092   -2.3951 C.ar    1  UNL1        0.1165
     20 N         -26.2490   47.2348   -3.2951 N.ar    1  UNL1       -0.2344
     21 C         -27.2988   46.3968   -3.1762 C.ar    1  UNL1        0.0878
     22 C         -28.1563   46.8685   -2.2007 C.ar    1  UNL1        0.0499
     23 C         -29.4222   46.2300   -1.7241 C.3     1  UNL1        0.0511
     24 N         -27.6499   48.0098   -1.7085 N.ar    1  UNL1       -0.3443
     25 H         -28.0452   48.6055   -0.9469 H       1  UNL1        0.1668
     26 C         -25.7924   50.4720   -3.1235 C.3     1  UNL1        0.0084
     27 C         -25.5682   49.3429   -2.1249 C.3     1  UNL1        0.0637
     28 C         -25.7384   50.6315   -9.9589 C.ar    1  UNL1        0.0221
     29 C         -25.1685   50.8413  -11.2216 C.ar    1  UNL1        0.0013
     30 C         -23.9017   51.4189  -11.3443 C.ar    1  UNL1       -0.0042
     31 C         -23.1681   51.8156  -10.2016 C.ar    1  UNL1       -0.0228
     32 C         -23.7675   51.6188   -8.9381 C.ar    1  UNL1       -0.0042
     33 C         -25.0342   51.0424   -8.8204 C.ar    1  UNL1        0.0013
     34 C         -21.7672   52.4560  -10.2892 C.3     1  UNL1        0.0189
     35 C         -21.1419   52.5220   -8.8786 C.3     1  UNL1        0.0044
     36 C         -21.8894   53.8842  -10.8632 C.3     1  UNL1        0.0044
     37 C         -20.7941   51.6656  -11.1969 C.3     1  UNL1        0.0044
@<TRIPOS>BOND
     1    26    27    1
     2    27    19    1
     3    19    20   ar
     4    20    21   ar
     5    21    18    1
     6    18    12    1
     7    12    13    1
     8    13    14    1
     9    14    15    1
    10    15     1    1
    11     1     2   ar
    12     2     3   ar
    13     3     4   ar
    14     4     5   ar
    15     5     6   ar
    16     6     7    1
    17     6     8   ar
    18     8    28    1
    19    28    29   ar
    20    29    30   ar
    21    30    31   ar
    22    31    34    1
    23    34    35    1
    24    34    36    1
    25    34    37    1
    26    31    32   ar
    27    32    33   ar
    28     8     9   ar
    29     9    10   ar
    30    15    16    1
    31    16    17    1
    32    21    22   ar
    33    22    23    1
    34    22    24   ar
    35    24    19   ar
    36    17    12    1
    37    10     1   ar
    38    10     5   ar
    39    33    28   ar
    40    24    25    1
    41     9    11    1
