@<TRIPOS>MOLECULE
*****
 51 56 0 0 0
SMALL
GASTEIGER

@<TRIPOS>ATOM
      1 O         -10.2125  -11.0001   30.2271 O.2     1  UNL1       -0.2701
      2 C          -9.2698  -11.7778   30.5410 C.2     1  UNL1        0.2483
      3 N          -8.8102  -11.8314   31.9015 N.am    1  UNL1       -0.2945
      4 H          -8.2439  -12.6590   32.1913 H       1  UNL1        0.1501
      5 C          -8.6827  -12.6579   29.5050 C.ar    1  UNL1        0.0808
      6 C          -9.4990  -13.5920   28.8450 C.ar    1  UNL1        0.0080
      7 C          -8.9649  -14.4404   27.8720 C.ar    1  UNL1        0.0148
      8 C          -7.6067  -14.3648   27.5314 C.ar    1  UNL1        0.0502
      9 C          -6.7912  -13.4223   28.1775 C.ar    1  UNL1        0.0443
     10 C          -7.3220  -12.5713   29.1520 C.ar    1  UNL1        0.1457
     11 F          -6.5143  -11.6334   29.7063 F       1  UNL1       -0.2040
     12 N          -7.0613  -15.2454   26.5309 N.pl3   1  UNL1       -0.3040
     13 C          -7.9453  -16.0750   25.7050 C.3     1  UNL1        0.1123
     14 C          -7.4149  -16.1505   24.2708 C.3     1  UNL1        0.1136
     15 N          -5.9745  -16.4450   24.2682 N.pl3   1  UNL1       -0.2897
     16 C          -5.1006  -15.6163   25.1090 C.3     1  UNL1        0.1136
     17 C          -5.6319  -15.5741   26.5401 C.3     1  UNL1        0.1123
     18 C          -5.3906  -17.3092   23.2722 C.ar    1  UNL1        0.1318
     19 C          -6.1759  -17.9083   22.2737 C.ar    1  UNL1        0.0343
     20 C          -5.5725  -18.7366   21.3263 C.ar    1  UNL1        0.0083
     21 C          -4.1865  -18.9516   21.3553 C.ar    1  UNL1        0.0906
     22 C          -3.4401  -18.3488   22.3796 C.ar    1  UNL1        0.1041
     23 N          -4.0502  -17.5483   23.2929 N.ar    1  UNL1       -0.2292
     24 C          -3.5300  -19.8831   20.3685 C.3     1  UNL1        0.4200
     25 F          -2.9503  -19.1688   19.3343 F       1  UNL1       -0.1658
     26 F          -2.5420  -20.6308   20.9854 F       1  UNL1       -0.1658
     27 F          -4.4827  -20.7382   19.8468 F       1  UNL1       -0.1658
     28 C          -9.3726  -10.9684   32.9480 C.3     1  UNL1        0.1535
     29 C          -9.1566   -9.5122   32.6157 C.2     1  UNL1        0.2443
     30 O          -8.1531   -8.9036   33.0790 O.2     1  UNL1       -0.2730
     31 N         -10.1012   -8.8271   31.7774 N.am    1  UNL1       -0.2825
     32 H         -11.0278   -9.2840   31.6189 H       1  UNL1        0.1549
     33 C          -9.8987   -7.5114   31.2323 C.ar    1  UNL1        0.0539
     34 C         -10.9779   -6.6704   30.9098 C.ar    1  UNL1        0.0354
     35 C         -10.7284   -5.3906   30.4087 C.ar    1  UNL1        0.1007
     36 N          -9.4505   -4.9576   30.2472 N.ar    1  UNL1       -0.2378
     37 C          -8.3870   -5.7411   30.5669 C.ar    1  UNL1        0.1043
     38 S          -6.7275   -5.1161   30.3410 S.3     1  UNL1       -0.1227
     39 C          -8.5926   -7.0280   31.0733 C.ar    1  UNL1        0.0399
     40 H          -6.6622   -5.6135   29.0261 H       1  UNL1        0.1086
     41 C         -10.8636  -11.2835   33.1892 C.3     1  UNL1        0.0569
     42 C         -11.1029  -12.6558   33.7598 C.ar    1  UNL1       -0.0017
     43 C         -10.4457  -13.2258   34.8469 C.ar    1  UNL1        0.0681
     44 N         -10.9428  -14.4557   35.1089 N.ar    1  UNL1       -0.3523
     45 C         -11.9064  -14.6690   34.1962 C.ar    1  UNL1        0.0563
     46 C         -12.7096  -15.8012   34.0654 C.ar    1  UNL1        0.0170
     47 C         -13.6640  -15.8146   33.0318 C.ar    1  UNL1        0.0015
     48 C         -13.7902  -14.7104   32.1601 C.ar    1  UNL1        0.0001
     49 C         -12.9644  -13.5824   32.3147 C.ar    1  UNL1        0.0012
     50 C         -12.0321  -13.5946   33.3528 C.ar    1  UNL1        0.0131
     51 H         -10.6377  -15.1043   35.8682 H       1  UNL1        0.1660
@<TRIPOS>BOND
     1     1     2    2
     2     2     3   am
     3     3    28    1
     4    28    41    1
     5    41    42    1
     6    42    43   ar
     7    43    44   ar
     8    44    45   ar
     9    45    46   ar
    10    46    47   ar
    11    47    48   ar
    12    48    49   ar
    13    49    50   ar
    14    28    29    1
    15    29    30    2
    16    29    31   am
    17    31    33    1
    18    33    34   ar
    19    34    35   ar
    20    35    36   ar
    21    36    37   ar
    22    37    38    1
    23    37    39   ar
    24     2     5    1
    25     5     6   ar
    26     6     7   ar
    27     7     8   ar
    28     8    12    1
    29    12    13    1
    30    13    14    1
    31    14    15    1
    32    15    18    1
    33    18    19   ar
    34    19    20   ar
    35    20    21   ar
    36    21    24    1
    37    24    25    1
    38    24    26    1
    39    24    27    1
    40    21    22   ar
    41    22    23   ar
    42    15    16    1
    43    16    17    1
    44     8     9   ar
    45     9    10   ar
    46    10    11    1
    47    50    42   ar
    48    39    33   ar
    49    10     5   ar
    50    50    45   ar
    51    17    12    1
    52    23    18   ar
    53     3     4    1
    54    44    51    1
    55    31    32    1
    56    38    40    1
@<TRIPOS>MOLECULE
*****
 51 56 0 0 0
SMALL
GASTEIGER

@<TRIPOS>ATOM
      1 O          -9.3735  -10.4178   30.7339 O.2     1  UNL1       -0.2701
      2 C          -8.5401  -11.3438   30.9334 C.2     1  UNL1        0.2483
      3 N          -7.9137  -11.4769   32.2199 N.am    1  UNL1       -0.2945
      4 H          -7.4594  -12.3888   32.4476 H       1  UNL1        0.1501
      5 C          -8.2562  -12.3082   29.8462 C.ar    1  UNL1        0.0808
      6 C          -9.2903  -13.1226   29.3543 C.ar    1  UNL1        0.0080
      7 C          -9.0436  -14.0474   28.3366 C.ar    1  UNL1        0.0148
      8 C          -7.7610  -14.1692   27.7828 C.ar    1  UNL1        0.0502
      9 C          -6.7289  -13.3465   28.2609 C.ar    1  UNL1        0.0443
     10 C          -6.9717  -12.4196   29.2794 C.ar    1  UNL1        0.1457
     11 F          -5.9626  -11.6012   29.6682 F       1  UNL1       -0.2040
     12 N          -7.5122  -15.1278   26.7372 N.pl3   1  UNL1       -0.3040
     13 C          -8.5205  -16.1366   26.3943 C.3     1  UNL1        0.1123
     14 C          -8.5523  -16.3615   24.8801 C.3     1  UNL1        0.1136
     15 N          -7.1893  -16.5270   24.3543 N.pl3   1  UNL1       -0.2897
     16 C          -6.1848  -15.5179   24.7150 C.3     1  UNL1        0.1136
     17 C          -6.1505  -15.3263   26.2297 C.3     1  UNL1        0.1123
     18 C          -6.9057  -17.4653   23.2967 C.ar    1  UNL1        0.1318
     19 C          -5.6143  -17.5920   22.7591 C.ar    1  UNL1        0.0343
     20 C          -5.3800  -18.5138   21.7377 C.ar    1  UNL1        0.0083
     21 C          -6.4216  -19.3265   21.2659 C.ar    1  UNL1        0.0906
     22 C          -7.7011  -19.1568   21.8173 C.ar    1  UNL1        0.1041
     23 N          -7.9058  -18.2506   22.8093 N.ar    1  UNL1       -0.2292
     24 C          -6.1932  -20.2904   20.1296 C.3     1  UNL1        0.4200
     25 F          -5.1442  -19.8657   19.3327 F       1  UNL1       -0.1658
     26 F          -5.8873  -21.5510   20.6125 F       1  UNL1       -0.1658
     27 F          -7.3398  -20.3681   19.3614 F       1  UNL1       -0.1658
     28 C          -8.1749  -10.5337   33.3145 C.3     1  UNL1        0.1535
     29 C          -7.8264   -9.1242   32.9024 C.2     1  UNL1        0.2443
     30 O          -6.6954   -8.6459   33.1919 O.2     1  UNL1       -0.2730
     31 N          -8.7904   -8.3343   32.1876 N.am    1  UNL1       -0.2825
     32 H          -9.7810   -8.6675   32.1827 H       1  UNL1        0.1549
     33 C          -8.5051   -7.0658   31.5721 C.ar    1  UNL1        0.0539
     34 C          -7.2050   -6.5318   31.5468 C.ar    1  UNL1        0.0354
     35 C          -6.9746   -5.3088   30.9125 C.ar    1  UNL1        0.1007
     36 N          -7.9986   -4.6472   30.3124 N.ar    1  UNL1       -0.2378
     37 C          -9.2624   -5.1469   30.3047 C.ar    1  UNL1        0.1043
     38 S         -10.5693   -4.2367   29.4927 S.3     1  UNL1       -0.1227
     39 C          -9.5359   -6.3689   30.9266 C.ar    1  UNL1        0.0399
     40 H         -10.8847   -3.5345   30.6710 H       1  UNL1        0.1086
     41 C          -9.6334  -10.6402   33.8065 C.3     1  UNL1        0.0569
     42 C         -10.0299  -12.0345   34.2126 C.ar    1  UNL1       -0.0017
     43 C          -9.4881  -12.7773   35.2580 C.ar    1  UNL1        0.0681
     44 N         -10.1111  -13.9729   35.3620 N.ar    1  UNL1       -0.3523
     45 C         -11.0402  -13.9933   34.3907 C.ar    1  UNL1        0.0563
     46 C         -11.9374  -15.0207   34.1021 C.ar    1  UNL1        0.0170
     47 C         -12.8321  -14.8316   33.0329 C.ar    1  UNL1        0.0015
     48 C         -12.8078  -13.6350   32.2827 C.ar    1  UNL1        0.0001
     49 C         -11.8897  -12.6164   32.5955 C.ar    1  UNL1        0.0012
     50 C         -11.0196  -12.8292   33.6654 C.ar    1  UNL1        0.0131
     51 H          -9.9091  -14.7244   36.0583 H       1  UNL1        0.1660
@<TRIPOS>BOND
     1     1     2    2
     2     2     3   am
     3     3    28    1
     4    28    41    1
     5    41    42    1
     6    42    43   ar
     7    43    44   ar
     8    44    45   ar
     9    45    46   ar
    10    46    47   ar
    11    47    48   ar
    12    48    49   ar
    13    49    50   ar
    14    28    29    1
    15    29    30    2
    16    29    31   am
    17    31    33    1
    18    33    34   ar
    19    34    35   ar
    20    35    36   ar
    21    36    37   ar
    22    37    38    1
    23    37    39   ar
    24     2     5    1
    25     5     6   ar
    26     6     7   ar
    27     7     8   ar
    28     8    12    1
    29    12    13    1
    30    13    14    1
    31    14    15    1
    32    15    18    1
    33    18    19   ar
    34    19    20   ar
    35    20    21   ar
    36    21    24    1
    37    24    25    1
    38    24    26    1
    39    24    27    1
    40    21    22   ar
    41    22    23   ar
    42    15    16    1
    43    16    17    1
    44     8     9   ar
    45     9    10   ar
    46    10    11    1
    47    50    42   ar
    48    39    33   ar
    49    10     5   ar
    50    50    45   ar
    51    17    12    1
    52    23    18   ar
    53     3     4    1
    54    44    51    1
    55    31    32    1
    56    38    40    1
@<TRIPOS>MOLECULE
*****
 51 56 0 0 0
SMALL
GASTEIGER

@<TRIPOS>ATOM
      1 O          -7.7913  -10.4681   31.2943 O.2     1  UNL1       -0.2701
      2 C          -8.6291  -11.3374   30.9279 C.2     1  UNL1        0.2483
      3 N          -9.9393  -11.3608   31.5178 N.am    1  UNL1       -0.2945
      4 H         -10.6893  -11.8857   31.0161 H       1  UNL1        0.1501
      5 C          -8.2596  -12.2931   29.8590 C.ar    1  UNL1        0.0808
      6 C          -6.9435  -12.3081   29.3670 C.ar    1  UNL1        0.0080
      7 C          -6.5745  -13.1934   28.3511 C.ar    1  UNL1        0.0148
      8 C          -7.5107  -14.0888   27.8143 C.ar    1  UNL1        0.0502
      9 C          -8.8226  -14.0876   28.3139 C.ar    1  UNL1        0.0443
     10 C          -9.1959  -13.2031   29.3306 C.ar    1  UNL1        0.1457
     11 F         -10.4555  -13.2778   29.8279 F       1  UNL1       -0.2040
     12 N          -7.1252  -14.9957   26.7639 N.pl3   1  UNL1       -0.3040
     13 C          -8.1409  -15.7319   26.0036 C.3     1  UNL1        0.1123
     14 C          -7.7348  -15.8279   24.5305 C.3     1  UNL1        0.1136
     15 N          -6.3302  -16.2450   24.4087 N.pl3   1  UNL1       -0.2897
     16 C          -5.3235  -15.5091   25.1848 C.3     1  UNL1        0.1136
     17 C          -5.7337  -15.4460   26.6545 C.3     1  UNL1        0.1123
     18 C          -5.9048  -17.1388   23.3600 C.ar    1  UNL1        0.1318
     19 C          -6.7947  -17.5723   22.3636 C.ar    1  UNL1        0.0343
     20 C          -6.3434  -18.4357   21.3643 C.ar    1  UNL1        0.0083
     21 C          -5.0034  -18.8501   21.3399 C.ar    1  UNL1        0.0906
     22 C          -4.1507  -18.4085   22.3634 C.ar    1  UNL1        0.1041
     23 N          -4.6135  -17.5701   23.3278 N.ar    1  UNL1       -0.2292
     24 C          -4.5158  -19.8214   20.2952 C.3     1  UNL1        0.4200
     25 F          -3.6949  -20.7794   20.8647 F       1  UNL1       -0.1658
     26 F          -5.5818  -20.4671   19.6932 F       1  UNL1       -0.1658
     27 F          -3.8032  -19.1330   19.3312 F       1  UNL1       -0.1658
     28 C         -10.3315  -10.4269   32.5809 C.3     1  UNL1        0.1535
     29 C          -9.8856   -9.0229   32.2525 C.2     1  UNL1        0.2443
     30 O          -8.8524   -8.5473   32.7986 O.2     1  UNL1       -0.2730
     31 N         -10.6469   -8.2348   31.3231 N.am    1  UNL1       -0.2825
     32 H         -11.6103   -8.5634   31.0858 H       1  UNL1        0.1549
     33 C         -10.2150   -6.9734   30.7833 C.ar    1  UNL1        0.0539
     34 C         -11.1332   -5.9890   30.3784 C.ar    1  UNL1        0.0354
     35 C         -10.6633   -4.7692   29.8861 C.ar    1  UNL1        0.1007
     36 N          -9.3274   -4.5316   29.8123 N.ar    1  UNL1       -0.2378
     37 C          -8.4160   -5.4567   30.2130 C.ar    1  UNL1        0.1043
     38 S          -6.6707   -5.0865   30.1006 S.3     1  UNL1       -0.1227
     39 C          -8.8440   -6.6900   30.7137 C.ar    1  UNL1        0.0399
     40 H          -6.5890   -5.6121   28.7976 H       1  UNL1        0.1086
     41 C         -11.8489  -10.4950   32.8514 C.3     1  UNL1        0.0569
     42 C         -12.4723  -11.8053   32.4503 C.ar    1  UNL1       -0.0017
     43 C         -13.2601  -12.0368   31.3260 C.ar    1  UNL1        0.0681
     44 N         -13.6163  -13.3394   31.2575 N.ar    1  UNL1       -0.3523
     45 C         -13.0625  -13.9327   32.3291 C.ar    1  UNL1        0.0563
     46 C         -13.1474  -15.2775   32.6875 C.ar    1  UNL1        0.0170
     47 C         -12.4857  -15.6890   33.8588 C.ar    1  UNL1        0.0015
     48 C         -11.7652  -14.7573   34.6385 C.ar    1  UNL1        0.0001
     49 C         -11.6988  -13.4062   34.2535 C.ar    1  UNL1        0.0012
     50 C         -12.3588  -13.0287   33.0835 C.ar    1  UNL1        0.0131
     51 H         -14.2018  -13.7891   30.5191 H       1  UNL1        0.1660
@<TRIPOS>BOND
     1     1     2    2
     2     2     3   am
     3     3    28    1
     4    28    41    1
     5    41    42    1
     6    42    43   ar
     7    43    44   ar
     8    44    45   ar
     9    45    46   ar
    10    46    47   ar
    11    47    48   ar
    12    48    49   ar
    13    49    50   ar
    14    28    29    1
    15    29    30    2
    16    29    31   am
    17    31    33    1
    18    33    34   ar
    19    34    35   ar
    20    35    36   ar
    21    36    37   ar
    22    37    38    1
    23    37    39   ar
    24     2     5    1
    25     5     6   ar
    26     6     7   ar
    27     7     8   ar
    28     8    12    1
    29    12    13    1
    30    13    14    1
    31    14    15    1
    32    15    18    1
    33    18    19   ar
    34    19    20   ar
    35    20    21   ar
    36    21    24    1
    37    24    25    1
    38    24    26    1
    39    24    27    1
    40    21    22   ar
    41    22    23   ar
    42    15    16    1
    43    16    17    1
    44     8     9   ar
    45     9    10   ar
    46    10    11    1
    47    50    42   ar
    48    39    33   ar
    49    10     5   ar
    50    50    45   ar
    51    17    12    1
    52    23    18   ar
    53     3     4    1
    54    44    51    1
    55    31    32    1
    56    38    40    1
@<TRIPOS>MOLECULE
*****
 51 56 0 0 0
SMALL
GASTEIGER

@<TRIPOS>ATOM
      1 O          -8.9472  -12.0559   31.5083 O.2     1  UNL1       -0.2701
      2 C          -9.4089  -12.1022   30.3351 C.2     1  UNL1        0.2483
      3 N         -10.5739  -11.3327   29.9945 N.am    1  UNL1       -0.2945
      4 H         -10.7664  -11.1639   28.9824 H       1  UNL1        0.1501
      5 C          -8.7111  -12.9172   29.3146 C.ar    1  UNL1        0.0808
      6 C          -9.4283  -13.8850   28.5911 C.ar    1  UNL1        0.0080
      7 C          -8.7887  -14.6732   27.6312 C.ar    1  UNL1        0.0148
      8 C          -7.4221  -14.5025   27.3674 C.ar    1  UNL1        0.0502
      9 C          -6.7055  -13.5260   28.0771 C.ar    1  UNL1        0.0443
     10 C          -7.3420  -12.7350   29.0387 C.ar    1  UNL1        0.1457
     11 F          -6.6280  -11.7612   29.6562 F       1  UNL1       -0.2040
     12 N          -6.7677  -15.3216   26.3800 N.pl3   1  UNL1       -0.3040
     13 C          -7.4633  -15.7011   25.1455 C.3     1  UNL1        0.1123
     14 C          -6.4915  -15.6849   23.9625 C.3     1  UNL1        0.1136
     15 N          -5.2461  -16.3858   24.3082 N.pl3   1  UNL1       -0.2897
     16 C          -4.5653  -16.0066   25.5532 C.3     1  UNL1        0.1136
     17 C          -5.5442  -16.0532   26.7245 C.3     1  UNL1        0.1123
     18 C          -4.5548  -17.2013   23.3405 C.ar    1  UNL1        0.1318
     19 C          -5.2251  -17.7498   22.2349 C.ar    1  UNL1        0.0343
     20 C          -4.5197  -18.5320   21.3193 C.ar    1  UNL1        0.0083
     21 C          -3.1442  -18.7505   21.4878 C.ar    1  UNL1        0.0906
     22 C          -2.5153  -18.1995   22.6150 C.ar    1  UNL1        0.1041
     23 N          -3.2236  -17.4434   23.4947 N.ar    1  UNL1       -0.2292
     24 C          -2.3814  -19.6339   20.5337 C.3     1  UNL1        0.4200
     25 F          -1.1358  -19.9480   21.0492 F       1  UNL1       -0.1658
     26 F          -3.0668  -20.8150   20.3077 F       1  UNL1       -0.1658
     27 F          -2.2176  -18.9709   19.3318 F       1  UNL1       -0.1658
     28 C         -11.2866  -10.5182   30.9868 C.3     1  UNL1        0.1535
     29 C         -11.7682  -11.3715   32.1347 C.2     1  UNL1        0.2443
     30 O         -12.4269  -10.8475   33.0746 O.2     1  UNL1       -0.2730
     31 N         -11.4664  -12.7761   32.1511 N.am    1  UNL1       -0.2825
     32 H         -10.7258  -13.1195   31.4984 H       1  UNL1        0.1549
     33 C         -12.0362  -13.7186   33.0766 C.ar    1  UNL1        0.0539
     34 C         -11.4637  -13.9541   34.3387 C.ar    1  UNL1        0.0354
     35 C         -12.0707  -14.8592   35.2125 C.ar    1  UNL1        0.1007
     36 N         -13.2144  -15.4969   34.8493 N.ar    1  UNL1       -0.2378
     37 C         -13.8009  -15.2762   33.6434 C.ar    1  UNL1        0.1043
     38 S         -15.3096  -16.1376   33.2220 S.3     1  UNL1       -0.1227
     39 C         -13.2270  -14.3768   32.7398 C.ar    1  UNL1        0.0399
     40 H         -14.6003  -17.2095   32.6488 H       1  UNL1        0.1086
     41 C         -10.4132   -9.3441   31.4758 C.3     1  UNL1        0.0569
     42 C         -10.9259   -7.9951   31.0476 C.ar    1  UNL1       -0.0017
     43 C         -12.2549   -7.5806   31.0365 C.ar    1  UNL1        0.0681
     44 N         -12.3462   -6.2936   30.6318 N.ar    1  UNL1       -0.3523
     45 C         -11.0874   -5.8917   30.3851 C.ar    1  UNL1        0.0563
     46 C         -10.6731   -4.6347   29.9464 C.ar    1  UNL1        0.0170
     47 C          -9.2954   -4.4275   29.7510 C.ar    1  UNL1        0.0015
     48 C          -8.3736   -5.4703   29.9922 C.ar    1  UNL1        0.0001
     49 C          -8.8209   -6.7291   30.4322 C.ar    1  UNL1        0.0012
     50 C         -10.1920   -6.9030   30.6241 C.ar    1  UNL1        0.0131
     51 H         -13.2196   -5.7298   30.5336 H       1  UNL1        0.1660
@<TRIPOS>BOND
     1     1     2    2
     2     2     3   am
     3     3    28    1
     4    28    41    1
     5    41    42    1
     6    42    43   ar
     7    43    44   ar
     8    44    45   ar
     9    45    46   ar
    10    46    47   ar
    11    47    48   ar
    12    48    49   ar
    13    49    50   ar
    14    28    29    1
    15    29    30    2
    16    29    31   am
    17    31    33    1
    18    33    34   ar
    19    34    35   ar
    20    35    36   ar
    21    36    37   ar
    22    37    38    1
    23    37    39   ar
    24     2     5    1
    25     5     6   ar
    26     6     7   ar
    27     7     8   ar
    28     8    12    1
    29    12    13    1
    30    13    14    1
    31    14    15    1
    32    15    18    1
    33    18    19   ar
    34    19    20   ar
    35    20    21   ar
    36    21    24    1
    37    24    25    1
    38    24    26    1
    39    24    27    1
    40    21    22   ar
    41    22    23   ar
    42    15    16    1
    43    16    17    1
    44     8     9   ar
    45     9    10   ar
    46    10    11    1
    47    50    42   ar
    48    39    33   ar
    49    10     5   ar
    50    50    45   ar
    51    17    12    1
    52    23    18   ar
    53     3     4    1
    54    44    51    1
    55    31    32    1
    56    38    40    1
@<TRIPOS>MOLECULE
*****
 51 56 0 0 0
SMALL
GASTEIGER

@<TRIPOS>ATOM
      1 O          -8.7688  -11.7673   31.7625 O.2     1  UNL1       -0.2701
      2 C          -9.4174  -11.9759   30.7006 C.2     1  UNL1        0.2483
      3 N         -10.7221  -11.3967   30.5343 N.am    1  UNL1       -0.2945
      4 H         -11.1111  -11.3439   29.5671 H       1  UNL1        0.1501
      5 C          -8.7997  -12.7802   29.6216 C.ar    1  UNL1        0.0808
      6 C          -9.5847  -13.7007   28.9069 C.ar    1  UNL1        0.0080
      7 C          -9.0211  -14.4783   27.8922 C.ar    1  UNL1        0.0148
      8 C          -7.6644  -14.3438   27.5643 C.ar    1  UNL1        0.0502
      9 C          -6.8804  -13.4141   28.2656 C.ar    1  UNL1        0.0443
     10 C          -7.4406  -12.6339   29.2819 C.ar    1  UNL1        0.1457
     11 F          -6.6639  -11.7040   29.8912 F       1  UNL1       -0.2040
     12 N          -7.0884  -15.1517   26.5204 N.pl3   1  UNL1       -0.3040
     13 C          -7.9282  -15.6926   25.4462 C.3     1  UNL1        0.1123
     14 C          -7.1765  -15.6509   24.1131 C.3     1  UNL1        0.1136
     15 N          -5.8147  -16.1818   24.2718 N.pl3   1  UNL1       -0.2897
     16 C          -4.9875  -15.6422   25.3590 C.3     1  UNL1        0.1136
     17 C          -5.7444  -15.7158   26.6833 C.3     1  UNL1        0.1123
     18 C          -5.1997  -16.9809   23.2408 C.ar    1  UNL1        0.1318
     19 C          -5.9727  -17.6763   22.2966 C.ar    1  UNL1        0.0343
     20 C          -5.3394  -18.4370   21.3127 C.ar    1  UNL1        0.0083
     21 C          -3.9388  -18.4887   21.2512 C.ar    1  UNL1        0.0906
     22 C          -3.2031  -17.7939   22.2236 C.ar    1  UNL1        0.1041
     23 N          -3.8420  -17.0619   23.1740 N.ar    1  UNL1       -0.2292
     24 C          -3.2434  -19.3461   20.2246 C.3     1  UNL1        0.4200
     25 F          -2.5358  -18.5607   19.3312 F       1  UNL1       -0.1658
     26 F          -2.3554  -20.2151   20.8347 F       1  UNL1       -0.1658
     27 F          -4.1869  -20.0800   19.5302 F       1  UNL1       -0.1658
     28 C         -11.3592  -10.5973   31.5884 C.3     1  UNL1        0.1535
     29 C         -11.2041   -9.1220   31.3103 C.2     1  UNL1        0.2443
     30 O         -11.9299   -8.2879   31.9179 O.2     1  UNL1       -0.2730
     31 N         -10.2330   -8.6788   30.3486 N.am    1  UNL1       -0.2825
     32 H          -9.8328   -9.3941   29.7001 H       1  UNL1        0.1549
     33 C          -9.8568   -7.3049   30.1483 C.ar    1  UNL1        0.0539
     34 C         -10.8146   -6.3015   29.9206 C.ar    1  UNL1        0.0354
     35 C         -10.4003   -4.9772   29.7593 C.ar    1  UNL1        0.1007
     36 N          -9.0811   -4.6603   29.8358 N.ar    1  UNL1       -0.2378
     37 C          -8.1338   -5.6056   30.0727 C.ar    1  UNL1        0.1043
     38 S          -6.4135   -5.1297   30.1710 S.3     1  UNL1       -0.1227
     39 C          -8.5059   -6.9427   30.2418 C.ar    1  UNL1        0.0399
     40 H          -6.2249   -5.3275   28.7904 H       1  UNL1        0.1086
     41 C         -12.8400  -10.9913   31.7690 C.3     1  UNL1        0.0569
     42 C         -13.0293  -12.3789   32.3211 C.ar    1  UNL1       -0.0017
     43 C         -14.0099  -13.2925   31.9442 C.ar    1  UNL1        0.0681
     44 N         -13.8572  -14.4555   32.6168 N.ar    1  UNL1       -0.3523
     45 C         -12.7904  -14.2846   33.4167 C.ar    1  UNL1        0.0563
     46 C         -12.2411  -15.2120   34.3011 C.ar    1  UNL1        0.0170
     47 C         -11.1143  -14.8216   35.0475 C.ar    1  UNL1        0.0015
     48 C         -10.5703  -13.5267   34.8976 C.ar    1  UNL1        0.0001
     49 C         -11.1472  -12.6111   33.9992 C.ar    1  UNL1        0.0012
     50 C         -12.2594  -13.0287   33.2673 C.ar    1  UNL1        0.0131
     51 H         -14.4494  -15.3110   32.5285 H       1  UNL1        0.1660
@<TRIPOS>BOND
     1     1     2    2
     2     2     3   am
     3     3    28    1
     4    28    41    1
     5    41    42    1
     6    42    43   ar
     7    43    44   ar
     8    44    45   ar
     9    45    46   ar
    10    46    47   ar
    11    47    48   ar
    12    48    49   ar
    13    49    50   ar
    14    28    29    1
    15    29    30    2
    16    29    31   am
    17    31    33    1
    18    33    34   ar
    19    34    35   ar
    20    35    36   ar
    21    36    37   ar
    22    37    38    1
    23    37    39   ar
    24     2     5    1
    25     5     6   ar
    26     6     7   ar
    27     7     8   ar
    28     8    12    1
    29    12    13    1
    30    13    14    1
    31    14    15    1
    32    15    18    1
    33    18    19   ar
    34    19    20   ar
    35    20    21   ar
    36    21    24    1
    37    24    25    1
    38    24    26    1
    39    24    27    1
    40    21    22   ar
    41    22    23   ar
    42    15    16    1
    43    16    17    1
    44     8     9   ar
    45     9    10   ar
    46    10    11    1
    47    50    42   ar
    48    39    33   ar
    49    10     5   ar
    50    50    45   ar
    51    17    12    1
    52    23    18   ar
    53     3     4    1
    54    44    51    1
    55    31    32    1
    56    38    40    1
