@<TRIPOS>MOLECULE
*****
 57 64 0 0 0
SMALL
GASTEIGER

@<TRIPOS>ATOM
      1 O          57.9581   80.1597   13.2637 O.3     1  UNL1       -0.4727
      2 C          58.0993   81.2670   12.4113 C.ar    1  UNL1        0.1388
      3 C          58.1949   82.5891   12.8870 C.ar    1  UNL1        0.0382
      4 C          58.3318   83.6529   11.9905 C.ar    1  UNL1        0.0176
      5 C          58.3804   83.4173   10.6082 C.ar    1  UNL1        0.0481
      6 C          58.2886   82.0981   10.1358 C.ar    1  UNL1        0.0176
      7 C          58.1524   81.0349   11.0323 C.ar    1  UNL1        0.0382
      8 N          58.5158   84.5190    9.6907 N.pl3   1  UNL1       -0.3041
      9 C          58.7654   85.8769   10.1890 C.3     1  UNL1        0.1122
     10 C          59.7360   86.6047    9.2582 C.3     1  UNL1        0.1122
     11 N          59.3062   86.4547    7.8626 N.pl3   1  UNL1       -0.3041
     12 C          59.0563   85.0968    7.3645 C.3     1  UNL1        0.1122
     13 C          58.0857   84.3691    8.2952 C.3     1  UNL1        0.1122
     14 C          59.4470   87.5550    6.9443 C.ar    1  UNL1        0.0480
     15 C          60.7231   87.9969    6.5642 C.ar    1  UNL1        0.0160
     16 C          60.8674   89.0668    5.6765 C.ar    1  UNL1        0.0190
     17 C          59.7364   89.7182    5.1546 C.ar    1  UNL1        0.0699
     18 C          58.4592   89.2696    5.5317 C.ar    1  UNL1        0.0190
     19 C          58.3157   88.2013    6.4212 C.ar    1  UNL1        0.0160
     20 N          59.8778   90.8178    4.2344 N.ar    1  UNL1       -0.2398
     21 C          59.1773   91.9748    4.2158 C.ar    1  UNL1        0.2073
     22 N          59.5916   92.7919    3.2232 N.ar    1  UNL1       -0.1442
     23 N          60.5652   92.1500    2.5925 N.ar    1  UNL1       -0.2024
     24 C          60.7436   90.9700    3.2127 C.ar    1  UNL1        0.3522
     25 O          61.6372   90.1367    2.9018 O.2     1  UNL1       -0.2444
     26 C          61.3652   92.6996    1.4907 C.3     1  UNL1        0.1099
     27 C          62.8449   92.8184    1.8826 C.3     1  UNL1        0.0265
     28 C          61.1589   91.8860    0.1950 C.3     1  UNL1        0.0245
     29 C          59.6923   91.6916   -0.1964 C.3     1  UNL1        0.0021
     30 C          58.9932   79.2366   13.6041 C.3     1  UNL1        0.2374
     31 C          61.7738   81.2719   12.9993 C.3     1  UNL1        0.2315
     32 O          62.4750   80.1011   13.3688 O.3     1  UNL1       -0.3266
     33 C          61.5113   79.1304   13.6116 C.3     1  UNL1        0.1783
     34 C          60.2922   79.5818   12.8646 C.3     1  UNL1        0.1909
     35 O          60.4177   80.9622   12.7316 O.3     1  UNL1       -0.3254
     36 C          62.3856   81.9142   11.7474 C.ar    1  UNL1        0.0410
     37 C          61.5315   82.6633   10.9072 C.ar    1  UNL1        0.0022
     38 C          62.0153   83.2978    9.7630 C.ar    1  UNL1        0.0113
     39 C          63.3665   83.2153    9.4363 C.ar    1  UNL1        0.0585
     40 CL         63.9731   84.0166    7.9985 Cl      1  UNL1       -0.0822
     41 C          64.2384   82.5057   10.2614 C.ar    1  UNL1        0.0226
     42 C          63.7705   81.8627   11.4155 C.ar    1  UNL1        0.0591
     43 CL         64.9876   81.0438   12.3900 Cl      1  UNL1       -0.0824
     44 C          61.8005   82.2766   14.1720 C.3     1  UNL1        0.1914
     45 C          63.5381   84.1294   14.2388 C.ar    1  UNL1        0.1837
     46 N          64.8240   84.2436   14.6198 N.ar    1  UNL1       -0.1081
     47 N          65.1859   83.0218   14.9890 N.ar    1  UNL1       -0.0227
     48 N          64.1699   82.1835   14.8457 N.ar    1  UNL1       -0.0427
     49 N          63.1326   82.8504   14.3722 N.ar    1  UNL1       -0.2079
     50 C          61.9101   86.0454   14.5643 C.ar    1  UNL1       -0.0192
     51 C          61.1638   87.0977   14.0041 C.ar    1  UNL1       -0.0042
     52 C          61.2149   87.3561   12.6336 C.ar    1  UNL1       -0.0003
     53 C          62.0212   86.5773   11.8055 C.ar    1  UNL1        0.0001
     54 C          62.7766   85.5351   12.3442 C.ar    1  UNL1        0.0028
     55 C          62.7242   85.2485   13.7185 C.ar    1  UNL1        0.0334
     56 C          62.8154   86.6960   16.8037 C.3     1  UNL1        0.0050
     57 C          61.8195   85.8156   16.0551 C.3     1  UNL1        0.0265
@<TRIPOS>BOND
     1    56    57    1
     2    57    50    1
     3    50    51   ar
     4    51    52   ar
     5    52    53   ar
     6    53    54   ar
     7    54    55   ar
     8    55    45    1
     9    45    46   ar
    10    46    47   ar
    11    47    48   ar
    12    48    49   ar
    13    49    44    1
    14    31    44    1
    15    31    36    1
    16    36    37   ar
    17    37    38   ar
    18    38    39   ar
    19    39    40    1
    20    39    41   ar
    21    41    42   ar
    22    42    43    1
    23    31    32    1
    24    32    33    1
    25    33    34    1
    26    34    30    1
    27    30     1    1
    28     1     2    1
    29     2     3   ar
    30     3     4   ar
    31     4     5   ar
    32     5     8    1
    33     8     9    1
    34     9    10    1
    35    10    11    1
    36    11    14    1
    37    14    15   ar
    38    15    16   ar
    39    16    17   ar
    40    17    20    1
    41    20    21   ar
    42    21    22   ar
    43    22    23   ar
    44    23    26    1
    45    26    27    1
    46    26    28    1
    47    28    29    1
    48    23    24   ar
    49    24    25    2
    50    17    18   ar
    51    18    19   ar
    52    11    12    1
    53    12    13    1
    54     5     6   ar
    55     6     7   ar
    56    34    35    1
    57    55    50   ar
    58    49    45   ar
    59    35    31    1
    60    42    36   ar
    61     7     2   ar
    62    13     8    1
    63    19    14   ar
    64    24    20   ar
@<TRIPOS>MOLECULE
*****
 57 64 0 0 0
SMALL
GASTEIGER

@<TRIPOS>ATOM
      1 O          57.7841   83.3682   12.9489 O.3     1  UNL1       -0.4727
      2 C          58.1317   84.2047   11.8755 C.ar    1  UNL1        0.1388
      3 C          58.6233   85.5121   12.0549 C.ar    1  UNL1        0.0382
      4 C          58.9508   86.3004   10.9478 C.ar    1  UNL1        0.0176
      5 C          58.7987   85.7985    9.6464 C.ar    1  UNL1        0.0481
      6 C          58.3119   84.4934    9.4695 C.ar    1  UNL1        0.0176
      7 C          57.9852   83.7054   10.5764 C.ar    1  UNL1        0.0382
      8 N          59.1330   86.6187    8.5109 N.pl3   1  UNL1       -0.3041
      9 C          58.3703   86.5078    7.2617 C.3     1  UNL1        0.1122
     10 C          58.1918   87.8906    6.6340 C.3     1  UNL1        0.1122
     11 N          59.4784   88.5961    6.5915 N.pl3   1  UNL1       -0.3041
     12 C          60.2411   88.7068    7.8407 C.3     1  UNL1        0.1122
     13 C          60.4197   87.3240    8.4682 C.3     1  UNL1        0.1122
     14 C          59.8096   89.4205    5.4582 C.ar    1  UNL1        0.0480
     15 C          58.8892   90.3657    4.9811 C.ar    1  UNL1        0.0160
     16 C          59.2023   91.1665    3.8792 C.ar    1  UNL1        0.0190
     17 C          60.4421   91.0339    3.2304 C.ar    1  UNL1        0.0699
     18 C          61.3650   90.0909    3.7139 C.ar    1  UNL1        0.0190
     19 C          61.0504   89.2890    4.8144 C.ar    1  UNL1        0.0160
     20 N          60.7738   91.8603    2.0977 N.ar    1  UNL1       -0.2398
     21 C          61.3454   93.0862    2.1087 C.ar    1  UNL1        0.2073
     22 N          61.5320   93.5599    0.8575 N.ar    1  UNL1       -0.1442
     23 N          61.0691   92.6305    0.0331 N.ar    1  UNL1       -0.2024
     24 C          60.6277   91.6046    0.7824 C.ar    1  UNL1        0.3522
     25 O          60.1773   90.5265    0.3088 O.2     1  UNL1       -0.2444
     26 C          61.1430   92.6875   -1.4323 C.3     1  UNL1        0.1099
     27 C          60.1938   93.7544   -1.9964 C.3     1  UNL1        0.0265
     28 C          62.5992   92.8790   -1.9079 C.3     1  UNL1        0.0245
     29 C          63.4714   91.6285   -1.7754 C.3     1  UNL1        0.0021
     30 C          58.5903   82.3130   13.4741 C.3     1  UNL1        0.2374
     31 C          61.8370   82.9026   12.3115 C.3     1  UNL1        0.2315
     32 O          62.0232   81.5607   12.7158 O.3     1  UNL1       -0.3266
     33 C          60.7905   81.1193   13.1803 C.3     1  UNL1        0.1783
     34 C          59.7771   82.0241   12.5459 C.3     1  UNL1        0.1909
     35 O          60.4543   83.2042   12.2495 O.3     1  UNL1       -0.3254
     36 C          62.4561   83.1581   10.9311 C.ar    1  UNL1        0.0410
     37 C          61.7502   83.9943   10.0373 C.ar    1  UNL1        0.0022
     38 C          62.2571   84.2944    8.7727 C.ar    1  UNL1        0.0113
     39 C          63.4887   83.7816    8.3735 C.ar    1  UNL1        0.0585
     40 CL         64.1254   84.1629    6.7840 Cl      1  UNL1       -0.0822
     41 C          64.2207   82.9756    9.2448 C.ar    1  UNL1        0.0226
     42 C          63.7278   82.6642   10.5193 C.ar    1  UNL1        0.0591
     43 CL         64.7765   81.6765   11.5323 Cl      1  UNL1       -0.0824
     44 C          62.4740   83.8453   13.3559 C.3     1  UNL1        0.1914
     45 C          61.2445   85.9873   13.9531 C.ar    1  UNL1        0.1837
     46 N          60.1566   86.3155   14.6745 N.ar    1  UNL1       -0.1081
     47 N          59.7273   85.1726   15.1937 N.ar    1  UNL1       -0.0227
     48 N          60.5123   84.1760   14.8116 N.ar    1  UNL1       -0.0427
     49 N          61.4704   84.6610   14.0425 N.ar    1  UNL1       -0.2079
     50 C          63.0498   87.7649   13.8576 C.ar    1  UNL1       -0.0192
     51 C          63.8076   88.6692   13.0922 C.ar    1  UNL1       -0.0042
     52 C          63.6033   88.7835   11.7164 C.ar    1  UNL1       -0.0003
     53 C          62.6501   87.9880   11.0833 C.ar    1  UNL1        0.0001
     54 C          61.8952   87.0778   11.8241 C.ar    1  UNL1        0.0028
     55 C          62.0741   86.9615   13.2126 C.ar    1  UNL1        0.0334
     56 C          63.0421   89.0178   16.0227 C.3     1  UNL1        0.0050
     57 C          63.3180   87.6805   15.3423 C.3     1  UNL1        0.0265
@<TRIPOS>BOND
     1    56    57    1
     2    57    50    1
     3    50    51   ar
     4    51    52   ar
     5    52    53   ar
     6    53    54   ar
     7    54    55   ar
     8    55    45    1
     9    45    46   ar
    10    46    47   ar
    11    47    48   ar
    12    48    49   ar
    13    49    44    1
    14    31    44    1
    15    31    36    1
    16    36    37   ar
    17    37    38   ar
    18    38    39   ar
    19    39    40    1
    20    39    41   ar
    21    41    42   ar
    22    42    43    1
    23    31    32    1
    24    32    33    1
    25    33    34    1
    26    34    30    1
    27    30     1    1
    28     1     2    1
    29     2     3   ar
    30     3     4   ar
    31     4     5   ar
    32     5     8    1
    33     8     9    1
    34     9    10    1
    35    10    11    1
    36    11    14    1
    37    14    15   ar
    38    15    16   ar
    39    16    17   ar
    40    17    20    1
    41    20    21   ar
    42    21    22   ar
    43    22    23   ar
    44    23    26    1
    45    26    27    1
    46    26    28    1
    47    28    29    1
    48    23    24   ar
    49    24    25    2
    50    17    18   ar
    51    18    19   ar
    52    11    12    1
    53    12    13    1
    54     5     6   ar
    55     6     7   ar
    56    34    35    1
    57    55    50   ar
    58    49    45   ar
    59    35    31    1
    60    42    36   ar
    61     7     2   ar
    62    13     8    1
    63    19    14   ar
    64    24    20   ar
@<TRIPOS>MOLECULE
*****
 57 64 0 0 0
SMALL
GASTEIGER

@<TRIPOS>ATOM
      1 O          60.5014   85.1979   15.3971 O.3     1  UNL1       -0.4727
      2 C          60.4451   85.8238   14.1410 C.ar    1  UNL1        0.1388
      3 C          61.5747   86.3899   13.5190 C.ar    1  UNL1        0.0382
      4 C          61.4578   87.0027   12.2680 C.ar    1  UNL1        0.0176
      5 C          60.2171   87.0574   11.6151 C.ar    1  UNL1        0.0481
      6 C          59.0926   86.4893   12.2351 C.ar    1  UNL1        0.0176
      7 C          59.2099   85.8761   13.4854 C.ar    1  UNL1        0.0382
      8 N          60.1036   87.6954   10.3291 N.pl3   1  UNL1       -0.3041
      9 C          60.7941   88.9630   10.0630 C.3     1  UNL1        0.1122
     10 C          61.3317   88.9747    8.6316 C.3     1  UNL1        0.1122
     11 N          60.2825   88.5556    7.6943 N.pl3   1  UNL1       -0.3041
     12 C          59.5919   87.2881    7.9606 C.3     1  UNL1        0.1122
     13 C          59.0542   87.2766    9.3919 C.3     1  UNL1        0.1122
     14 C          60.1731   89.1903    6.4064 C.ar    1  UNL1        0.0480
     15 C          61.3130   89.3646    5.6073 C.ar    1  UNL1        0.0160
     16 C          61.2150   89.9833    4.3580 C.ar    1  UNL1        0.0190
     17 C          59.9738   90.4436    3.8853 C.ar    1  UNL1        0.0699
     18 C          58.8323   90.2621    4.6846 C.ar    1  UNL1        0.0190
     19 C          58.9315   89.6455    5.9347 C.ar    1  UNL1        0.0160
     20 N          59.8645   91.0768    2.5957 N.ar    1  UNL1       -0.2398
     21 C          58.7452   91.2644    1.8597 C.ar    1  UNL1        0.2073
     22 N          59.0109   91.9158    0.7066 N.ar    1  UNL1       -0.1442
     23 N          60.3169   92.1437    0.6983 N.ar    1  UNL1       -0.2024
     24 C          60.8236   91.6505    1.8423 C.ar    1  UNL1        0.3522
     25 O          62.0335   91.7541    2.1813 O.2     1  UNL1       -0.2444
     26 C          61.0364   92.9018   -0.3331 C.3     1  UNL1        0.1099
     27 C          62.1223   92.0442   -0.9984 C.3     1  UNL1        0.0265
     28 C          60.0565   93.5154   -1.3562 C.3     1  UNL1        0.0245
     29 C          59.1072   92.5026   -2.0003 C.3     1  UNL1        0.0021
     30 C          61.5480   84.3386   15.8504 C.3     1  UNL1        0.2374
     31 C          61.4383   82.2649   13.0346 C.3     1  UNL1        0.2315
     32 O          62.6074   81.7261   13.6191 O.3     1  UNL1       -0.3266
     33 C          62.7979   82.4119   14.8122 C.3     1  UNL1        0.1783
     34 C          61.4522   82.9645   15.1748 C.3     1  UNL1        0.1909
     35 O          60.7479   83.0653   13.9778 O.3     1  UNL1       -0.3254
     36 C          60.4960   81.1546   12.5517 C.ar    1  UNL1        0.0410
     37 C          61.0018   79.8361   12.5042 C.ar    1  UNL1        0.0022
     38 C          60.2017   78.7675   12.0991 C.ar    1  UNL1        0.0113
     39 C          58.8719   78.9842   11.7468 C.ar    1  UNL1        0.0585
     40 CL         57.8670   77.6384   11.2406 Cl      1  UNL1       -0.0822
     41 C          58.3375   80.2706   11.8101 C.ar    1  UNL1        0.0226
     42 C          59.1259   81.3560   12.2156 C.ar    1  UNL1        0.0591
     43 CL         58.3106   82.9150   12.2953 Cl      1  UNL1       -0.0824
     44 C          61.8305   83.1740   11.8492 C.3     1  UNL1        0.1914
     45 C          62.9661   82.1872    9.8015 C.ar    1  UNL1        0.1837
     46 N          64.2221   81.8516    9.4528 N.ar    1  UNL1       -0.1081
     47 N          64.9569   82.0920   10.5310 N.ar    1  UNL1       -0.0227
     48 N          64.1928   82.5580   11.5078 N.ar    1  UNL1       -0.0427
     49 N          62.9451   82.6196   11.0785 N.ar    1  UNL1       -0.2079
     50 C          61.5293   82.9847    7.8710 C.ar    1  UNL1       -0.0192
     51 C          60.3980   82.7978    7.0564 C.ar    1  UNL1       -0.0042
     52 C          59.5403   81.7171    7.2661 C.ar    1  UNL1       -0.0003
     53 C          59.8063   80.8010    8.2821 C.ar    1  UNL1        0.0001
     54 C          60.9291   80.9640    9.0944 C.ar    1  UNL1        0.0028
     55 C          61.7941   82.0555    8.9101 C.ar    1  UNL1        0.0334
     56 C          62.2451   85.2490    8.6573 C.3     1  UNL1        0.0050
     57 C          62.4250   84.1698    7.5942 C.3     1  UNL1        0.0265
@<TRIPOS>BOND
     1    56    57    1
     2    57    50    1
     3    50    51   ar
     4    51    52   ar
     5    52    53   ar
     6    53    54   ar
     7    54    55   ar
     8    55    45    1
     9    45    46   ar
    10    46    47   ar
    11    47    48   ar
    12    48    49   ar
    13    49    44    1
    14    31    44    1
    15    31    36    1
    16    36    37   ar
    17    37    38   ar
    18    38    39   ar
    19    39    40    1
    20    39    41   ar
    21    41    42   ar
    22    42    43    1
    23    31    32    1
    24    32    33    1
    25    33    34    1
    26    34    30    1
    27    30     1    1
    28     1     2    1
    29     2     3   ar
    30     3     4   ar
    31     4     5   ar
    32     5     8    1
    33     8     9    1
    34     9    10    1
    35    10    11    1
    36    11    14    1
    37    14    15   ar
    38    15    16   ar
    39    16    17   ar
    40    17    20    1
    41    20    21   ar
    42    21    22   ar
    43    22    23   ar
    44    23    26    1
    45    26    27    1
    46    26    28    1
    47    28    29    1
    48    23    24   ar
    49    24    25    2
    50    17    18   ar
    51    18    19   ar
    52    11    12    1
    53    12    13    1
    54     5     6   ar
    55     6     7   ar
    56    34    35    1
    57    55    50   ar
    58    49    45   ar
    59    35    31    1
    60    42    36   ar
    61     7     2   ar
    62    13     8    1
    63    19    14   ar
    64    24    20   ar
@<TRIPOS>MOLECULE
*****
 57 64 0 0 0
SMALL
GASTEIGER

@<TRIPOS>ATOM
      1 O          60.5410   84.0137   14.0533 O.3     1  UNL1       -0.4727
      2 C          60.3768   84.8303   12.9225 C.ar    1  UNL1        0.1388
      3 C          59.1281   85.3521   12.5327 C.ar    1  UNL1        0.0382
      4 C          59.0247   86.1580   11.3951 C.ar    1  UNL1        0.0176
      5 C          60.1620   86.4607   10.6312 C.ar    1  UNL1        0.0481
      6 C          61.4068   85.9425   11.0234 C.ar    1  UNL1        0.0176
      7 C          61.5100   85.1375   12.1610 C.ar    1  UNL1        0.0382
      8 N          60.0465   87.2869    9.4574 N.pl3   1  UNL1       -0.3041
      9 C          60.5958   88.6480    9.4476 C.3     1  UNL1        0.1122
     10 C          61.2080   88.9544    8.0803 C.3     1  UNL1        0.1122
     11 N          60.2703   88.5858    7.0127 N.pl3   1  UNL1       -0.3041
     12 C          59.7208   87.2248    7.0228 C.3     1  UNL1        0.1122
     13 C          59.1085   86.9185    8.3900 C.3     1  UNL1        0.1122
     14 C          60.1592   89.4095    5.8368 C.ar    1  UNL1        0.0480
     15 C          58.9430   90.0369    5.5281 C.ar    1  UNL1        0.0160
     16 C          58.8266   90.8346    4.3863 C.ar    1  UNL1        0.0190
     17 C          59.9251   91.0167    3.5285 C.ar    1  UNL1        0.0699
     18 C          61.1442   90.3925    3.8432 C.ar    1  UNL1        0.0190
     19 C          61.2591   89.5932    4.9837 C.ar    1  UNL1        0.0160
     20 N          59.8140   91.8426    2.3531 N.ar    1  UNL1       -0.2398
     21 C          59.9297   93.1880    2.2748 C.ar    1  UNL1        0.2073
     22 N          59.7893   93.6268    1.0050 N.ar    1  UNL1       -0.1442
     23 N          59.5744   92.5518    0.2596 N.ar    1  UNL1       -0.2024
     24 C          59.6045   91.4803    1.0719 C.ar    1  UNL1        0.3522
     25 O          59.4947   90.2890    0.6739 O.2     1  UNL1       -0.2444
     26 C          59.4448   92.5491   -1.2030 C.3     1  UNL1        0.1099
     27 C          60.8047   92.3321   -1.8819 C.3     1  UNL1        0.0265
     28 C          58.3827   91.5283   -1.6646 C.3     1  UNL1        0.0245
     29 C          56.9396   92.0177   -1.5230 C.3     1  UNL1        0.0021
     30 C          60.9807   82.6552   14.0397 C.3     1  UNL1        0.2374
     31 C          60.7022   80.5199   11.2822 C.3     1  UNL1        0.2315
     32 O          60.0870   79.6764   12.2357 O.3     1  UNL1       -0.3266
     33 C          60.0606   80.3900   13.4273 C.3     1  UNL1        0.1783
     34 C          60.1676   81.8323   13.0320 C.3     1  UNL1        0.1909
     35 O          60.7939   81.8398   11.7883 O.3     1  UNL1       -0.3254
     36 C          59.9043   80.5523    9.9721 C.ar    1  UNL1        0.0410
     37 C          60.4520   79.8894    8.8509 C.ar    1  UNL1        0.0022
     38 C          59.7776   79.8528    7.6303 C.ar    1  UNL1        0.0113
     39 C          58.5322   80.4623    7.5012 C.ar    1  UNL1        0.0585
     40 CL         57.6848   80.4123    5.9660 Cl      1  UNL1       -0.0822
     41 C          57.9544   81.1005    8.5981 C.ar    1  UNL1        0.0226
     42 C          58.6166   81.1466    9.8324 C.ar    1  UNL1        0.0591
     43 CL         57.7514   81.9429   11.1434 Cl      1  UNL1       -0.0824
     44 C          62.1391   80.0233   11.0104 C.3     1  UNL1        0.1914
     45 C          63.9021   81.6918   11.7615 C.ar    1  UNL1        0.1837
     46 N          64.6783   82.6191   11.1704 N.ar    1  UNL1       -0.1081
     47 N          64.3200   82.6075    9.8930 N.ar    1  UNL1       -0.0227
     48 N          63.3639   81.7117    9.6967 N.ar    1  UNL1       -0.0427
     49 N          63.0813   81.1324   10.8497 N.ar    1  UNL1       -0.2079
     50 C          64.3460   82.3322   14.1741 C.ar    1  UNL1       -0.0192
     51 C          64.3520   81.9696   15.5330 C.ar    1  UNL1       -0.0042
     52 C          63.9669   80.6883   15.9297 C.ar    1  UNL1       -0.0003
     53 C          63.5578   79.7557   14.9782 C.ar    1  UNL1        0.0001
     54 C          63.5358   80.0999   13.6262 C.ar    1  UNL1        0.0028
     55 C          63.9370   81.3789   13.2060 C.ar    1  UNL1        0.0334
     56 C          64.2319   84.7490   14.8096 C.3     1  UNL1        0.0050
     57 C          64.7683   83.7351   13.8038 C.3     1  UNL1        0.0265
@<TRIPOS>BOND
     1    56    57    1
     2    57    50    1
     3    50    51   ar
     4    51    52   ar
     5    52    53   ar
     6    53    54   ar
     7    54    55   ar
     8    55    45    1
     9    45    46   ar
    10    46    47   ar
    11    47    48   ar
    12    48    49   ar
    13    49    44    1
    14    31    44    1
    15    31    36    1
    16    36    37   ar
    17    37    38   ar
    18    38    39   ar
    19    39    40    1
    20    39    41   ar
    21    41    42   ar
    22    42    43    1
    23    31    32    1
    24    32    33    1
    25    33    34    1
    26    34    30    1
    27    30     1    1
    28     1     2    1
    29     2     3   ar
    30     3     4   ar
    31     4     5   ar
    32     5     8    1
    33     8     9    1
    34     9    10    1
    35    10    11    1
    36    11    14    1
    37    14    15   ar
    38    15    16   ar
    39    16    17   ar
    40    17    20    1
    41    20    21   ar
    42    21    22   ar
    43    22    23   ar
    44    23    26    1
    45    26    27    1
    46    26    28    1
    47    28    29    1
    48    23    24   ar
    49    24    25    2
    50    17    18   ar
    51    18    19   ar
    52    11    12    1
    53    12    13    1
    54     5     6   ar
    55     6     7   ar
    56    34    35    1
    57    55    50   ar
    58    49    45   ar
    59    35    31    1
    60    42    36   ar
    61     7     2   ar
    62    13     8    1
    63    19    14   ar
    64    24    20   ar
@<TRIPOS>MOLECULE
*****
 57 64 0 0 0
SMALL
GASTEIGER

@<TRIPOS>ATOM
      1 O          57.6167   82.3357   12.8806 O.3     1  UNL1       -0.4727
      2 C          57.9785   83.2684   11.8948 C.ar    1  UNL1        0.1388
      3 C          58.4694   84.5521   12.2020 C.ar    1  UNL1        0.0382
      4 C          58.8115   85.4400   11.1779 C.ar    1  UNL1        0.0176
      5 C          58.6750   85.0627    9.8334 C.ar    1  UNL1        0.0481
      6 C          58.1888   83.7811    9.5289 C.ar    1  UNL1        0.0176
      7 C          57.8476   82.8935   10.5529 C.ar    1  UNL1        0.0382
      8 N          59.0242   85.9850    8.7840 N.pl3   1  UNL1       -0.3041
      9 C          58.5135   85.7913    7.4216 C.3     1  UNL1        0.1122
     10 C          58.1737   87.1435    6.7938 C.3     1  UNL1        0.1122
     11 N          59.2868   88.0819    6.9818 N.pl3   1  UNL1       -0.3041
     12 C          59.7976   88.2754    8.3441 C.3     1  UNL1        0.1122
     13 C          60.1376   86.9232    8.9718 C.3     1  UNL1        0.1122
     14 C          59.6320   89.0076    5.9341 C.ar    1  UNL1        0.0480
     15 C          58.6527   89.8505    5.3875 C.ar    1  UNL1        0.0160
     16 C          58.9796   90.7486    4.3677 C.ar    1  UNL1        0.0190
     17 C          60.2931   90.8179    3.8721 C.ar    1  UNL1        0.0699
     18 C          61.2737   89.9772    4.4256 C.ar    1  UNL1        0.0190
     19 C          60.9457   89.0778    5.4437 C.ar    1  UNL1        0.0160
     20 N          60.6384   91.7457    2.8252 N.ar    1  UNL1       -0.2398
     21 C          59.8564   92.7061    2.2814 C.ar    1  UNL1        0.2073
     22 N          60.5155   93.4077    1.3339 N.ar    1  UNL1       -0.1442
     23 N          61.7331   92.8880    1.2633 N.ar    1  UNL1       -0.2024
     24 C          61.8071   91.8988    2.1715 C.ar    1  UNL1        0.3522
     25 O          62.8516   91.2335    2.4077 O.2     1  UNL1       -0.2444
     26 C          62.8213   93.3955    0.4180 C.3     1  UNL1        0.1099
     27 C          64.0801   93.6876    1.2471 C.3     1  UNL1        0.0265
     28 C          63.0982   92.4409   -0.7632 C.3     1  UNL1        0.0245
     29 C          61.9183   92.2726   -1.7231 C.3     1  UNL1        0.0021
     30 C          58.4113   81.2289   13.3080 C.3     1  UNL1        0.2374
     31 C          61.5836   82.5196   12.5933 C.3     1  UNL1        0.2315
     32 O          61.9983   81.2535   13.0666 O.3     1  UNL1       -0.3266
     33 C          60.8381   80.5515   13.3685 C.3     1  UNL1        0.1783
     34 C          59.7542   81.2072   12.5666 C.3     1  UNL1        0.1909
     35 O          60.1923   82.5070   12.3270 O.3     1  UNL1       -0.3254
     36 C          62.3251   82.9015   11.3055 C.ar    1  UNL1        0.0410
     37 C          61.7629   83.9155   10.4980 C.ar    1  UNL1        0.0022
     38 C          62.3879   84.3363    9.3239 C.ar    1  UNL1        0.0113
     39 C          63.5980   83.7681    8.9338 C.ar    1  UNL1        0.0585
     40 CL         64.3834   84.3010    7.4586 Cl      1  UNL1       -0.0822
     41 C          64.1903   82.7844    9.7250 C.ar    1  UNL1        0.0226
     42 C          63.5775   82.3498   10.9082 C.ar    1  UNL1        0.0591
     43 CL         64.4582   81.1374   11.8333 Cl      1  UNL1       -0.0824
     44 C          61.8408   83.5833   13.6831 C.3     1  UNL1        0.1914
     45 C          63.9274   84.6945   14.6145 C.ar    1  UNL1        0.1837
     46 N          65.2005   84.3282   14.8530 N.ar    1  UNL1       -0.1081
     47 N          65.2896   83.0792   14.4146 N.ar    1  UNL1       -0.0227
     48 N          64.1232   82.6843   13.9257 N.ar    1  UNL1       -0.0427
     49 N          63.2594   83.6778   14.0331 N.ar    1  UNL1       -0.2079
     50 C          62.9174   86.9081   13.9019 C.ar    1  UNL1       -0.0192
     51 C          62.4025   88.1664   14.2620 C.ar    1  UNL1       -0.0042
     52 C          62.3479   88.5569   15.6007 C.ar    1  UNL1       -0.0003
     53 C          62.7934   87.6927   16.5992 C.ar    1  UNL1        0.0001
     54 C          63.2984   86.4363   16.2625 C.ar    1  UNL1        0.0028
     55 C          63.3780   86.0327   14.9192 C.ar    1  UNL1        0.0334
     56 C          62.2696   87.6095   11.5897 C.3     1  UNL1        0.0050
     57 C          62.9472   86.5372   12.4374 C.3     1  UNL1        0.0265
@<TRIPOS>BOND
     1    56    57    1
     2    57    50    1
     3    50    51   ar
     4    51    52   ar
     5    52    53   ar
     6    53    54   ar
     7    54    55   ar
     8    55    45    1
     9    45    46   ar
    10    46    47   ar
    11    47    48   ar
    12    48    49   ar
    13    49    44    1
    14    31    44    1
    15    31    36    1
    16    36    37   ar
    17    37    38   ar
    18    38    39   ar
    19    39    40    1
    20    39    41   ar
    21    41    42   ar
    22    42    43    1
    23    31    32    1
    24    32    33    1
    25    33    34    1
    26    34    30    1
    27    30     1    1
    28     1     2    1
    29     2     3   ar
    30     3     4   ar
    31     4     5   ar
    32     5     8    1
    33     8     9    1
    34     9    10    1
    35    10    11    1
    36    11    14    1
    37    14    15   ar
    38    15    16   ar
    39    16    17   ar
    40    17    20    1
    41    20    21   ar
    42    21    22   ar
    43    22    23   ar
    44    23    26    1
    45    26    27    1
    46    26    28    1
    47    28    29    1
    48    23    24   ar
    49    24    25    2
    50    17    18   ar
    51    18    19   ar
    52    11    12    1
    53    12    13    1
    54     5     6   ar
    55     6     7   ar
    56    34    35    1
    57    55    50   ar
    58    49    45   ar
    59    35    31    1
    60    42    36   ar
    61     7     2   ar
    62    13     8    1
    63    19    14   ar
    64    24    20   ar
