@<TRIPOS>MOLECULE
*****
 41 45 0 0 0
SMALL
GASTEIGER

@<TRIPOS>ATOM
      1 C         -62.6531  -42.9719  -24.7719 C.ar    1  UNL1        0.0450
      2 C         -62.9924  -42.1273  -25.8384 C.ar    1  UNL1        0.0085
      3 C         -62.6135  -42.4572  -27.1435 C.ar    1  UNL1        0.0052
      4 C         -61.8966  -43.6368  -27.3811 C.ar    1  UNL1        0.0529
      5 C         -61.5577  -44.4907  -26.3160 C.ar    1  UNL1        0.1407
      6 C         -61.9342  -44.1512  -25.0123 C.ar    1  UNL1        0.0452
      7 O         -60.8281  -45.6759  -26.5480 O.3     1  UNL1       -0.4770
      8 C         -60.5229  -46.2218  -27.8502 C.3     1  UNL1        0.1673
      9 C         -59.0423  -46.6189  -27.8719 C.3     1  UNL1        0.0498
     10 C         -61.4055  -47.4547  -28.0774 C.3     1  UNL1        0.0498
     11 C         -60.7966  -45.2047  -28.9336 C.ar    1  UNL1        0.0891
     12 N         -60.5588  -45.3238  -30.2482 N.ar    1  UNL1       -0.3380
     13 C         -61.0736  -44.1943  -30.7892 C.ar    1  UNL1        0.1417
     14 N         -61.6436  -43.3738  -29.8714 N.ar    1  UNL1       -0.2271
     15 C         -61.4566  -44.0357  -28.7141 C.ar    1  UNL1        0.1005
     16 H         -60.1180  -46.1304  -30.7437 H       1  UNL1        0.1672
     17 C         -61.0482  -43.8925  -32.2427 C.ar    1  UNL1        0.0531
     18 C         -62.2295  -43.4984  -32.9196 C.ar    1  UNL1        0.0720
     19 C         -62.1899  -43.2133  -34.2907 C.ar    1  UNL1        0.0104
     20 C         -60.9946  -43.3187  -34.9997 C.ar    1  UNL1        0.0014
     21 C         -59.8267  -43.7128  -34.3486 C.ar    1  UNL1        0.0104
     22 C         -59.8417  -44.0021  -32.9781 C.ar    1  UNL1        0.0720
     23 C         -63.5052  -43.4299  -32.2460 C.1     1  UNL1        0.1005
     24 N         -64.5278  -43.3755  -31.7067 N.1     1  UNL1       -0.1908
     25 C         -58.5966  -44.3697  -32.3446 C.1     1  UNL1        0.1005
     26 N         -57.5990  -44.6639  -31.8373 N.1     1  UNL1       -0.1908
     27 C         -63.3680  -42.3479  -22.3041 C.1     1  UNL1       -0.0598
     28 C         -63.0413  -42.6289  -23.4299 C.1     1  UNL1       -0.0597
     29 C         -64.6223  -41.3966  -18.3409 C.ar    1  UNL1        0.0347
     30 C         -65.5376  -41.8272  -19.3157 C.ar    1  UNL1        0.0035
     31 C         -65.1102  -42.1340  -20.6069 C.ar    1  UNL1        0.0083
     32 C         -63.7607  -42.0185  -20.9548 C.ar    1  UNL1        0.0459
     33 C         -62.8165  -41.5874  -19.9941 C.ar    1  UNL1        0.0791
     34 C         -63.2628  -41.2804  -18.6923 C.ar    1  UNL1        0.0073
     35 C         -61.3487  -41.4564  -20.3542 C.3     1  UNL1        0.4191
     36 F         -61.2007  -40.5238  -21.3651 F       1  UNL1       -0.1658
     37 F         -60.8676  -42.6777  -20.7908 F       1  UNL1       -0.1658
     38 F         -60.5838  -41.0501  -19.2741 F       1  UNL1       -0.1658
     39 C         -66.0190  -39.9208  -16.6959 C.3     1  UNL1        0.0773
     40 C         -65.0992  -41.0738  -16.9677 C.2     1  UNL1        0.1735
     41 O         -64.7266  -41.7827  -15.9933 O.2     1  UNL1       -0.2913
@<TRIPOS>BOND
     1    39    40    1
     2    40    41    2
     3    40    29    1
     4    29    30   ar
     5    30    31   ar
     6    31    32   ar
     7    32    27    1
     8    27    28    3
     9    28     1    1
    10     1     2   ar
    11     2     3   ar
    12     3     4   ar
    13     4     5   ar
    14     5     6   ar
    15     5     7    1
    16     7     8    1
    17     8     9    1
    18     8    10    1
    19     8    11    1
    20    11    12   ar
    21    12    13   ar
    22    13    17    1
    23    17    18   ar
    24    18    23    1
    25    23    24    3
    26    18    19   ar
    27    19    20   ar
    28    20    21   ar
    29    21    22   ar
    30    22    25    1
    31    25    26    3
    32    13    14   ar
    33    14    15   ar
    34    32    33   ar
    35    33    35    1
    36    35    36    1
    37    35    37    1
    38    35    38    1
    39    33    34   ar
    40    34    29   ar
    41     6     1   ar
    42    15    11   ar
    43    15     4    1
    44    22    17   ar
    45    12    16    1
@<TRIPOS>MOLECULE
*****
 41 45 0 0 0
SMALL
GASTEIGER

@<TRIPOS>ATOM
      1 C         -62.6583  -42.9844  -24.7772 C.ar    1  UNL1        0.0450
      2 C         -62.9774  -42.1304  -25.8424 C.ar    1  UNL1        0.0085
      3 C         -62.5980  -42.4624  -27.1468 C.ar    1  UNL1        0.0052
      4 C         -61.9008  -43.6536  -27.3851 C.ar    1  UNL1        0.0529
      5 C         -61.5822  -44.5170  -26.3213 C.ar    1  UNL1        0.1407
      6 C         -61.9590  -44.1755  -25.0183 C.ar    1  UNL1        0.0452
      7 O         -60.8726  -45.7142  -26.5540 O.3     1  UNL1       -0.4770
      8 C         -60.5706  -46.2609  -27.8566 C.3     1  UNL1        0.1673
      9 C         -59.0972  -46.6839  -27.8725 C.3     1  UNL1        0.0498
     10 C         -61.4738  -47.4772  -28.0924 C.3     1  UNL1        0.0498
     11 C         -60.8211  -45.2353  -28.9378 C.ar    1  UNL1        0.0891
     12 N         -60.5790  -45.3541  -30.2516 N.ar    1  UNL1       -0.3380
     13 C         -61.0711  -44.2138  -30.7911 C.ar    1  UNL1        0.1417
     14 N         -61.6310  -43.3866  -29.8732 N.ar    1  UNL1       -0.2271
     15 C         -61.4614  -44.0556  -28.7174 C.ar    1  UNL1        0.1005
     16 H         -60.1501  -46.1666  -30.7478 H       1  UNL1        0.1672
     17 C         -61.0333  -43.9076  -32.2434 C.ar    1  UNL1        0.0531
     18 C         -59.8231  -44.0159  -32.9735 C.ar    1  UNL1        0.0720
     19 C         -59.8030  -43.7271  -34.3441 C.ar    1  UNL1        0.0104
     20 C         -60.9669  -43.3279  -34.9989 C.ar    1  UNL1        0.0014
     21 C         -62.1625  -43.2096  -34.2920 C.ar    1  UNL1        0.0104
     22 C         -62.2071  -43.4938  -32.9211 C.ar    1  UNL1        0.0720
     23 C         -58.5774  -44.3683  -32.3330 C.1     1  UNL1        0.1005
     24 N         -57.5789  -44.6506  -31.8204 N.1     1  UNL1       -0.1908
     25 C         -63.4790  -43.3915  -32.2440 C.1     1  UNL1        0.1005
     26 N         -64.4981  -43.3100  -31.7017 N.1     1  UNL1       -0.1908
     27 C         -63.3729  -42.3565  -22.3103 C.1     1  UNL1       -0.0598
     28 C         -63.0469  -42.6393  -23.4359 C.1     1  UNL1       -0.0597
     29 C         -64.6212  -41.4008  -18.3463 C.ar    1  UNL1        0.0347
     30 C         -65.5350  -41.8505  -19.3140 C.ar    1  UNL1        0.0035
     31 C         -65.1096  -42.1585  -20.6055 C.ar    1  UNL1        0.0083
     32 C         -63.7636  -42.0251  -20.9610 C.ar    1  UNL1        0.0459
     33 C         -62.8211  -41.5746  -20.0076 C.ar    1  UNL1        0.0791
     34 C         -63.2653  -41.2666  -18.7053 C.ar    1  UNL1        0.0073
     35 C         -61.3572  -41.4241  -20.3760 C.3     1  UNL1        0.4191
     36 F         -60.8679  -42.6335  -20.8358 F       1  UNL1       -0.1658
     37 F         -60.6357  -41.0382  -19.2605 F       1  UNL1       -0.1658
     38 F         -61.1663  -40.4747  -21.3655 F       1  UNL1       -0.1658
     39 C         -65.9859  -39.9023  -16.6950 C.3     1  UNL1        0.0773
     40 C         -65.0959  -41.0771  -16.9726 C.2     1  UNL1        0.1735
     41 O         -64.7469  -41.8040  -16.0026 O.2     1  UNL1       -0.2913
@<TRIPOS>BOND
     1    39    40    1
     2    40    41    2
     3    40    29    1
     4    29    30   ar
     5    30    31   ar
     6    31    32   ar
     7    32    27    1
     8    27    28    3
     9    28     1    1
    10     1     2   ar
    11     2     3   ar
    12     3     4   ar
    13     4     5   ar
    14     5     6   ar
    15     5     7    1
    16     7     8    1
    17     8     9    1
    18     8    10    1
    19     8    11    1
    20    11    12   ar
    21    12    13   ar
    22    13    17    1
    23    17    18   ar
    24    18    23    1
    25    23    24    3
    26    18    19   ar
    27    19    20   ar
    28    20    21   ar
    29    21    22   ar
    30    22    25    1
    31    25    26    3
    32    13    14   ar
    33    14    15   ar
    34    32    33   ar
    35    33    35    1
    36    35    36    1
    37    35    37    1
    38    35    38    1
    39    33    34   ar
    40    34    29   ar
    41     6     1   ar
    42    15    11   ar
    43    15     4    1
    44    22    17   ar
    45    12    16    1
@<TRIPOS>MOLECULE
*****
 41 45 0 0 0
SMALL
GASTEIGER

@<TRIPOS>ATOM
      1 C         -62.8387  -42.8425  -24.8430 C.ar    1  UNL1        0.0450
      2 C         -63.1451  -42.0126  -25.9308 C.ar    1  UNL1        0.0085
      3 C         -62.7324  -42.3635  -27.2200 C.ar    1  UNL1        0.0052
      4 C         -62.0145  -43.5494  -27.4204 C.ar    1  UNL1        0.0529
      5 C         -61.7084  -44.3886  -26.3340 C.ar    1  UNL1        0.1407
      6 C         -62.1187  -44.0282  -25.0462 C.ar    1  UNL1        0.0452
      7 O         -60.9781  -45.5801  -26.5284 O.3     1  UNL1       -0.4770
      8 C         -60.6401  -46.1467  -27.8136 C.3     1  UNL1        0.1673
      9 C         -59.1612  -46.5500  -27.7891 C.3     1  UNL1        0.0498
     10 C         -61.5216  -47.3792  -28.0464 C.3     1  UNL1        0.0498
     11 C         -60.8797  -45.1447  -28.9191 C.ar    1  UNL1        0.0891
     12 N         -60.6069  -45.2844  -30.2248 N.ar    1  UNL1       -0.3380
     13 C         -61.1017  -44.1610  -30.7962 C.ar    1  UNL1        0.1417
     14 N         -61.6928  -43.3246  -29.9066 N.ar    1  UNL1       -0.2271
     15 C         -61.5403  -43.9699  -28.7350 C.ar    1  UNL1        0.1005
     16 H         -60.1564  -46.1001  -30.6961 H       1  UNL1        0.1672
     17 C         -61.0355  -43.8811  -32.2528 C.ar    1  UNL1        0.0531
     18 C         -62.1958  -43.4905  -32.9671 C.ar    1  UNL1        0.0720
     19 C         -62.1179  -43.2262  -34.3406 C.ar    1  UNL1        0.0104
     20 C         -60.9045  -43.3488  -35.0155 C.ar    1  UNL1        0.0014
     21 C         -59.7570  -43.7397  -34.3275 C.ar    1  UNL1        0.0104
     22 C         -59.8105  -44.0084  -32.9539 C.ar    1  UNL1        0.0720
     23 C         -63.4888  -43.4048  -32.3291 C.1     1  UNL1        0.1005
     24 N         -64.5249  -43.3369  -31.8178 N.1     1  UNL1       -0.1908
     25 C         -58.5851  -44.3735  -32.2817 C.1     1  UNL1        0.1005
     26 N         -57.6033  -44.6662  -31.7434 N.1     1  UNL1       -0.1908
     27 C         -63.6175  -42.1789  -22.4050 C.1     1  UNL1       -0.0598
     28 C         -63.2616  -42.4780  -23.5172 C.1     1  UNL1       -0.0597
     29 C         -64.7999  -41.1858  -18.4300 C.ar    1  UNL1        0.0347
     30 C         -63.6149  -41.8955  -18.6863 C.ar    1  UNL1        0.0035
     31 C         -63.2434  -42.2120  -19.9924 C.ar    1  UNL1        0.0083
     32 C         -64.0451  -41.8277  -21.0720 C.ar    1  UNL1        0.0459
     33 C         -65.2436  -41.1123  -20.8441 C.ar    1  UNL1        0.0791
     34 C         -65.6070  -40.7992  -19.5182 C.ar    1  UNL1        0.0073
     35 C         -66.1253  -40.6877  -22.0033 C.3     1  UNL1        0.4191
     36 F         -66.6244  -41.8089  -22.6414 F       1  UNL1       -0.1658
     37 F         -65.3815  -39.9472  -22.9045 F       1  UNL1       -0.1658
     38 F         -67.1950  -39.9145  -21.5854 F       1  UNL1       -0.1658
     39 C         -65.9698  -39.6310  -16.6840 C.3     1  UNL1        0.0773
     40 C         -65.1786  -40.8578  -17.0278 C.2     1  UNL1        0.1735
     41 O         -64.8303  -41.6259  -16.0897 O.2     1  UNL1       -0.2913
@<TRIPOS>BOND
     1    39    40    1
     2    40    41    2
     3    40    29    1
     4    29    30   ar
     5    30    31   ar
     6    31    32   ar
     7    32    27    1
     8    27    28    3
     9    28     1    1
    10     1     2   ar
    11     2     3   ar
    12     3     4   ar
    13     4     5   ar
    14     5     6   ar
    15     5     7    1
    16     7     8    1
    17     8     9    1
    18     8    10    1
    19     8    11    1
    20    11    12   ar
    21    12    13   ar
    22    13    17    1
    23    17    18   ar
    24    18    23    1
    25    23    24    3
    26    18    19   ar
    27    19    20   ar
    28    20    21   ar
    29    21    22   ar
    30    22    25    1
    31    25    26    3
    32    13    14   ar
    33    14    15   ar
    34    32    33   ar
    35    33    35    1
    36    35    36    1
    37    35    37    1
    38    35    38    1
    39    33    34   ar
    40    34    29   ar
    41     6     1   ar
    42    15    11   ar
    43    15     4    1
    44    22    17   ar
    45    12    16    1
@<TRIPOS>MOLECULE
*****
 41 45 0 0 0
SMALL
GASTEIGER

@<TRIPOS>ATOM
      1 C         -63.7345  -49.4792  -26.1270 C.ar    1  UNL1        0.0450
      2 C         -63.7286  -49.6000  -27.5239 C.ar    1  UNL1        0.0085
      3 C         -63.3590  -48.5123  -28.3214 C.ar    1  UNL1        0.0052
      4 C         -62.9913  -47.3027  -27.7185 C.ar    1  UNL1        0.0529
      5 C         -62.9903  -47.1768  -26.3176 C.ar    1  UNL1        0.1407
      6 C         -63.3674  -48.2667  -25.5263 C.ar    1  UNL1        0.0452
      7 O         -62.6292  -45.9582  -25.7048 O.3     1  UNL1       -0.4770
      8 C         -62.0673  -44.8180  -26.3911 C.3     1  UNL1        0.1673
      9 C         -62.8052  -43.5595  -25.9200 C.3     1  UNL1        0.0498
     10 C         -60.5789  -44.7239  -26.0354 C.3     1  UNL1        0.0498
     11 C         -62.2150  -44.9687  -27.8874 C.ar    1  UNL1        0.0891
     12 N         -61.8859  -44.0803  -28.8368 N.ar    1  UNL1       -0.3380
     13 C         -62.1140  -44.7303  -30.0025 C.ar    1  UNL1        0.1417
     14 N         -62.5571  -46.0007  -29.8283 N.ar    1  UNL1       -0.2271
     15 C         -62.6087  -46.1236  -28.4887 C.ar    1  UNL1        0.1005
     16 H         -61.4965  -43.1209  -28.7017 H       1  UNL1        0.1672
     17 C         -61.8756  -44.1302  -31.3395 C.ar    1  UNL1        0.0531
     18 C         -60.5878  -44.1702  -31.9302 C.ar    1  UNL1        0.0720
     19 C         -60.3781  -43.6030  -33.1939 C.ar    1  UNL1        0.0104
     20 C         -61.4286  -42.9926  -33.8770 C.ar    1  UNL1        0.0014
     21 C         -62.6986  -42.9391  -33.3049 C.ar    1  UNL1        0.0104
     22 C         -62.9323  -43.5001  -32.0429 C.ar    1  UNL1        0.0720
     23 C         -59.4523  -44.7378  -31.2413 C.1     1  UNL1        0.1005
     24 N         -58.5426  -45.1924  -30.6887 N.1     1  UNL1       -0.1908
     25 C         -64.2748  -43.4505  -31.5119 C.1     1  UNL1        0.1005
     26 N         -65.3502  -43.4105  -31.0862 N.1     1  UNL1       -0.1908
     27 C         -64.4380  -51.5404  -24.6281 C.1     1  UNL1       -0.0598
     28 C         -64.1181  -50.5984  -25.3088 C.1     1  UNL1       -0.0597
     29 C         -65.6544  -54.8847  -22.2783 C.ar    1  UNL1        0.0347
     30 C         -66.5274  -54.2780  -23.1967 C.ar    1  UNL1        0.0035
     31 C         -66.1131  -53.1851  -23.9569 C.ar    1  UNL1        0.0083
     32 C         -64.8192  -52.6729  -23.8186 C.ar    1  UNL1        0.0459
     33 C         -63.9186  -53.2634  -22.9018 C.ar    1  UNL1        0.0791
     34 C         -64.3510  -54.3679  -22.1395 C.ar    1  UNL1        0.0073
     35 C         -62.5113  -52.7206  -22.7388 C.3     1  UNL1        0.4191
     36 F         -62.5670  -51.3757  -22.4201 F       1  UNL1       -0.1658
     37 F         -61.8140  -52.8769  -23.9233 F       1  UNL1       -0.1658
     38 F         -61.8158  -53.3753  -21.7366 F       1  UNL1       -0.1658
     39 C         -66.9704  -55.8872  -20.2540 C.3     1  UNL1        0.0773
     40 C         -66.1164  -56.0509  -21.4759 C.2     1  UNL1        0.1735
     41 O         -65.7873  -57.2183  -21.8222 O.2     1  UNL1       -0.2913
@<TRIPOS>BOND
     1    39    40    1
     2    40    41    2
     3    40    29    1
     4    29    30   ar
     5    30    31   ar
     6    31    32   ar
     7    32    27    1
     8    27    28    3
     9    28     1    1
    10     1     2   ar
    11     2     3   ar
    12     3     4   ar
    13     4     5   ar
    14     5     6   ar
    15     5     7    1
    16     7     8    1
    17     8     9    1
    18     8    10    1
    19     8    11    1
    20    11    12   ar
    21    12    13   ar
    22    13    17    1
    23    17    18   ar
    24    18    23    1
    25    23    24    3
    26    18    19   ar
    27    19    20   ar
    28    20    21   ar
    29    21    22   ar
    30    22    25    1
    31    25    26    3
    32    13    14   ar
    33    14    15   ar
    34    32    33   ar
    35    33    35    1
    36    35    36    1
    37    35    37    1
    38    35    38    1
    39    33    34   ar
    40    34    29   ar
    41     6     1   ar
    42    15    11   ar
    43    15     4    1
    44    22    17   ar
    45    12    16    1
@<TRIPOS>MOLECULE
*****
 41 45 0 0 0
SMALL
GASTEIGER

@<TRIPOS>ATOM
      1 C         -62.9098  -42.3984  -24.9762 C.ar    1  UNL1        0.0450
      2 C         -63.1194  -41.6076  -26.1149 C.ar    1  UNL1        0.0085
      3 C         -62.6721  -42.0448  -27.3656 C.ar    1  UNL1        0.0052
      4 C         -62.0168  -43.2777  -27.4766 C.ar    1  UNL1        0.0529
      5 C         -61.8080  -44.0778  -26.3388 C.ar    1  UNL1        0.1407
      6 C         -62.2522  -43.6314  -25.0898 C.ar    1  UNL1        0.0452
      7 O         -61.1408  -45.3168  -26.4429 O.3     1  UNL1       -0.4770
      8 C         -60.7808  -45.9646  -27.6829 C.3     1  UNL1        0.1673
      9 C         -59.3305  -46.4488  -27.5709 C.3     1  UNL1        0.0498
     10 C         -61.7220  -47.1556  -27.8981 C.3     1  UNL1        0.0498
     11 C         -60.9130  -45.0068  -28.8442 C.ar    1  UNL1        0.0891
     12 N         -60.5922  -45.2263  -30.1279 N.ar    1  UNL1       -0.3380
     13 C         -60.9951  -44.1066  -30.7739 C.ar    1  UNL1        0.1417
     14 N         -61.5745  -43.1951  -29.9529 N.ar    1  UNL1       -0.2271
     15 C         -61.5111  -43.7890  -28.7465 C.ar    1  UNL1        0.1005
     16 H         -60.1700  -46.0885  -30.5388 H       1  UNL1        0.1672
     17 C         -60.8492  -43.9036  -32.2374 C.ar    1  UNL1        0.0531
     18 C         -59.6024  -44.1194  -32.8762 C.ar    1  UNL1        0.0720
     19 C         -59.4802  -43.9273  -34.2584 C.ar    1  UNL1        0.0104
     20 C         -60.5779  -43.5195  -35.0144 C.ar    1  UNL1        0.0014
     21 C         -61.8082  -43.2959  -34.3985 C.ar    1  UNL1        0.0104
     22 C         -61.9545  -43.4823  -33.0179 C.ar    1  UNL1        0.0720
     23 C         -58.4199  -44.4855  -32.1320 C.1     1  UNL1        0.1005
     24 N         -57.4721  -44.7783  -31.5359 N.1     1  UNL1       -0.1908
     25 C         -63.2599  -43.2732  -32.4356 C.1     1  UNL1        0.1005
     26 N         -64.3054  -43.1058  -31.9687 N.1     1  UNL1       -0.1908
     27 C         -63.7537  -41.5718  -22.6109 C.1     1  UNL1       -0.0598
     28 C         -63.3680  -41.9453  -23.6901 C.1     1  UNL1       -0.0597
     29 C         -65.0355  -40.2953  -18.7492 C.ar    1  UNL1        0.0347
     30 C         -63.7473  -40.8150  -18.9590 C.ar    1  UNL1        0.0035
     31 C         -63.3447  -41.2277  -20.2284 C.ar    1  UNL1        0.0083
     32 C         -64.2174  -41.1315  -21.3169 C.ar    1  UNL1        0.0459
     33 C         -65.5204  -40.6122  -21.1355 C.ar    1  UNL1        0.0791
     34 C         -65.9142  -40.1987  -19.8463 C.ar    1  UNL1        0.0073
     35 C         -66.4802  -40.5007  -22.3051 C.3     1  UNL1        0.4191
     36 F         -67.6648  -39.9269  -21.8797 F       1  UNL1       -0.1658
     37 F         -66.7434  -41.7611  -22.8107 F       1  UNL1       -0.1658
     38 F         -65.9640  -39.7226  -23.3273 F       1  UNL1       -0.1658
     39 C         -66.1162  -40.7930  -16.4212 C.3     1  UNL1        0.0773
     40 C         -65.4460  -39.8601  -17.3855 C.2     1  UNL1        0.1735
     41 O         -65.2301  -38.6736  -17.0161 O.2     1  UNL1       -0.2913
@<TRIPOS>BOND
     1    39    40    1
     2    40    41    2
     3    40    29    1
     4    29    30   ar
     5    30    31   ar
     6    31    32   ar
     7    32    27    1
     8    27    28    3
     9    28     1    1
    10     1     2   ar
    11     2     3   ar
    12     3     4   ar
    13     4     5   ar
    14     5     6   ar
    15     5     7    1
    16     7     8    1
    17     8     9    1
    18     8    10    1
    19     8    11    1
    20    11    12   ar
    21    12    13   ar
    22    13    17    1
    23    17    18   ar
    24    18    23    1
    25    23    24    3
    26    18    19   ar
    27    19    20   ar
    28    20    21   ar
    29    21    22   ar
    30    22    25    1
    31    25    26    3
    32    13    14   ar
    33    14    15   ar
    34    32    33   ar
    35    33    35    1
    36    35    36    1
    37    35    37    1
    38    35    38    1
    39    33    34   ar
    40    34    29   ar
    41     6     1   ar
    42    15    11   ar
    43    15     4    1
    44    22    17   ar
    45    12    16    1
@<TRIPOS>MOLECULE
*****
 41 45 0 0 0
SMALL
GASTEIGER

@<TRIPOS>ATOM
      1 C         -63.7287  -49.4735  -26.1268 C.ar    1  UNL1        0.0450
      2 C         -63.7241  -49.5951  -27.5236 C.ar    1  UNL1        0.0085
      3 C         -63.3541  -48.5083  -28.3220 C.ar    1  UNL1        0.0052
      4 C         -62.9848  -47.2987  -27.7201 C.ar    1  UNL1        0.0529
      5 C         -62.9825  -47.1720  -26.3193 C.ar    1  UNL1        0.1407
      6 C         -63.3600  -48.2611  -25.5270 C.ar    1  UNL1        0.0452
      7 O         -62.6198  -45.9534  -25.7075 O.3     1  UNL1       -0.4770
      8 C         -62.0574  -44.8141  -26.3949 C.3     1  UNL1        0.1673
      9 C         -62.7937  -43.5547  -25.9238 C.3     1  UNL1        0.0498
     10 C         -60.5686  -44.7212  -26.0404 C.3     1  UNL1        0.0498
     11 C         -62.2065  -44.9655  -27.8910 C.ar    1  UNL1        0.0891
     12 N         -61.8774  -44.0780  -28.8412 N.ar    1  UNL1       -0.3380
     13 C         -62.1071  -44.7284  -30.0063 C.ar    1  UNL1        0.1417
     14 N         -62.5512  -45.9982  -29.8310 N.ar    1  UNL1       -0.2271
     15 C         -62.6018  -46.1203  -28.4913 C.ar    1  UNL1        0.1005
     16 H         -61.4869  -43.1188  -28.7069 H       1  UNL1        0.1672
     17 C         -61.8692  -44.1292  -31.3437 C.ar    1  UNL1        0.0531
     18 C         -62.9291  -43.5216  -32.0623 C.ar    1  UNL1        0.0720
     19 C         -62.6893  -42.9571  -33.3218 C.ar    1  UNL1        0.0104
     20 C         -61.4125  -42.9918  -33.8797 C.ar    1  UNL1        0.0014
     21 C         -60.3622  -43.5930  -33.1878 C.ar    1  UNL1        0.0104
     22 C         -60.5779  -44.1632  -31.9267 C.ar    1  UNL1        0.0720
     23 C         -64.2821  -43.5100  -31.5569 C.1     1  UNL1        0.1005
     24 N         -65.3661  -43.5009  -31.1513 N.1     1  UNL1       -0.1908
     25 C         -59.4477  -44.7401  -31.2363 C.1     1  UNL1        0.1005
     26 N         -58.5425  -45.2021  -30.6828 N.1     1  UNL1       -0.1908
     27 C         -64.4317  -51.5333  -24.6256 C.1     1  UNL1       -0.0598
     28 C         -64.1127  -50.5920  -25.3076 C.1     1  UNL1       -0.0597
     29 C         -65.6410  -54.8762  -22.2701 C.ar    1  UNL1        0.0347
     30 C         -66.5108  -54.2814  -23.1993 C.ar    1  UNL1        0.0035
     31 C         -66.0990  -53.1888  -23.9612 C.ar    1  UNL1        0.0083
     32 C         -64.8107  -52.6650  -23.8139 C.ar    1  UNL1        0.0459
     33 C         -63.9134  -53.2434  -22.8862 C.ar    1  UNL1        0.0791
     34 C         -64.3433  -54.3478  -22.1223 C.ar    1  UNL1        0.0073
     35 C         -62.5123  -52.6880  -22.7133 C.3     1  UNL1        0.4191
     36 F         -62.5825  -51.3456  -22.3868 F       1  UNL1       -0.1658
     37 F         -61.8080  -52.8303  -23.8955 F       1  UNL1       -0.1658
     38 F         -61.8150  -53.3419  -21.7118 F       1  UNL1       -0.1658
     39 C         -66.9400  -55.8777  -20.2344 C.3     1  UNL1        0.0773
     40 C         -66.1004  -56.0423  -21.4661 C.2     1  UNL1        0.1735
     41 O         -65.7813  -57.2104  -21.8194 O.2     1  UNL1       -0.2913
@<TRIPOS>BOND
     1    39    40    1
     2    40    41    2
     3    40    29    1
     4    29    30   ar
     5    30    31   ar
     6    31    32   ar
     7    32    27    1
     8    27    28    3
     9    28     1    1
    10     1     2   ar
    11     2     3   ar
    12     3     4   ar
    13     4     5   ar
    14     5     6   ar
    15     5     7    1
    16     7     8    1
    17     8     9    1
    18     8    10    1
    19     8    11    1
    20    11    12   ar
    21    12    13   ar
    22    13    17    1
    23    17    18   ar
    24    18    23    1
    25    23    24    3
    26    18    19   ar
    27    19    20   ar
    28    20    21   ar
    29    21    22   ar
    30    22    25    1
    31    25    26    3
    32    13    14   ar
    33    14    15   ar
    34    32    33   ar
    35    33    35    1
    36    35    36    1
    37    35    37    1
    38    35    38    1
    39    33    34   ar
    40    34    29   ar
    41     6     1   ar
    42    15    11   ar
    43    15     4    1
    44    22    17   ar
    45    12    16    1
@<TRIPOS>MOLECULE
*****
 41 45 0 0 0
SMALL
GASTEIGER

@<TRIPOS>ATOM
      1 C         -62.6304  -43.0176  -21.9155 C.ar    1  UNL1        0.0450
      2 C         -62.5641  -44.1334  -21.0689 C.ar    1  UNL1        0.0085
      3 C         -62.3813  -45.4119  -21.6052 C.ar    1  UNL1        0.0052
      4 C         -62.2613  -45.5727  -22.9914 C.ar    1  UNL1        0.0529
      5 C         -62.3220  -44.4568  -23.8454 C.ar    1  UNL1        0.1407
      6 C         -62.5115  -43.1816  -23.3028 C.ar    1  UNL1        0.0452
      7 O         -62.2104  -44.6134  -25.2432 O.3     1  UNL1       -0.4770
      8 C         -61.8515  -45.8408  -25.9154 C.3     1  UNL1        0.1673
      9 C         -62.8230  -46.0537  -27.0821 C.3     1  UNL1        0.0498
     10 C         -60.4168  -45.7047  -26.4385 C.3     1  UNL1        0.0498
     11 C         -61.9278  -47.0128  -24.9646 C.ar    1  UNL1        0.0891
     12 N         -61.7437  -48.3108  -25.2477 N.ar    1  UNL1       -0.3380
     13 C         -61.8153  -48.9327  -24.0471 C.ar    1  UNL1        0.1417
     14 N         -62.0192  -48.0778  -23.0136 N.ar    1  UNL1       -0.2271
     15 C         -62.0836  -46.8777  -23.6201 C.ar    1  UNL1        0.1005
     16 H         -61.5431  -48.7355  -26.1803 H       1  UNL1        0.1672
     17 C         -61.6561  -50.3981  -23.8688 C.ar    1  UNL1        0.0531
     18 C         -62.7507  -51.2744  -24.0760 C.ar    1  UNL1        0.0720
     19 C         -62.5850  -52.6552  -23.9075 C.ar    1  UNL1        0.0104
     20 C         -61.3486  -53.1775  -23.5318 C.ar    1  UNL1        0.0014
     21 C         -60.2653  -52.3269  -23.3171 C.ar    1  UNL1        0.0104
     22 C         -60.4069  -50.9429  -23.4802 C.ar    1  UNL1        0.0720
     23 C         -64.0670  -50.7817  -24.4089 C.1     1  UNL1        0.1005
     24 N         -65.1214  -50.3864  -24.6758 N.1     1  UNL1       -0.1908
     25 C         -59.2436  -50.1098  -23.2818 C.1     1  UNL1        0.1005
     26 N         -58.3118  -49.4421  -23.1229 N.1     1  UNL1       -0.1908
     27 C         -62.9857  -40.6053  -20.8932 C.1     1  UNL1       -0.0598
     28 C         -62.8216  -41.7037  -21.3619 C.1     1  UNL1       -0.0597
     29 C         -63.5230  -36.6893  -19.2927 C.ar    1  UNL1        0.0347
     30 C         -62.7555  -36.9096  -20.4485 C.ar    1  UNL1        0.0035
     31 C         -62.5901  -38.1967  -20.9582 C.ar    1  UNL1        0.0083
     32 C         -63.1864  -39.2930  -20.3269 C.ar    1  UNL1        0.0459
     33 C         -63.9647  -39.1014  -19.1616 C.ar    1  UNL1        0.0791
     34 C         -64.1234  -37.7943  -18.6572 C.ar    1  UNL1        0.0073
     35 C         -64.6187  -40.2791  -18.4640 C.3     1  UNL1        0.4191
     36 F         -65.5345  -40.8718  -19.3146 F       1  UNL1       -0.1658
     37 F         -65.2744  -39.8394  -17.3280 F       1  UNL1       -0.1658
     38 F         -63.6936  -41.2377  -18.0870 F       1  UNL1       -0.1658
     39 C         -65.0387  -34.6963  -18.5409 C.3     1  UNL1        0.0773
     40 C         -63.6872  -35.3068  -18.7645 C.2     1  UNL1        0.1735
     41 O         -62.6676  -34.6159  -18.4923 O.2     1  UNL1       -0.2913
@<TRIPOS>BOND
     1    39    40    1
     2    40    41    2
     3    40    29    1
     4    29    30   ar
     5    30    31   ar
     6    31    32   ar
     7    32    27    1
     8    27    28    3
     9    28     1    1
    10     1     2   ar
    11     2     3   ar
    12     3     4   ar
    13     4     5   ar
    14     5     6   ar
    15     5     7    1
    16     7     8    1
    17     8     9    1
    18     8    10    1
    19     8    11    1
    20    11    12   ar
    21    12    13   ar
    22    13    17    1
    23    17    18   ar
    24    18    23    1
    25    23    24    3
    26    18    19   ar
    27    19    20   ar
    28    20    21   ar
    29    21    22   ar
    30    22    25    1
    31    25    26    3
    32    13    14   ar
    33    14    15   ar
    34    32    33   ar
    35    33    35    1
    36    35    36    1
    37    35    37    1
    38    35    38    1
    39    33    34   ar
    40    34    29   ar
    41     6     1   ar
    42    15    11   ar
    43    15     4    1
    44    22    17   ar
    45    12    16    1
@<TRIPOS>MOLECULE
*****
 41 45 0 0 0
SMALL
GASTEIGER

@<TRIPOS>ATOM
      1 C         -62.6112  -43.0498  -21.9138 C.ar    1  UNL1        0.0450
      2 C         -62.6025  -44.1693  -21.0698 C.ar    1  UNL1        0.0085
      3 C         -62.4178  -45.4490  -21.6024 C.ar    1  UNL1        0.0052
      4 C         -62.2380  -45.6073  -22.9825 C.ar    1  UNL1        0.0529
      5 C         -62.2408  -44.4876  -23.8337 C.ar    1  UNL1        0.1407
      6 C         -62.4326  -43.2112  -23.2950 C.ar    1  UNL1        0.0452
      7 O         -62.0688  -44.6415  -25.2257 O.3     1  UNL1       -0.4770
      8 C         -61.7012  -45.8727  -25.8861 C.3     1  UNL1        0.1673
      9 C         -62.6224  -46.0647  -27.0963 C.3     1  UNL1        0.0498
     10 C         -60.2421  -45.7599  -26.3434 C.3     1  UNL1        0.0498
     11 C         -61.8406  -47.0464  -24.9445 C.ar    1  UNL1        0.0891
     12 N         -61.6663  -48.3465  -25.2244 N.ar    1  UNL1       -0.3380
     13 C         -61.8028  -48.9711  -24.0308 C.ar    1  UNL1        0.1417
     14 N         -62.0385  -48.1162  -23.0041 N.ar    1  UNL1       -0.2271
     15 C         -62.0547  -46.9131  -23.6079 C.ar    1  UNL1        0.1005
     16 H         -61.4311  -48.7715  -26.1488 H       1  UNL1        0.1672
     17 C         -61.6772  -50.4395  -23.8516 C.ar    1  UNL1        0.0531
     18 C         -60.4404  -51.0178  -23.4705 C.ar    1  UNL1        0.0720
     19 C         -60.3374  -52.4047  -23.3016 C.ar    1  UNL1        0.0104
     20 C         -61.4442  -53.2256  -23.5103 C.ar    1  UNL1        0.0014
     21 C         -62.6648  -52.6716  -23.8929 C.ar    1  UNL1        0.0104
     22 C         -62.7920  -51.2875  -24.0670 C.ar    1  UNL1        0.0720
     23 C         -59.2487  -50.2201  -23.2985 C.1     1  UNL1        0.1005
     24 N         -58.2942  -49.5804  -23.1605 N.1     1  UNL1       -0.1908
     25 C         -64.0881  -50.7614  -24.4276 C.1     1  UNL1        0.1005
     26 N         -65.1262  -50.3396  -24.7167 N.1     1  UNL1       -0.1908
     27 C         -62.9697  -40.6352  -20.8980 C.1     1  UNL1       -0.0598
     28 C         -62.8045  -41.7346  -21.3640 C.1     1  UNL1       -0.0597
     29 C         -63.5083  -36.7161  -19.3055 C.ar    1  UNL1        0.0347
     30 C         -62.7416  -36.9384  -20.4615 C.ar    1  UNL1        0.0035
     31 C         -62.5758  -38.2265  -20.9686 C.ar    1  UNL1        0.0083
     32 C         -63.1708  -39.3218  -20.3344 C.ar    1  UNL1        0.0459
     33 C         -63.9483  -39.1282  -19.1689 C.ar    1  UNL1        0.0791
     34 C         -64.1074  -37.8201  -18.6673 C.ar    1  UNL1        0.0073
     35 C         -64.6009  -40.3048  -18.4682 C.3     1  UNL1        0.4191
     36 F         -65.5256  -40.8926  -19.3126 F       1  UNL1       -0.1658
     37 F         -65.2459  -39.8648  -17.3262 F       1  UNL1       -0.1658
     38 F         -63.6763  -41.2674  -18.1004 F       1  UNL1       -0.1658
     39 C         -65.0247  -34.7204  -18.5623 C.3     1  UNL1        0.0773
     40 C         -63.6730  -35.3326  -18.7802 C.2     1  UNL1        0.1735
     41 O         -62.6537  -34.6421  -18.5058 O.2     1  UNL1       -0.2913
@<TRIPOS>BOND
     1    39    40    1
     2    40    41    2
     3    40    29    1
     4    29    30   ar
     5    30    31   ar
     6    31    32   ar
     7    32    27    1
     8    27    28    3
     9    28     1    1
    10     1     2   ar
    11     2     3   ar
    12     3     4   ar
    13     4     5   ar
    14     5     6   ar
    15     5     7    1
    16     7     8    1
    17     8     9    1
    18     8    10    1
    19     8    11    1
    20    11    12   ar
    21    12    13   ar
    22    13    17    1
    23    17    18   ar
    24    18    23    1
    25    23    24    3
    26    18    19   ar
    27    19    20   ar
    28    20    21   ar
    29    21    22   ar
    30    22    25    1
    31    25    26    3
    32    13    14   ar
    33    14    15   ar
    34    32    33   ar
    35    33    35    1
    36    35    36    1
    37    35    37    1
    38    35    38    1
    39    33    34   ar
    40    34    29   ar
    41     6     1   ar
    42    15    11   ar
    43    15     4    1
    44    22    17   ar
    45    12    16    1
@<TRIPOS>MOLECULE
*****
 41 45 0 0 0
SMALL
GASTEIGER

@<TRIPOS>ATOM
      1 C         -63.0470  -42.3674  -25.9417 C.ar    1  UNL1        0.0450
      2 C         -64.0843  -41.5723  -25.4339 C.ar    1  UNL1        0.0085
      3 C         -64.2288  -41.4042  -24.0532 C.ar    1  UNL1        0.0052
      4 C         -63.3307  -42.0306  -23.1797 C.ar    1  UNL1        0.0529
      5 C         -62.2851  -42.8253  -23.6832 C.ar    1  UNL1        0.1407
      6 C         -62.1504  -42.9945  -25.0651 C.ar    1  UNL1        0.0452
      7 O         -61.3824  -43.4658  -22.8080 O.3     1  UNL1       -0.4770
      8 C         -61.3096  -43.2446  -21.3823 C.3     1  UNL1        0.1673
      9 C         -61.2285  -44.6080  -20.6861 C.3     1  UNL1        0.0498
     10 C         -60.0510  -42.4215  -21.0838 C.3     1  UNL1        0.0498
     11 C         -62.5261  -42.4920  -20.8954 C.ar    1  UNL1        0.0891
     12 N         -62.8438  -42.1788  -19.6305 N.ar    1  UNL1       -0.3380
     13 C         -63.9609  -41.4216  -19.7395 C.ar    1  UNL1        0.1417
     14 N         -64.3523  -41.2282  -21.0240 N.ar    1  UNL1       -0.2271
     15 C         -63.4305  -41.9107  -21.7287 C.ar    1  UNL1        0.1005
     16 H         -62.3173  -42.4261  -18.7633 H       1  UNL1        0.1672
     17 C         -64.6726  -40.8330  -18.5770 C.ar    1  UNL1        0.0531
     18 C         -65.4108  -41.6556  -17.6895 C.ar    1  UNL1        0.0720
     19 C         -66.0745  -41.0870  -16.5947 C.ar    1  UNL1        0.0104
     20 C         -66.0191  -39.7123  -16.3715 C.ar    1  UNL1        0.0014
     21 C         -65.3034  -38.8902  -17.2403 C.ar    1  UNL1        0.0104
     22 C         -64.6311  -39.4362  -18.3413 C.ar    1  UNL1        0.0720
     23 C         -65.5493  -43.0767  -17.9072 C.1     1  UNL1        0.1005
     24 N         -65.6599  -44.2154  -18.0822 N.1     1  UNL1       -0.1908
     25 C         -63.8735  -38.5450  -19.1889 C.1     1  UNL1        0.1005
     26 N         -63.2663  -37.8309  -19.8677 N.1     1  UNL1       -0.1908
     27 C         -62.7793  -42.6810  -28.5533 C.1     1  UNL1       -0.0598
     28 C         -62.9022  -42.5415  -27.3623 C.1     1  UNL1       -0.0597
     29 C         -62.2415  -43.1424  -32.7584 C.ar    1  UNL1        0.0347
     30 C         -61.1508  -42.9285  -31.8992 C.ar    1  UNL1        0.0035
     31 C         -61.3447  -42.7797  -30.5266 C.ar    1  UNL1        0.0083
     32 C         -62.6306  -42.8408  -29.9800 C.ar    1  UNL1        0.0459
     33 C         -63.7475  -43.0551  -30.8207 C.ar    1  UNL1        0.0791
     34 C         -63.5365  -43.2038  -32.2069 C.ar    1  UNL1        0.0073
     35 C         -65.1493  -43.1242  -30.2448 C.3     1  UNL1        0.4191
     36 F         -66.0563  -43.3687  -31.2602 F       1  UNL1       -0.1658
     37 F         -65.4614  -41.9204  -29.6388 F       1  UNL1       -0.1658
     38 F         -65.2734  -44.1296  -29.3012 F       1  UNL1       -0.1658
     39 C         -60.6427  -43.5087  -34.7942 C.3     1  UNL1        0.0773
     40 C         -62.0128  -43.2988  -34.2215 C.2     1  UNL1        0.1735
     41 O         -62.9917  -43.2555  -35.0158 O.2     1  UNL1       -0.2913
@<TRIPOS>BOND
     1    39    40    1
     2    40    41    2
     3    40    29    1
     4    29    30   ar
     5    30    31   ar
     6    31    32   ar
     7    32    27    1
     8    27    28    3
     9    28     1    1
    10     1     2   ar
    11     2     3   ar
    12     3     4   ar
    13     4     5   ar
    14     5     6   ar
    15     5     7    1
    16     7     8    1
    17     8     9    1
    18     8    10    1
    19     8    11    1
    20    11    12   ar
    21    12    13   ar
    22    13    17    1
    23    17    18   ar
    24    18    23    1
    25    23    24    3
    26    18    19   ar
    27    19    20   ar
    28    20    21   ar
    29    21    22   ar
    30    22    25    1
    31    25    26    3
    32    13    14   ar
    33    14    15   ar
    34    32    33   ar
    35    33    35    1
    36    35    36    1
    37    35    37    1
    38    35    38    1
    39    33    34   ar
    40    34    29   ar
    41     6     1   ar
    42    15    11   ar
    43    15     4    1
    44    22    17   ar
    45    12    16    1
