@<TRIPOS>MOLECULE
*****
 38 42 0 0 0
SMALL
GASTEIGER

@<TRIPOS>ATOM
      1 C         -22.2668   -9.6942  -13.3504 C.2     1  UNL1        0.2506
      2 O         -21.9864   -9.9714  -14.5481 O.2     1  UNL1       -0.2699
      3 N         -23.5300   -9.0774  -13.0309 N.am    1  UNL1       -0.2680
      4 C         -24.2530   -9.4735  -11.8178 C.3     1  UNL1        0.1412
      5 C         -24.0970   -8.4036  -10.7394 C.3     1  UNL1        0.2268
      6 O         -24.0043   -7.0974  -11.3048 O.3     1  UNL1       -0.4739
      7 C         -24.9400   -6.6045  -12.2169 C.ar    1  UNL1        0.1362
      8 C         -25.7093   -5.4991  -11.8402 C.ar    1  UNL1        0.0366
      9 C         -26.6798   -4.9843  -12.6991 C.ar    1  UNL1        0.0031
     10 C         -26.8903   -5.5663  -13.9556 C.ar    1  UNL1        0.0005
     11 C         -26.0932   -6.6495  -14.3547 C.ar    1  UNL1        0.0004
     12 C         -25.1185   -7.1878  -13.4959 C.ar    1  UNL1        0.0317
     13 C         -24.2112   -8.2717  -14.0543 C.3     1  UNL1        0.1236
     14 C         -27.9008   -5.0077  -14.8792 C.ar    1  UNL1        0.0077
     15 C         -29.2513   -5.4301  -14.7566 C.ar    1  UNL1        0.0021
     16 C         -30.2433   -4.9355  -15.6210 C.ar    1  UNL1        0.0207
     17 C         -29.8578   -4.0191  -16.5920 C.ar    1  UNL1        0.0990
     18 N         -30.6388   -3.4183  -17.5074 N.ar    1  UNL1       -0.2241
     19 C         -29.7635   -2.6251  -18.1778 C.ar    1  UNL1        0.1750
     20 N         -28.4933   -2.7118  -17.7162 N.ar    1  UNL1       -0.3345
     21 C         -28.5678   -3.5986  -16.7144 C.ar    1  UNL1        0.0819
     22 C         -27.5478   -4.0607  -15.8787 C.ar    1  UNL1        0.0516
     23 BR        -25.7683   -3.3592  -16.0580 Br      1  UNL1       -0.0475
     24 H         -27.6545   -2.1996  -18.0684 H       1  UNL1        0.1675
     25 C         -20.9365  -11.3651  -12.0037 C.ar    1  UNL1        0.0503
     26 C         -19.9498  -11.6066  -11.0259 C.ar    1  UNL1        0.0328
     27 C         -19.3516  -10.5479  -10.3317 C.ar    1  UNL1        0.1069
     28 C         -19.7289   -9.2322  -10.6138 C.ar    1  UNL1        0.0186
     29 C         -20.6959   -8.9734  -11.5841 C.ar    1  UNL1        0.0071
     30 C         -21.2911  -10.0251  -12.2950 C.ar    1  UNL1        0.0667
     31 S         -18.1121  -10.8776   -9.1252 S.O2    1  UNL1        0.0105
     32 C         -17.9451  -12.6358   -8.9190 C.3     1  UNL1        0.1816
     33 O         -16.7970  -10.2986   -9.5664 O.2     1  UNL1       -0.1686
     34 O         -18.5006  -10.2499   -7.8160 O.2     1  UNL1       -0.1686
     35 N         -21.6039  -12.4588  -12.6737 N.pl3   1  UNL1       -0.3325
     36 H         -22.6141  -12.6392  -12.4793 H       1  UNL1        0.1468
     37 C         -21.8475  -13.5090  -14.8787 C.3     1  UNL1        0.0229
     38 C         -20.9684  -13.3508  -13.6433 C.3     1  UNL1        0.0871
@<TRIPOS>BOND
     1    37    38    1
     2    38    35    1
     3    35    25    1
     4    25    26   ar
     5    26    27   ar
     6    27    31    1
     7    31    32    1
     8    31    33    2
     9    31    34    2
    10    27    28   ar
    11    28    29   ar
    12    29    30   ar
    13    30     1    1
    14     1     2    2
    15     1     3   am
    16     3     4    1
    17     4     5    1
    18     5     6    1
    19     6     7    1
    20     7     8   ar
    21     8     9   ar
    22     9    10   ar
    23    10    14    1
    24    14    15   ar
    25    15    16   ar
    26    16    17   ar
    27    17    18   ar
    28    18    19   ar
    29    19    20   ar
    30    20    21   ar
    31    21    22   ar
    32    22    23    1
    33    10    11   ar
    34    11    12   ar
    35    12    13    1
    36    30    25   ar
    37    13     3    1
    38    12     7   ar
    39    22    14   ar
    40    21    17   ar
    41    35    36    1
    42    20    24    1
@<TRIPOS>MOLECULE
*****
 38 42 0 0 0
SMALL
GASTEIGER

@<TRIPOS>ATOM
      1 C         -21.7859   -8.2497   -9.4603 C.2     1  UNL1        0.2506
      2 O         -22.5767   -8.1436   -8.4839 O.2     1  UNL1       -0.2699
      3 N         -22.0769   -7.5725  -10.6993 N.am    1  UNL1       -0.2680
      4 C         -20.9916   -6.9571  -11.4705 C.3     1  UNL1        0.1412
      5 C         -20.6462   -7.8257  -12.6780 C.3     1  UNL1        0.2268
      6 O         -21.7958   -8.4997  -13.1865 O.3     1  UNL1       -0.4739
      7 C         -22.9792   -7.8310  -13.5073 C.ar    1  UNL1        0.1362
      8 C         -23.3966   -7.8325  -14.8420 C.ar    1  UNL1        0.0366
      9 C         -24.5539   -7.1549  -15.2242 C.ar    1  UNL1        0.0031
     10 C         -25.3173   -6.4691  -14.2709 C.ar    1  UNL1        0.0005
     11 C         -24.9253   -6.4987  -12.9242 C.ar    1  UNL1        0.0004
     12 C         -23.7547   -7.1674  -12.5243 C.ar    1  UNL1        0.0317
     13 C         -23.4743   -7.2629  -11.0337 C.3     1  UNL1        0.1236
     14 C         -26.5586   -5.7707  -14.6679 C.ar    1  UNL1        0.0077
     15 C         -26.4608   -4.5770  -15.4314 C.ar    1  UNL1        0.0021
     16 C         -27.6135   -3.8728  -15.8201 C.ar    1  UNL1        0.0207
     17 C         -28.8465   -4.3867  -15.4366 C.ar    1  UNL1        0.0990
     18 N         -30.0639   -3.8828  -15.7067 N.ar    1  UNL1       -0.2241
     19 C         -30.8989   -4.7761  -15.1153 C.ar    1  UNL1        0.1750
     20 N         -30.2522   -5.7960  -14.5025 N.ar    1  UNL1       -0.3345
     21 C         -28.9546   -5.5354  -14.7123 C.ar    1  UNL1        0.0819
     22 C         -27.8385   -6.2701  -14.3039 C.ar    1  UNL1        0.0516
     23 BR        -28.0731   -7.9249  -13.3563 Br      1  UNL1       -0.0475
     24 H         -30.6779   -6.5977  -13.9866 H       1  UNL1        0.1675
     25 C         -19.6982   -8.8933   -8.1945 C.ar    1  UNL1        0.0503
     26 C         -18.5815   -9.7455   -8.0736 C.ar    1  UNL1        0.0328
     27 C         -18.3117  -10.7186   -9.0435 C.ar    1  UNL1        0.1069
     28 C         -19.1622  -10.8559  -10.1439 C.ar    1  UNL1        0.0186
     29 C         -20.2767  -10.0287  -10.2754 C.ar    1  UNL1        0.0071
     30 C         -20.5639   -9.0604   -9.3030 C.ar    1  UNL1        0.0667
     31 S         -16.9175  -11.7786   -8.8603 S.O2    1  UNL1        0.0105
     32 C         -16.5367  -11.9560   -7.1327 C.3     1  UNL1        0.1816
     33 O         -17.2169  -13.1294   -9.4479 O.2     1  UNL1       -0.1686
     34 O         -15.7366  -11.1904   -9.5803 O.2     1  UNL1       -0.1686
     35 N         -19.9413   -7.8436   -7.2304 N.pl3   1  UNL1       -0.3325
     36 H         -20.7046   -7.1527   -7.4061 H       1  UNL1        0.1468
     37 C         -19.7583   -8.5827   -4.8971 C.3     1  UNL1        0.0229
     38 C         -19.1964   -7.6724   -5.9831 C.3     1  UNL1        0.0871
@<TRIPOS>BOND
     1    37    38    1
     2    38    35    1
     3    35    25    1
     4    25    26   ar
     5    26    27   ar
     6    27    31    1
     7    31    32    1
     8    31    33    2
     9    31    34    2
    10    27    28   ar
    11    28    29   ar
    12    29    30   ar
    13    30     1    1
    14     1     2    2
    15     1     3   am
    16     3     4    1
    17     4     5    1
    18     5     6    1
    19     6     7    1
    20     7     8   ar
    21     8     9   ar
    22     9    10   ar
    23    10    14    1
    24    14    15   ar
    25    15    16   ar
    26    16    17   ar
    27    17    18   ar
    28    18    19   ar
    29    19    20   ar
    30    20    21   ar
    31    21    22   ar
    32    22    23    1
    33    10    11   ar
    34    11    12   ar
    35    12    13    1
    36    30    25   ar
    37    13     3    1
    38    12     7   ar
    39    22    14   ar
    40    21    17   ar
    41    35    36    1
    42    20    24    1
@<TRIPOS>MOLECULE
*****
 38 42 0 0 0
SMALL
GASTEIGER

@<TRIPOS>ATOM
      1 C         -22.1161   -8.1090   -9.5145 C.2     1  UNL1        0.2506
      2 O         -22.9223   -7.9646   -8.5558 O.2     1  UNL1       -0.2699
      3 N         -22.3598   -7.4387  -10.7674 N.am    1  UNL1       -0.2680
      4 C         -21.2396   -6.8689  -11.5237 C.3     1  UNL1        0.1412
      5 C         -20.8988   -7.7638  -12.7132 C.3     1  UNL1        0.2268
      6 O         -22.0595   -8.4065  -13.2368 O.3     1  UNL1       -0.4739
      7 C         -23.2136   -7.7039  -13.5899 C.ar    1  UNL1        0.1362
      8 C         -23.6040   -7.7091  -14.9327 C.ar    1  UNL1        0.0366
      9 C         -24.7306   -6.9991  -15.3468 C.ar    1  UNL1        0.0031
     10 C         -25.4900   -6.2766  -14.4177 C.ar    1  UNL1        0.0005
     11 C         -25.1263   -6.3016  -13.0630 C.ar    1  UNL1        0.0004
     12 C         -23.9865   -7.0028  -12.6312 C.ar    1  UNL1        0.0317
     13 C         -23.7393   -7.0881  -11.1340 C.3     1  UNL1        0.1236
     14 C         -26.6995   -5.5433  -14.8486 C.ar    1  UNL1        0.0077
     15 C         -26.5475   -4.3643  -15.6258 C.ar    1  UNL1        0.0021
     16 C         -27.6684   -3.6281  -16.0467 C.ar    1  UNL1        0.0207
     17 C         -28.9249   -4.0957  -15.6809 C.ar    1  UNL1        0.0990
     18 N         -30.1195   -3.5558  -15.9817 N.ar    1  UNL1       -0.2241
     19 C         -30.9949   -4.4128  -15.3952 C.ar    1  UNL1        0.1750
     20 N         -30.3944   -5.4448  -14.7561 N.ar    1  UNL1       -0.3345
     21 C         -29.0851   -5.2300  -14.9436 C.ar    1  UNL1        0.0819
     22 C         -28.0022   -5.9953  -14.5034 C.ar    1  UNL1        0.0516
     23 BR        -28.3098   -7.6279  -13.5387 Br      1  UNL1       -0.0475
     24 H         -30.8564   -6.2247  -14.2381 H       1  UNL1        0.1675
     25 C         -20.6816  -10.0925  -10.1332 C.ar    1  UNL1        0.0503
     26 C         -19.4909  -10.8217   -9.9369 C.ar    1  UNL1        0.0328
     27 C         -18.5785  -10.4532   -8.9408 C.ar    1  UNL1        0.1069
     28 C         -18.8436   -9.3440   -8.1330 C.ar    1  UNL1        0.0186
     29 C         -20.0110   -8.6051   -8.3187 C.ar    1  UNL1        0.0071
     30 C         -20.9247   -8.9570   -9.3223 C.ar    1  UNL1        0.0667
     31 S         -17.0926  -11.3737   -8.7266 S.O2    1  UNL1        0.0105
     32 C         -17.3542  -13.0469   -9.2682 C.3     1  UNL1        0.1816
     33 O         -15.9833  -10.7552   -9.5305 O.2     1  UNL1       -0.1686
     34 O         -16.6984  -11.3679   -7.2762 O.2     1  UNL1       -0.1686
     35 N         -21.6570  -10.5104  -11.1152 N.pl3   1  UNL1       -0.3325
     36 H         -22.5680  -10.0037  -11.1809 H       1  UNL1        0.1468
     37 C         -22.6736  -11.7379  -12.9818 C.3     1  UNL1        0.0229
     38 C         -21.4629  -11.6059  -12.0649 C.3     1  UNL1        0.0871
@<TRIPOS>BOND
     1    37    38    1
     2    38    35    1
     3    35    25    1
     4    25    26   ar
     5    26    27   ar
     6    27    31    1
     7    31    32    1
     8    31    33    2
     9    31    34    2
    10    27    28   ar
    11    28    29   ar
    12    29    30   ar
    13    30     1    1
    14     1     2    2
    15     1     3   am
    16     3     4    1
    17     4     5    1
    18     5     6    1
    19     6     7    1
    20     7     8   ar
    21     8     9   ar
    22     9    10   ar
    23    10    14    1
    24    14    15   ar
    25    15    16   ar
    26    16    17   ar
    27    17    18   ar
    28    18    19   ar
    29    19    20   ar
    30    20    21   ar
    31    21    22   ar
    32    22    23    1
    33    10    11   ar
    34    11    12   ar
    35    12    13    1
    36    30    25   ar
    37    13     3    1
    38    12     7   ar
    39    22    14   ar
    40    21    17   ar
    41    35    36    1
    42    20    24    1
@<TRIPOS>MOLECULE
*****
 38 42 0 0 0
SMALL
GASTEIGER

@<TRIPOS>ATOM
      1 C         -22.1500   -9.5373  -13.2955 C.2     1  UNL1        0.2506
      2 O         -21.8767   -9.8183  -14.4939 O.2     1  UNL1       -0.2699
      3 N         -23.4302   -8.9628  -12.9646 N.am    1  UNL1       -0.2680
      4 C         -24.1210   -9.3704  -11.7366 C.3     1  UNL1        0.1412
      5 C         -23.9887   -8.2828  -10.6728 C.3     1  UNL1        0.2268
      6 O         -23.9516   -6.9809  -11.2543 O.3     1  UNL1       -0.4739
      7 C         -24.9174   -6.5330  -12.1582 C.ar    1  UNL1        0.1362
      8 C         -25.7210   -5.4518  -11.7829 C.ar    1  UNL1        0.0366
      9 C         -26.7216   -4.9827  -12.6333 C.ar    1  UNL1        0.0031
     10 C         -26.9286   -5.5868  -13.8799 C.ar    1  UNL1        0.0005
     11 C         -26.0983   -6.6451  -14.2783 C.ar    1  UNL1        0.0004
     12 C         -25.0927   -7.1376  -13.4277 C.ar    1  UNL1        0.0317
     13 C         -24.1546   -8.1945  -13.9870 C.3     1  UNL1        0.1236
     14 C         -27.9717   -5.0761  -14.7950 C.ar    1  UNL1        0.0077
     15 C         -29.2982   -5.5672  -14.6666 C.ar    1  UNL1        0.0021
     16 C         -30.3192   -5.1198  -15.5228 C.ar    1  UNL1        0.0207
     17 C         -29.9867   -4.1805  -16.4916 C.ar    1  UNL1        0.0990
     18 N         -30.8027   -3.6161  -17.3996 N.ar    1  UNL1       -0.2241
     19 C         -29.9728   -2.7763  -18.0712 C.ar    1  UNL1        0.1750
     20 N         -28.6972   -2.8004  -17.6173 N.ar    1  UNL1       -0.3345
     21 C         -28.7205   -3.6945  -16.6194 C.ar    1  UNL1        0.0819
     22 C         -27.6733   -4.1079  -15.7919 C.ar    1  UNL1        0.0516
     23 BR        -25.9329   -3.3160  -15.9781 Br      1  UNL1       -0.0475
     24 H         -27.8876   -2.2447  -17.9719 H       1  UNL1        0.1675
     25 C         -20.5312   -8.7814  -11.5114 C.ar    1  UNL1        0.0503
     26 C         -19.6295   -9.1258  -10.4836 C.ar    1  UNL1        0.0328
     27 C         -19.3227  -10.4655  -10.2158 C.ar    1  UNL1        0.1069
     28 C         -19.9217  -11.4785  -10.9696 C.ar    1  UNL1        0.0186
     29 C         -20.8231  -11.1575  -11.9834 C.ar    1  UNL1        0.0071
     30 C         -21.1481   -9.8201  -12.2507 C.ar    1  UNL1        0.0667
     31 S         -18.2034  -10.8676   -8.9173 S.O2    1  UNL1        0.0105
     32 C         -18.5748   -9.8724   -7.4914 C.3     1  UNL1        0.1816
     33 O         -18.3310  -12.3219   -8.5593 O.2     1  UNL1       -0.1686
     34 O         -16.7931  -10.6030   -9.3647 O.2     1  UNL1       -0.1686
     35 N         -20.7981   -7.3976  -11.8346 N.pl3   1  UNL1       -0.3325
     36 H         -21.0326   -7.1370  -12.8184 H       1  UNL1        0.1468
     37 C         -21.4400   -5.0586  -11.4586 C.3     1  UNL1        0.0229
     38 C         -20.7835   -6.3008  -10.8669 C.3     1  UNL1        0.0871
@<TRIPOS>BOND
     1    37    38    1
     2    38    35    1
     3    35    25    1
     4    25    26   ar
     5    26    27   ar
     6    27    31    1
     7    31    32    1
     8    31    33    2
     9    31    34    2
    10    27    28   ar
    11    28    29   ar
    12    29    30   ar
    13    30     1    1
    14     1     2    2
    15     1     3   am
    16     3     4    1
    17     4     5    1
    18     5     6    1
    19     6     7    1
    20     7     8   ar
    21     8     9   ar
    22     9    10   ar
    23    10    14    1
    24    14    15   ar
    25    15    16   ar
    26    16    17   ar
    27    17    18   ar
    28    18    19   ar
    29    19    20   ar
    30    20    21   ar
    31    21    22   ar
    32    22    23    1
    33    10    11   ar
    34    11    12   ar
    35    12    13    1
    36    30    25   ar
    37    13     3    1
    38    12     7   ar
    39    22    14   ar
    40    21    17   ar
    41    35    36    1
    42    20    24    1
@<TRIPOS>MOLECULE
*****
 38 42 0 0 0
SMALL
GASTEIGER

@<TRIPOS>ATOM
      1 C         -21.6748  -10.3928  -12.8308 C.2     1  UNL1        0.2506
      2 O         -21.5186  -10.8051  -14.0121 O.2     1  UNL1       -0.2699
      3 N         -22.8196   -9.5830  -12.4962 N.am    1  UNL1       -0.2680
      4 C         -23.5013   -9.7728  -11.2115 C.3     1  UNL1        0.1412
      5 C         -23.1295   -8.6484  -10.2474 C.3     1  UNL1        0.2268
      6 O         -22.9049   -7.4193  -10.9354 O.3     1  UNL1       -0.4739
      7 C         -23.8290   -6.8798  -11.8328 C.ar    1  UNL1        0.1362
      8 C         -24.4169   -5.6513  -11.5154 C.ar    1  UNL1        0.0366
      9 C         -25.3688   -5.0810  -12.3599 C.ar    1  UNL1        0.0031
     10 C         -25.7425   -5.7313  -13.5428 C.ar    1  UNL1        0.0005
     11 C         -25.1258   -6.9437  -13.8862 C.ar    1  UNL1        0.0004
     12 C         -24.1729   -7.5377  -13.0399 C.ar    1  UNL1        0.0317
     13 C         -23.4587   -8.7793  -13.5480 C.3     1  UNL1        0.1236
     14 C         -26.7328   -5.1176  -14.4533 C.ar    1  UNL1        0.0077
     15 C         -26.3259   -4.0410  -15.2856 C.ar    1  UNL1        0.0021
     16 C         -27.2363   -3.4189  -16.1573 C.ar    1  UNL1        0.0207
     17 C         -28.5414   -3.8959  -16.1787 C.ar    1  UNL1        0.0990
     18 N         -29.5618   -3.4566  -16.9368 N.ar    1  UNL1       -0.2241
     19 C         -30.5838   -4.2731  -16.5709 C.ar    1  UNL1        0.1750
     20 N         -30.2365   -5.1854  -15.6322 N.ar    1  UNL1       -0.3345
     21 C         -28.9424   -4.9336  -15.3925 C.ar    1  UNL1        0.0819
     22 C         -28.0742   -5.5839  -14.5117 C.ar    1  UNL1        0.0516
     23 BR        -28.6908   -7.0935  -13.4960 Br      1  UNL1       -0.0475
     24 H         -30.8466   -5.9144  -15.2005 H       1  UNL1        0.1675
     25 C         -20.2872  -12.1121  -11.6088 C.ar    1  UNL1        0.0503
     26 C         -19.2840  -12.3906  -10.6579 C.ar    1  UNL1        0.0328
     27 C         -18.7061  -11.3641   -9.9012 C.ar    1  UNL1        0.1069
     28 C         -19.1204  -10.0432  -10.0928 C.ar    1  UNL1        0.0186
     29 C         -20.1042   -9.7474  -11.0353 C.ar    1  UNL1        0.0071
     30 C         -20.6795  -10.7658  -11.8083 C.ar    1  UNL1        0.0667
     31 S         -17.4454  -11.7389   -8.7302 S.O2    1  UNL1        0.0105
     32 C         -17.7756  -10.8724   -7.2131 C.3     1  UNL1        0.1816
     33 O         -17.4126  -13.2180   -8.4646 O.2     1  UNL1       -0.1686
     34 O         -16.1090  -11.3165   -9.2728 O.2     1  UNL1       -0.1686
     35 N         -20.9331  -13.1770  -12.3430 N.pl3   1  UNL1       -0.3325
     36 H         -21.8913  -13.4845  -12.0636 H       1  UNL1        0.1468
     37 C         -21.3379  -13.9198  -14.6471 C.3     1  UNL1        0.0229
     38 C         -20.3465  -13.8698  -13.4900 C.3     1  UNL1        0.0871
@<TRIPOS>BOND
     1    37    38    1
     2    38    35    1
     3    35    25    1
     4    25    26   ar
     5    26    27   ar
     6    27    31    1
     7    31    32    1
     8    31    33    2
     9    31    34    2
    10    27    28   ar
    11    28    29   ar
    12    29    30   ar
    13    30     1    1
    14     1     2    2
    15     1     3   am
    16     3     4    1
    17     4     5    1
    18     5     6    1
    19     6     7    1
    20     7     8   ar
    21     8     9   ar
    22     9    10   ar
    23    10    14    1
    24    14    15   ar
    25    15    16   ar
    26    16    17   ar
    27    17    18   ar
    28    18    19   ar
    29    19    20   ar
    30    20    21   ar
    31    21    22   ar
    32    22    23    1
    33    10    11   ar
    34    11    12   ar
    35    12    13    1
    36    30    25   ar
    37    13     3    1
    38    12     7   ar
    39    22    14   ar
    40    21    17   ar
    41    35    36    1
    42    20    24    1
@<TRIPOS>MOLECULE
*****
 38 42 0 0 0
SMALL
GASTEIGER

@<TRIPOS>ATOM
      1 C         -21.6197  -10.9031  -12.5367 C.2     1  UNL1        0.2506
      2 O         -21.5618  -11.3844  -13.7007 O.2     1  UNL1       -0.2699
      3 N         -22.7375  -10.0770  -12.1540 N.am    1  UNL1       -0.2680
      4 C         -23.3061  -10.1916  -10.8068 C.3     1  UNL1        0.1412
      5 C         -22.8614   -9.0112   -9.9460 C.3     1  UNL1        0.2268
      6 O         -22.7047   -7.8247  -10.7219 O.3     1  UNL1       -0.4739
      7 C         -23.7055   -7.3412  -11.5674 C.ar    1  UNL1        0.1362
      8 C         -24.2727   -6.0970  -11.2739 C.ar    1  UNL1        0.0366
      9 C         -25.2970   -5.5796  -12.0662 C.ar    1  UNL1        0.0031
     10 C         -25.7654   -6.2996  -13.1725 C.ar    1  UNL1        0.0005
     11 C         -25.1719   -7.5291  -13.4953 C.ar    1  UNL1        0.0004
     12 C         -24.1463   -8.0701  -12.6998 C.ar    1  UNL1        0.0317
     13 C         -23.4693   -9.3383  -13.1929 C.3     1  UNL1        0.1236
     14 C         -26.8338   -5.7429  -14.0298 C.ar    1  UNL1        0.0077
     15 C         -26.5198   -4.6754  -14.9125 C.ar    1  UNL1        0.0021
     16 C         -27.5063   -4.1066  -15.7365 C.ar    1  UNL1        0.0207
     17 C         -28.7927   -4.6269  -15.6602 C.ar    1  UNL1        0.0990
     18 N         -29.8751   -4.2414  -16.3593 N.ar    1  UNL1       -0.2241
     19 C         -30.8420   -5.0815  -15.9072 C.ar    1  UNL1        0.1750
     20 N         -30.4027   -5.9571  -14.9722 N.ar    1  UNL1       -0.3345
     21 C         -29.1051   -5.6566  -14.8247 C.ar    1  UNL1        0.0819
     22 C         -28.1592   -6.2547  -13.9882 C.ar    1  UNL1        0.0516
     23 BR        -28.6553   -7.7570  -12.8983 Br      1  UNL1       -0.0475
     24 H         -30.9575   -6.6944  -14.4839 H       1  UNL1        0.1675
     25 C         -19.8971  -10.1986  -10.8306 C.ar    1  UNL1        0.0503
     26 C         -18.9154  -10.5720   -9.8899 C.ar    1  UNL1        0.0328
     27 C         -18.5559  -11.9147   -9.7209 C.ar    1  UNL1        0.1069
     28 C         -19.1812  -12.9021  -10.4872 C.ar    1  UNL1        0.0186
     29 C         -20.1610  -12.5528  -11.4153 C.ar    1  UNL1        0.0071
     30 C         -20.5385  -11.2130  -11.5827 C.ar    1  UNL1        0.0667
     31 S         -17.3363  -12.3541   -8.5291 S.O2    1  UNL1        0.0105
     32 C         -15.7187  -12.0812   -9.2149 C.3     1  UNL1        0.1816
     33 O         -17.5021  -11.5187   -7.2905 O.2     1  UNL1       -0.1686
     34 O         -17.4901  -13.8025   -8.1581 O.2     1  UNL1       -0.1686
     35 N         -20.2219   -8.8077  -11.0551 N.pl3   1  UNL1       -0.3325
     36 H         -21.0041   -8.3708  -10.5184 H       1  UNL1        0.1468
     37 C         -20.4792   -7.3634  -13.0230 C.3     1  UNL1        0.0229
     38 C         -19.5146   -7.9294  -11.9869 C.3     1  UNL1        0.0871
@<TRIPOS>BOND
     1    37    38    1
     2    38    35    1
     3    35    25    1
     4    25    26   ar
     5    26    27   ar
     6    27    31    1
     7    31    32    1
     8    31    33    2
     9    31    34    2
    10    27    28   ar
    11    28    29   ar
    12    29    30   ar
    13    30     1    1
    14     1     2    2
    15     1     3   am
    16     3     4    1
    17     4     5    1
    18     5     6    1
    19     6     7    1
    20     7     8   ar
    21     8     9   ar
    22     9    10   ar
    23    10    14    1
    24    14    15   ar
    25    15    16   ar
    26    16    17   ar
    27    17    18   ar
    28    18    19   ar
    29    19    20   ar
    30    20    21   ar
    31    21    22   ar
    32    22    23    1
    33    10    11   ar
    34    11    12   ar
    35    12    13    1
    36    30    25   ar
    37    13     3    1
    38    12     7   ar
    39    22    14   ar
    40    21    17   ar
    41    35    36    1
    42    20    24    1
@<TRIPOS>MOLECULE
*****
 38 42 0 0 0
SMALL
GASTEIGER

@<TRIPOS>ATOM
      1 C         -25.0051   -6.4671  -14.9947 C.2     1  UNL1        0.2506
      2 O         -24.3919   -6.6875  -16.0742 O.2     1  UNL1       -0.2699
      3 N         -24.3962   -6.8185  -13.7361 N.am    1  UNL1       -0.2680
      4 C         -24.5549   -5.9378  -12.5740 C.3     1  UNL1        0.1412
      5 C         -25.5758   -6.5269  -11.6030 C.3     1  UNL1        0.2268
      6 O         -25.5469   -7.9529  -11.6115 O.3     1  UNL1       -0.4739
      7 C         -24.3690   -8.6824  -11.4359 C.ar    1  UNL1        0.1362
      8 C         -24.2619   -9.5002  -10.3065 C.ar    1  UNL1        0.0366
      9 C         -23.0966  -10.2270  -10.0648 C.ar    1  UNL1        0.0031
     10 C         -22.0199  -10.1513  -10.9575 C.ar    1  UNL1        0.0005
     11 C         -22.1379   -9.3646  -12.1131 C.ar    1  UNL1        0.0004
     12 C         -23.3014   -8.6164  -12.3653 C.ar    1  UNL1        0.0317
     13 C         -23.3992   -7.8980  -13.7010 C.3     1  UNL1        0.1236
     14 C         -20.7925  -10.9401  -10.7180 C.ar    1  UNL1        0.0077
     15 C         -20.6616  -12.2118  -11.3369 C.ar    1  UNL1        0.0021
     16 C         -19.5181  -13.0019  -11.1275 C.ar    1  UNL1        0.0207
     17 C         -18.5229  -12.4943  -10.3009 C.ar    1  UNL1        0.0990
     18 N         -17.3537  -13.0740   -9.9754 N.ar    1  UNL1       -0.2241
     19 C         -16.7725  -12.1497   -9.1675 C.ar    1  UNL1        0.1750
     20 N         -17.5266  -11.0394   -8.9874 N.ar    1  UNL1       -0.3345
     21 C         -18.6317  -11.2723   -9.7087 C.ar    1  UNL1        0.0819
     22 C         -19.7478  -10.4510   -9.8875 C.ar    1  UNL1        0.0516
     23 BR        -19.7930   -8.7053   -9.0867 Br      1  UNL1       -0.0475
     24 H         -17.2909  -10.1990   -8.4145 H       1  UNL1        0.1675
     25 C         -26.6802   -4.9078  -16.0611 C.ar    1  UNL1        0.0503
     26 C         -27.9917   -4.3908  -16.0891 C.ar    1  UNL1        0.0328
     27 C         -28.9306   -4.7601  -15.1183 C.ar    1  UNL1        0.1069
     28 C         -28.5699   -5.6587  -14.1106 C.ar    1  UNL1        0.0186
     29 C         -27.2807   -6.1878  -14.0724 C.ar    1  UNL1        0.0071
     30 C         -26.3369   -5.8357  -15.0476 C.ar    1  UNL1        0.0667
     31 S         -30.5656   -4.1095  -15.1852 S.O2    1  UNL1        0.0105
     32 C         -30.7293   -3.0772  -16.6236 C.3     1  UNL1        0.1816
     33 O         -31.5636   -5.2311  -15.2582 O.2     1  UNL1       -0.1686
     34 O         -30.8392   -3.3002  -13.9486 O.2     1  UNL1       -0.1686
     35 N         -25.6895   -4.4766  -17.0219 N.pl3   1  UNL1       -0.3325
     36 H         -24.7517   -4.1632  -16.6857 H       1  UNL1        0.1468
     37 C         -25.2460   -5.6803  -19.1144 C.3     1  UNL1        0.0229
     38 C         -25.8903   -4.4578  -18.4707 C.3     1  UNL1        0.0871
@<TRIPOS>BOND
     1    37    38    1
     2    38    35    1
     3    35    25    1
     4    25    26   ar
     5    26    27   ar
     6    27    31    1
     7    31    32    1
     8    31    33    2
     9    31    34    2
    10    27    28   ar
    11    28    29   ar
    12    29    30   ar
    13    30     1    1
    14     1     2    2
    15     1     3   am
    16     3     4    1
    17     4     5    1
    18     5     6    1
    19     6     7    1
    20     7     8   ar
    21     8     9   ar
    22     9    10   ar
    23    10    14    1
    24    14    15   ar
    25    15    16   ar
    26    16    17   ar
    27    17    18   ar
    28    18    19   ar
    29    19    20   ar
    30    20    21   ar
    31    21    22   ar
    32    22    23    1
    33    10    11   ar
    34    11    12   ar
    35    12    13    1
    36    30    25   ar
    37    13     3    1
    38    12     7   ar
    39    22    14   ar
    40    21    17   ar
    41    35    36    1
    42    20    24    1
@<TRIPOS>MOLECULE
*****
 38 42 0 0 0
SMALL
GASTEIGER

@<TRIPOS>ATOM
      1 C         -26.1249   -5.7346  -15.0932 C.2     1  UNL1        0.2506
      2 O         -25.5106   -5.9493  -16.1732 O.2     1  UNL1       -0.2699
      3 N         -25.4980   -6.0489  -13.8335 N.am    1  UNL1       -0.2680
      4 C         -25.6793   -5.1583  -12.6823 C.3     1  UNL1        0.1412
      5 C         -26.6751   -5.7673  -11.6977 C.3     1  UNL1        0.2268
      6 O         -26.5994   -7.1916  -11.6874 O.3     1  UNL1       -0.4739
      7 C         -25.3974   -7.8798  -11.5090 C.ar    1  UNL1        0.1362
      8 C         -25.2573   -8.6783  -10.3694 C.ar    1  UNL1        0.0366
      9 C         -24.0676   -9.3632  -10.1249 C.ar    1  UNL1        0.0031
     10 C         -22.9988   -9.2643  -11.0248 C.ar    1  UNL1        0.0005
     11 C         -23.1487   -8.4976  -12.1900 C.ar    1  UNL1        0.0004
     12 C         -24.3375   -7.7914  -12.4453 C.ar    1  UNL1        0.0317
     13 C         -24.4660   -7.0946  -13.7899 C.3     1  UNL1        0.1236
     14 C         -21.7448  -10.0092  -10.7820 C.ar    1  UNL1        0.0077
     15 C         -21.5729  -11.2813  -11.3900 C.ar    1  UNL1        0.0021
     16 C         -20.4028  -12.0305  -11.1769 C.ar    1  UNL1        0.0207
     17 C         -19.4230  -11.4824  -10.3579 C.ar    1  UNL1        0.0990
     18 N         -18.2342  -12.0195  -10.0307 N.ar    1  UNL1       -0.2241
     19 C         -17.6823  -11.0690   -9.2327 C.ar    1  UNL1        0.1750
     20 N         -18.4729   -9.9831   -9.0602 N.ar    1  UNL1       -0.3345
     21 C         -19.5714  -10.2595   -9.7762 C.ar    1  UNL1        0.0819
     22 C         -20.7150   -9.4779   -9.9589 C.ar    1  UNL1        0.0516
     23 BR        -20.8168   -7.7276   -9.1734 Br      1  UNL1       -0.0475
     24 H         -18.2640   -9.1302   -8.4954 H       1  UNL1        0.1675
     25 C         -27.8335   -4.1897  -16.1269 C.ar    1  UNL1        0.0503
     26 C         -29.1617   -3.7176  -16.1599 C.ar    1  UNL1        0.0328
     27 C         -30.1053   -4.1605  -15.2252 C.ar    1  UNL1        0.1069
     28 C         -29.7324   -5.0887  -14.2493 C.ar    1  UNL1        0.0186
     29 C         -28.4262   -5.5741  -14.2070 C.ar    1  UNL1        0.0071
     30 C         -27.4770   -5.1479  -15.1467 C.ar    1  UNL1        0.0667
     31 S         -31.7608   -3.5646  -15.2982 S.O2    1  UNL1        0.0105
     32 C         -32.0053   -2.3500  -14.0229 C.3     1  UNL1        0.1816
     33 O         -32.0249   -2.9411  -16.6402 O.2     1  UNL1       -0.1686
     34 O         -32.7186   -4.7057  -15.0996 O.2     1  UNL1       -0.1686
     35 N         -26.8405   -3.6836  -17.0479 N.pl3   1  UNL1       -0.3325
     36 H         -25.9565   -3.2722  -16.6736 H       1  UNL1        0.1468
     37 C         -26.0767   -4.8050  -19.0932 C.3     1  UNL1        0.0229
     38 C         -26.9661   -3.7155  -18.5049 C.3     1  UNL1        0.0871
@<TRIPOS>BOND
     1    37    38    1
     2    38    35    1
     3    35    25    1
     4    25    26   ar
     5    26    27   ar
     6    27    31    1
     7    31    32    1
     8    31    33    2
     9    31    34    2
    10    27    28   ar
    11    28    29   ar
    12    29    30   ar
    13    30     1    1
    14     1     2    2
    15     1     3   am
    16     3     4    1
    17     4     5    1
    18     5     6    1
    19     6     7    1
    20     7     8   ar
    21     8     9   ar
    22     9    10   ar
    23    10    14    1
    24    14    15   ar
    25    15    16   ar
    26    16    17   ar
    27    17    18   ar
    28    18    19   ar
    29    19    20   ar
    30    20    21   ar
    31    21    22   ar
    32    22    23    1
    33    10    11   ar
    34    11    12   ar
    35    12    13    1
    36    30    25   ar
    37    13     3    1
    38    12     7   ar
    39    22    14   ar
    40    21    17   ar
    41    35    36    1
    42    20    24    1
@<TRIPOS>MOLECULE
*****
 38 42 0 0 0
SMALL
GASTEIGER

@<TRIPOS>ATOM
      1 C         -21.9972   -6.4513  -11.1882 C.2     1  UNL1        0.2506
      2 O         -21.2284   -5.4574  -11.0829 O.2     1  UNL1       -0.2699
      3 N         -21.6674   -7.6898  -10.5280 N.am    1  UNL1       -0.2680
      4 C         -22.7254   -8.4928   -9.9056 C.3     1  UNL1        0.1412
      5 C         -23.0544   -9.6994  -10.7819 C.3     1  UNL1        0.2268
      6 O         -21.9027  -10.1735  -11.4771 O.3     1  UNL1       -0.4739
      7 C         -20.7027  -10.4727  -10.8283 C.ar    1  UNL1        0.1362
      8 C         -20.2538  -11.7970  -10.8496 C.ar    1  UNL1        0.0366
      9 C         -19.0783  -12.1584  -10.1921 C.ar    1  UNL1        0.0031
     10 C         -18.3281  -11.1941   -9.5071 C.ar    1  UNL1        0.0005
     11 C         -18.7523   -9.8569   -9.5173 C.ar    1  UNL1        0.0004
     12 C         -19.9413   -9.4783  -10.1654 C.ar    1  UNL1        0.0317
     13 C         -20.2583   -7.9939  -10.2414 C.3     1  UNL1        0.1236
     14 C         -17.0680  -11.5685   -8.8302 C.ar    1  UNL1        0.0077
     15 C         -16.0716  -12.2613   -9.5682 C.ar    1  UNL1        0.0021
     16 C         -14.8637  -12.6484   -8.9624 C.ar    1  UNL1        0.0207
     17 C         -14.6784  -12.3262   -7.6233 C.ar    1  UNL1        0.0990
     18 N         -13.6044  -12.5906   -6.8581 N.ar    1  UNL1       -0.2241
     19 C         -13.9462  -12.0497   -5.6600 C.ar    1  UNL1        0.1750
     20 N         -15.1699  -11.4698   -5.6587 N.ar    1  UNL1       -0.3345
     21 C         -15.6220  -11.6540   -6.9067 C.ar    1  UNL1        0.0819
     22 C         -16.8368  -11.2479   -7.4649 C.ar    1  UNL1        0.0516
     23 BR        -18.0833  -10.2309   -6.4147 Br      1  UNL1       -0.0475
     24 H         -15.6437  -10.9909   -4.8610 H       1  UNL1        0.1675
     25 C         -23.4623   -7.0920  -13.1420 C.ar    1  UNL1        0.0503
     26 C         -24.6938   -6.9567  -13.8152 C.ar    1  UNL1        0.0328
     27 C         -25.6626   -6.0510  -13.3662 C.ar    1  UNL1        0.1069
     28 C         -25.4131   -5.2741  -12.2317 C.ar    1  UNL1        0.0186
     29 C         -24.2052   -5.4011  -11.5474 C.ar    1  UNL1        0.0071
     30 C         -23.2340   -6.3149  -11.9801 C.ar    1  UNL1        0.0667
     31 S         -27.1974   -5.9123  -14.2183 S.O2    1  UNL1        0.0105
     32 C         -28.1546   -7.3863  -13.9494 C.3     1  UNL1        0.1816
     33 O         -27.9613   -4.7205  -13.7127 O.2     1  UNL1       -0.1686
     34 O         -26.9452   -5.7348  -15.6894 O.2     1  UNL1       -0.1686
     35 N         -22.4340   -7.9768  -13.6421 N.pl3   1  UNL1       -0.3325
     36 H         -21.5473   -8.0894  -13.1018 H       1  UNL1        0.1468
     37 C         -21.6719   -8.1617  -15.9680 C.3     1  UNL1        0.0229
     38 C         -22.5409   -8.7646  -14.8700 C.3     1  UNL1        0.0871
@<TRIPOS>BOND
     1    37    38    1
     2    38    35    1
     3    35    25    1
     4    25    26   ar
     5    26    27   ar
     6    27    31    1
     7    31    32    1
     8    31    33    2
     9    31    34    2
    10    27    28   ar
    11    28    29   ar
    12    29    30   ar
    13    30     1    1
    14     1     2    2
    15     1     3   am
    16     3     4    1
    17     4     5    1
    18     5     6    1
    19     6     7    1
    20     7     8   ar
    21     8     9   ar
    22     9    10   ar
    23    10    14    1
    24    14    15   ar
    25    15    16   ar
    26    16    17   ar
    27    17    18   ar
    28    18    19   ar
    29    19    20   ar
    30    20    21   ar
    31    21    22   ar
    32    22    23    1
    33    10    11   ar
    34    11    12   ar
    35    12    13    1
    36    30    25   ar
    37    13     3    1
    38    12     7   ar
    39    22    14   ar
    40    21    17   ar
    41    35    36    1
    42    20    24    1
