@<TRIPOS>MOLECULE
*****
 54 60 0 0 0
SMALL
GASTEIGER

@<TRIPOS>ATOM
      1 C         -61.5658  -42.3697  -26.4001 C.ar    1  UNL1        0.0360
      2 C         -62.9332  -42.4788  -26.7040 C.ar    1  UNL1        0.0043
      3 C         -63.3802  -42.3124  -28.0182 C.ar    1  UNL1        0.0148
      4 C         -62.4697  -42.0432  -29.0490 C.ar    1  UNL1        0.0516
      5 C         -61.1111  -41.8765  -28.7381 C.ar    1  UNL1        0.0148
      6 C         -60.6622  -42.0488  -27.4270 C.ar    1  UNL1        0.0043
      7 N         -61.4492  -41.4447  -21.6188 N.ar    1  UNL1       -0.2357
      8 N         -60.7888  -42.0067  -20.6111 N.ar    1  UNL1       -0.1663
      9 C         -59.9904  -42.9829  -21.1109 C.ar    1  UNL1        0.1260
     10 C         -60.1652  -43.0309  -22.4821 C.ar    1  UNL1        0.0880
     11 C         -59.6488  -43.8095  -23.5215 C.ar    1  UNL1        0.1380
     12 N         -60.1300  -43.5646  -24.7787 N.ar    1  UNL1       -0.2117
     13 C         -61.0781  -42.6022  -25.0247 C.ar    1  UNL1        0.1653
     14 N         -61.5648  -41.8468  -23.9946 N.ar    1  UNL1       -0.2079
     15 C         -61.0919  -42.0757  -22.7481 C.ar    1  UNL1        0.1652
     16 C         -66.1608  -41.8033  -19.7811 C.2     1  UNL1        0.4050
     17 O         -67.0888  -42.1913  -20.5438 O.2     1  UNL1       -0.2262
     18 N         -64.8676  -41.4656  -20.3241 N.am    1  UNL1       -0.2459
     19 C         -63.7618  -41.1319  -19.4150 C.3     1  UNL1        0.0987
     20 C         -62.8263  -40.0810  -20.0332 C.3     1  UNL1        0.0461
     21 C         -62.4501  -40.3750  -21.4994 C.3     1  UNL1        0.1102
     22 C         -63.6932  -40.6888  -22.3440 C.3     1  UNL1        0.0461
     23 C         -64.5415  -41.7965  -21.7188 C.3     1  UNL1        0.0987
     24 C         -65.9848  -42.6999  -17.4789 C.3     1  UNL1        0.2573
     25 O         -66.3918  -41.6993  -18.4046 O.3     1  UNL1       -0.4304
     26 N         -58.6423  -44.8207  -23.3207 N.pl3   1  UNL1       -0.2879
     27 C         -57.2912  -44.4440  -22.8950 C.3     1  UNL1        0.1242
     28 C         -56.7890  -45.4413  -21.8469 C.3     1  UNL1        0.1636
     29 O         -56.9042  -46.7699  -22.3217 O.3     1  UNL1       -0.3501
     30 C         -58.2692  -47.0978  -22.5048 C.3     1  UNL1        0.1636
     31 C         -58.8937  -46.2362  -23.6066 C.3     1  UNL1        0.1242
     32 N         -62.9407  -41.9461  -30.4027 N.am    1  UNL1       -0.2681
     33 C         -62.4849  -42.7807  -31.4817 C.2     1  UNL1        0.3082
     34 O         -62.5091  -42.3253  -32.6557 O.2     1  UNL1       -0.2522
     35 N         -62.0212  -44.1256  -31.2655 N.am    1  UNL1       -0.2683
     36 H         -63.6657  -41.2258  -30.6209 H       1  UNL1        0.1564
     37 H         -61.4615  -44.5714  -32.0266 H       1  UNL1        0.1564
     38 C         -62.3878  -44.9293  -30.1296 C.ar    1  UNL1        0.0475
     39 C         -61.3958  -45.3305  -29.2191 C.ar    1  UNL1        0.0141
     40 C         -61.7134  -46.1371  -28.1290 C.ar    1  UNL1       -0.0030
     41 C         -63.0375  -46.5246  -27.9014 C.ar    1  UNL1       -0.0210
     42 C         -64.0420  -46.1025  -28.7826 C.ar    1  UNL1       -0.0073
     43 C         -63.7355  -45.3221  -29.9163 C.ar    1  UNL1       -0.0093
     44 C         -64.8472  -44.8840  -30.8658 C.3     1  UNL1        0.0236
     45 C         -65.9257  -44.1167  -30.0959 C.3     1  UNL1        0.0047
     46 C         -65.4669  -46.0543  -31.6478 C.3     1  UNL1        0.0047
     47 C         -63.3682  -47.4609  -26.7709 C.3     1  UNL1        0.0437
     48 C         -62.1466  -47.6565  -25.8687 C.3     1  UNL1        0.0769
     49 N         -62.5863  -47.9110  -24.4773 N.3     1  UNL1       -0.2681
     50 C         -63.8820  -48.6222  -24.4109 C.3     1  UNL1        0.1046
     51 C         -63.7280  -50.1323  -24.6780 C.3     1  UNL1        0.1595
     52 O         -62.7639  -50.7113  -23.8213 O.3     1  UNL1       -0.3508
     53 C         -61.5077  -50.1020  -24.0381 C.3     1  UNL1        0.1595
     54 C         -61.5660  -48.6141  -23.6755 C.3     1  UNL1        0.1046
@<TRIPOS>BOND
     1    24    25    1
     2    25    16    1
     3    16    17    2
     4    16    18   am
     5    18    19    1
     6    19    20    1
     7    20    21    1
     8    21     7    1
     9     7     8   ar
    10     8     9   ar
    11     9    10   ar
    12    10    11   ar
    13    11    26    1
    14    26    27    1
    15    27    28    1
    16    28    29    1
    17    29    30    1
    18    30    31    1
    19    11    12   ar
    20    12    13   ar
    21    13     1    1
    22     1     2   ar
    23     2     3   ar
    24     3     4   ar
    25     4    32    1
    26    32    33   am
    27    33    34    2
    28    33    35   am
    29    35    38    1
    30    38    39   ar
    31    39    40   ar
    32    40    41   ar
    33    41    47    1
    34    47    48    1
    35    48    49    1
    36    49    50    1
    37    50    51    1
    38    51    52    1
    39    52    53    1
    40    53    54    1
    41    41    42   ar
    42    42    43   ar
    43    43    44    1
    44    44    45    1
    45    44    46    1
    46     4     5   ar
    47     5     6   ar
    48    13    14   ar
    49    14    15   ar
    50    21    22    1
    51    22    23    1
    52    23    18    1
    53    15     7   ar
    54    15    10   ar
    55    31    26    1
    56     6     1   ar
    57    43    38   ar
    58    54    49    1
    59    32    36    1
    60    35    37    1
@<TRIPOS>MOLECULE
*****
 54 60 0 0 0
SMALL
GASTEIGER

@<TRIPOS>ATOM
      1 C         -60.6854  -45.2927  -28.0472 C.ar    1  UNL1        0.0360
      2 C         -59.6875  -44.3656  -28.3919 C.ar    1  UNL1        0.0043
      3 C         -59.6018  -43.8726  -29.6973 C.ar    1  UNL1        0.0148
      4 C         -60.5147  -44.2903  -30.6752 C.ar    1  UNL1        0.0516
      5 C         -61.4756  -45.2596  -30.3474 C.ar    1  UNL1        0.0148
      6 C         -61.5664  -45.7482  -29.0423 C.ar    1  UNL1        0.0043
      7 N         -60.1576  -44.8427  -23.2256 N.ar    1  UNL1       -0.2357
      8 N         -60.5012  -45.6256  -22.2074 N.ar    1  UNL1       -0.1663
      9 C         -61.0574  -46.7587  -22.7044 C.ar    1  UNL1        0.1260
     10 C         -61.0626  -46.6737  -24.0849 C.ar    1  UNL1        0.0880
     11 C         -61.5027  -47.4935  -25.1278 C.ar    1  UNL1        0.1380
     12 N         -61.3636  -47.0084  -26.3996 N.ar    1  UNL1       -0.2117
     13 C         -60.8196  -45.7740  -26.6566 C.ar    1  UNL1        0.1653
     14 N         -60.3889  -44.9910  -25.6222 N.ar    1  UNL1       -0.2079
     15 C         -60.5155  -45.4627  -24.3608 C.ar    1  UNL1        0.1652
     16 C         -62.1533  -40.7401  -21.0141 C.2     1  UNL1        0.4050
     17 O         -62.9522  -40.0166  -21.6711 O.2     1  UNL1       -0.2262
     18 N         -61.3910  -41.7691  -21.6785 N.am    1  UNL1       -0.2459
     19 C         -60.5566  -42.6827  -20.8850 C.3     1  UNL1        0.0987
     20 C         -59.2918  -43.0962  -21.6539 C.3     1  UNL1        0.0461
     21 C         -59.5631  -43.5030  -23.1163 C.3     1  UNL1        0.1102
     22 C         -60.4268  -42.4580  -23.8367 C.3     1  UNL1        0.0461
     23 C         -61.7084  -42.1474  -23.0630 C.3     1  UNL1        0.0987
     24 C         -63.1177  -40.4277  -18.7541 C.3     1  UNL1        0.2573
     25 O         -62.0076  -40.5389  -19.6367 O.3     1  UNL1       -0.4304
     26 N         -62.0659  -48.8023  -24.9145 N.pl3   1  UNL1       -0.2879
     27 C         -61.2983  -49.8302  -24.2055 C.3     1  UNL1        0.1242
     28 C         -62.2241  -50.5944  -23.2545 C.3     1  UNL1        0.1636
     29 O         -63.3599  -51.0831  -23.9438 O.3     1  UNL1       -0.3501
     30 C         -64.1409  -49.9989  -24.4118 C.3     1  UNL1        0.1636
     31 C         -63.3725  -49.1850  -25.4576 C.3     1  UNL1        0.1242
     32 N         -60.4537  -43.7184  -31.9916 N.am    1  UNL1       -0.2681
     33 C         -61.6059  -43.3734  -32.7801 C.2     1  UNL1        0.3082
     34 O         -61.5139  -43.3978  -34.0359 O.2     1  UNL1       -0.2522
     35 N         -62.8540  -42.9818  -32.1805 N.am    1  UNL1       -0.2683
     36 H         -59.5116  -43.5353  -32.4053 H       1  UNL1        0.1564
     37 H         -63.7079  -43.0094  -32.7816 H       1  UNL1        0.1564
     38 C         -62.9725  -42.4379  -30.8536 C.ar    1  UNL1        0.0475
     39 C         -62.0848  -41.4311  -30.4385 C.ar    1  UNL1        0.0141
     40 C         -62.1521  -40.9089  -29.1491 C.ar    1  UNL1       -0.0030
     41 C         -63.1366  -41.3515  -28.2603 C.ar    1  UNL1       -0.0210
     42 C         -64.0502  -42.3306  -28.6732 C.ar    1  UNL1       -0.0073
     43 C         -63.9722  -42.9036  -29.9592 C.ar    1  UNL1       -0.0093
     44 C         -64.9736  -43.9755  -30.3803 C.3     1  UNL1        0.0236
     45 C         -66.3368  -43.3395  -30.6671 C.3     1  UNL1        0.0047
     46 C         -65.1095  -45.1101  -29.3510 C.3     1  UNL1        0.0047
     47 C         -63.1590  -40.8463  -26.8431 C.3     1  UNL1        0.0437
     48 C         -64.4693  -41.2442  -26.1582 C.3     1  UNL1        0.0769
     49 N         -65.0512  -40.0698  -25.4682 N.3     1  UNL1       -0.2681
     50 C         -66.5101  -39.9486  -25.6829 C.3     1  UNL1        0.1046
     51 C         -67.3093  -40.9168  -24.7887 C.3     1  UNL1        0.1595
     52 O         -66.9622  -40.7657  -23.4267 O.3     1  UNL1       -0.3508
     53 C         -65.5887  -41.0471  -23.2517 C.3     1  UNL1        0.1595
     54 C         -64.7338  -40.0388  -24.0271 C.3     1  UNL1        0.1046
@<TRIPOS>BOND
     1    24    25    1
     2    25    16    1
     3    16    17    2
     4    16    18   am
     5    18    19    1
     6    19    20    1
     7    20    21    1
     8    21     7    1
     9     7     8   ar
    10     8     9   ar
    11     9    10   ar
    12    10    11   ar
    13    11    26    1
    14    26    27    1
    15    27    28    1
    16    28    29    1
    17    29    30    1
    18    30    31    1
    19    11    12   ar
    20    12    13   ar
    21    13     1    1
    22     1     2   ar
    23     2     3   ar
    24     3     4   ar
    25     4    32    1
    26    32    33   am
    27    33    34    2
    28    33    35   am
    29    35    38    1
    30    38    39   ar
    31    39    40   ar
    32    40    41   ar
    33    41    47    1
    34    47    48    1
    35    48    49    1
    36    49    50    1
    37    50    51    1
    38    51    52    1
    39    52    53    1
    40    53    54    1
    41    41    42   ar
    42    42    43   ar
    43    43    44    1
    44    44    45    1
    45    44    46    1
    46     4     5   ar
    47     5     6   ar
    48    13    14   ar
    49    14    15   ar
    50    21    22    1
    51    22    23    1
    52    23    18    1
    53    15     7   ar
    54    15    10   ar
    55    31    26    1
    56     6     1   ar
    57    43    38   ar
    58    54    49    1
    59    32    36    1
    60    35    37    1
@<TRIPOS>MOLECULE
*****
 54 60 0 0 0
SMALL
GASTEIGER

@<TRIPOS>ATOM
      1 C         -61.7386  -42.3743  -26.4469 C.ar    1  UNL1        0.0360
      2 C         -63.0782  -42.6601  -26.7601 C.ar    1  UNL1        0.0043
      3 C         -63.5498  -42.4920  -28.0654 C.ar    1  UNL1        0.0148
      4 C         -62.6907  -42.0448  -29.0784 C.ar    1  UNL1        0.0516
      5 C         -61.3680  -41.7038  -28.7555 C.ar    1  UNL1        0.0148
      6 C         -60.8938  -41.8773  -27.4534 C.ar    1  UNL1        0.0043
      7 N         -61.4975  -41.4372  -21.6727 N.ar    1  UNL1       -0.2357
      8 N         -60.8140  -41.9991  -20.6804 N.ar    1  UNL1       -0.1663
      9 C         -60.0323  -42.9798  -21.1976 C.ar    1  UNL1        0.1260
     10 C         -60.2420  -43.0307  -22.5638 C.ar    1  UNL1        0.0880
     11 C         -59.7550  -43.8142  -23.6138 C.ar    1  UNL1        0.1380
     12 N         -60.2670  -43.5707  -24.8591 N.ar    1  UNL1       -0.2117
     13 C         -61.2172  -42.6051  -25.0837 C.ar    1  UNL1        0.1653
     14 N         -61.6747  -41.8451  -24.0436 N.ar    1  UNL1       -0.2079
     15 C         -61.1713  -42.0726  -22.8089 C.ar    1  UNL1        0.1652
     16 C         -66.1894  -41.7880  -19.7839 C.2     1  UNL1        0.4050
     17 O         -67.1284  -42.1632  -20.5396 O.2     1  UNL1       -0.2262
     18 N         -64.9007  -41.4521  -20.3386 N.am    1  UNL1       -0.2459
     19 C         -63.7826  -41.1337  -19.4391 C.3     1  UNL1        0.0987
     20 C         -62.8483  -40.0818  -20.0576 C.3     1  UNL1        0.0461
     21 C         -62.4908  -40.3632  -21.5310 C.3     1  UNL1        0.1102
     22 C         -63.7454  -40.6615  -22.3641 C.3     1  UNL1        0.0461
     23 C         -64.5927  -41.7707  -21.7401 C.3     1  UNL1        0.0987
     24 C         -65.9898  -42.7077  -17.4928 C.3     1  UNL1        0.2573
     25 O         -66.4038  -41.6966  -18.4038 O.3     1  UNL1       -0.4304
     26 N         -58.7478  -44.8288  -23.4357 N.pl3   1  UNL1       -0.2879
     27 C         -57.4062  -44.4645  -22.9710 C.3     1  UNL1        0.1242
     28 C         -56.9183  -45.5013  -21.9549 C.3     1  UNL1        0.1636
     29 O         -57.0190  -46.8101  -22.4848 O.3     1  UNL1       -0.3501
     30 C         -58.3790  -47.1355  -22.7054 C.3     1  UNL1        0.1636
     31 C         -58.9877  -46.2325  -23.7828 C.3     1  UNL1        0.1242
     32 N         -63.1764  -41.9466  -30.4269 N.am    1  UNL1       -0.2681
     33 C         -62.6989  -42.7484  -31.5212 C.2     1  UNL1        0.3082
     34 O         -62.7500  -42.2780  -32.6884 O.2     1  UNL1       -0.2522
     35 N         -62.1835  -44.0779  -31.3278 N.am    1  UNL1       -0.2683
     36 H         -63.9297  -41.2510  -30.6291 H       1  UNL1        0.1564
     37 H         -61.6139  -44.4918  -32.0996 H       1  UNL1        0.1564
     38 C         -62.5102  -44.9105  -30.2006 C.ar    1  UNL1        0.0475
     39 C         -63.8242  -45.3848  -30.0508 C.ar    1  UNL1        0.0141
     40 C         -64.1796  -46.1641  -28.9526 C.ar    1  UNL1       -0.0030
     41 C         -63.2185  -46.5223  -28.0024 C.ar    1  UNL1       -0.0210
     42 C         -61.8964  -46.0847  -28.1582 C.ar    1  UNL1       -0.0073
     43 C         -61.5251  -45.2589  -29.2392 C.ar    1  UNL1       -0.0093
     44 C         -60.0803  -44.7879  -29.3801 C.3     1  UNL1        0.0236
     45 C         -59.5414  -45.1488  -30.7673 C.3     1  UNL1        0.0047
     46 C         -59.1579  -45.3378  -28.2792 C.3     1  UNL1        0.0047
     47 C         -63.6190  -47.2959  -26.7754 C.3     1  UNL1        0.0437
     48 C         -62.3781  -47.7063  -25.9779 C.3     1  UNL1        0.0769
     49 N         -62.7494  -47.9562  -24.5659 N.3     1  UNL1       -0.2681
     50 C         -63.9956  -48.7429  -24.4357 C.3     1  UNL1        0.1046
     51 C         -63.7591  -50.2465  -24.6785 C.3     1  UNL1        0.1595
     52 O         -62.7302  -50.7469  -23.8482 O.3     1  UNL1       -0.3508
     53 C         -61.5227  -50.0675  -24.1250 C.3     1  UNL1        0.1595
     54 C         -61.6588  -48.5782  -23.7900 C.3     1  UNL1        0.1046
@<TRIPOS>BOND
     1    24    25    1
     2    25    16    1
     3    16    17    2
     4    16    18   am
     5    18    19    1
     6    19    20    1
     7    20    21    1
     8    21     7    1
     9     7     8   ar
    10     8     9   ar
    11     9    10   ar
    12    10    11   ar
    13    11    26    1
    14    26    27    1
    15    27    28    1
    16    28    29    1
    17    29    30    1
    18    30    31    1
    19    11    12   ar
    20    12    13   ar
    21    13     1    1
    22     1     2   ar
    23     2     3   ar
    24     3     4   ar
    25     4    32    1
    26    32    33   am
    27    33    34    2
    28    33    35   am
    29    35    38    1
    30    38    39   ar
    31    39    40   ar
    32    40    41   ar
    33    41    47    1
    34    47    48    1
    35    48    49    1
    36    49    50    1
    37    50    51    1
    38    51    52    1
    39    52    53    1
    40    53    54    1
    41    41    42   ar
    42    42    43   ar
    43    43    44    1
    44    44    45    1
    45    44    46    1
    46     4     5   ar
    47     5     6   ar
    48    13    14   ar
    49    14    15   ar
    50    21    22    1
    51    22    23    1
    52    23    18    1
    53    15     7   ar
    54    15    10   ar
    55    31    26    1
    56     6     1   ar
    57    43    38   ar
    58    54    49    1
    59    32    36    1
    60    35    37    1
@<TRIPOS>MOLECULE
*****
 54 60 0 0 0
SMALL
GASTEIGER

@<TRIPOS>ATOM
      1 C         -61.9896  -42.5966  -26.1539 C.ar    1  UNL1        0.0360
      2 C         -63.2791  -42.4550  -26.6937 C.ar    1  UNL1        0.0043
      3 C         -63.4509  -42.2282  -28.0624 C.ar    1  UNL1        0.0148
      4 C         -62.3405  -42.1480  -28.9136 C.ar    1  UNL1        0.0516
      5 C         -61.0501  -42.2314  -28.3676 C.ar    1  UNL1        0.0148
      6 C         -60.8770  -42.4643  -27.0015 C.ar    1  UNL1        0.0043
      7 N         -63.2688  -42.3409  -21.4606 N.ar    1  UNL1       -0.2357
      8 N         -62.7441  -42.8641  -20.3568 N.ar    1  UNL1       -0.1663
      9 C         -61.6204  -43.5446  -20.6951 C.ar    1  UNL1        0.1260
     10 C         -61.4431  -43.4425  -22.0631 C.ar    1  UNL1        0.0880
     11 C         -60.5060  -43.9251  -22.9809 C.ar    1  UNL1        0.1380
     12 N         -60.7198  -43.6297  -24.2997 N.ar    1  UNL1       -0.2117
     13 C         -61.8014  -42.8949  -24.7190 C.ar    1  UNL1        0.1653
     14 N         -62.7023  -42.4263  -23.8038 N.ar    1  UNL1       -0.2079
     15 C         -62.4980  -42.7068  -22.4964 C.ar    1  UNL1        0.1652
     16 C         -64.3706  -38.0102  -19.0655 C.2     1  UNL1        0.4050
     17 O         -64.8098  -38.0578  -17.8830 O.2     1  UNL1       -0.2262
     18 N         -64.2721  -39.2151  -19.8529 N.am    1  UNL1       -0.2459
     19 C         -63.6476  -39.1656  -21.1826 C.3     1  UNL1        0.0987
     20 C         -64.3037  -40.1664  -22.1469 C.3     1  UNL1        0.0461
     21 C         -64.5154  -41.5659  -21.5350 C.3     1  UNL1        0.1102
     22 C         -65.1912  -41.4786  -20.1592 C.3     1  UNL1        0.0461
     23 C         -64.4478  -40.5296  -19.2189 C.3     1  UNL1        0.0987
     24 C         -63.3625  -35.7589  -18.8409 C.3     1  UNL1        0.2573
     25 O         -63.9809  -36.7820  -19.6120 O.3     1  UNL1       -0.4304
     26 N         -59.3462  -44.6868  -22.5929 N.pl3   1  UNL1       -0.2879
     27 C         -59.4597  -46.1250  -22.3338 C.3     1  UNL1        0.1242
     28 C         -58.2487  -46.8487  -22.9299 C.3     1  UNL1        0.1636
     29 O         -57.0413  -46.2655  -22.4761 O.3     1  UNL1       -0.3501
     30 C         -56.9390  -44.9378  -22.9567 C.3     1  UNL1        0.1636
     31 C         -58.0428  -44.0567  -22.3635 C.3     1  UNL1        0.1242
     32 N         -62.5414  -41.9856  -30.3268 N.am    1  UNL1       -0.2681
     33 C         -61.9101  -42.7951  -31.3340 C.2     1  UNL1        0.3082
     34 O         -61.6975  -42.2967  -32.4708 O.2     1  UNL1       -0.2522
     35 N         -61.5320  -44.1620  -31.0908 N.am    1  UNL1       -0.2683
     36 H         -63.1922  -41.2335  -30.6480 H       1  UNL1        0.1564
     37 H         -60.8491  -44.5985  -31.7500 H       1  UNL1        0.1564
     38 C         -62.1299  -44.9938  -30.0803 C.ar    1  UNL1        0.0475
     39 C         -61.3171  -45.5650  -29.0867 C.ar    1  UNL1        0.0141
     40 C         -61.8608  -46.4021  -28.1154 C.ar    1  UNL1       -0.0030
     41 C         -63.2363  -46.6518  -28.0905 C.ar    1  UNL1       -0.0210
     42 C         -64.0633  -46.0604  -29.0550 C.ar    1  UNL1       -0.0073
     43 C         -63.5273  -45.2451  -30.0730 C.ar    1  UNL1       -0.0093
     44 C         -64.4491  -44.6212  -31.1172 C.3     1  UNL1        0.0236
     45 C         -65.5192  -43.7667  -30.4321 C.3     1  UNL1        0.0047
     46 C         -65.0973  -45.6614  -32.0462 C.3     1  UNL1        0.0047
     47 C         -63.8119  -47.6186  -27.0915 C.3     1  UNL1        0.0437
     48 C         -62.6948  -48.2360  -26.2457 C.3     1  UNL1        0.0769
     49 N         -63.0945  -48.2489  -24.8194 N.3     1  UNL1       -0.2681
     50 C         -64.2094  -49.1833  -24.5491 C.3     1  UNL1        0.1046
     51 C         -63.7316  -50.6464  -24.4671 C.3     1  UNL1        0.1595
     52 O         -62.6814  -50.7938  -23.5322 O.3     1  UNL1       -0.3508
     53 C         -61.5807  -49.9992  -23.9241 C.3     1  UNL1        0.1595
     54 C         -61.9619  -48.5149  -23.9113 C.3     1  UNL1        0.1046
@<TRIPOS>BOND
     1    24    25    1
     2    25    16    1
     3    16    17    2
     4    16    18   am
     5    18    19    1
     6    19    20    1
     7    20    21    1
     8    21     7    1
     9     7     8   ar
    10     8     9   ar
    11     9    10   ar
    12    10    11   ar
    13    11    26    1
    14    26    27    1
    15    27    28    1
    16    28    29    1
    17    29    30    1
    18    30    31    1
    19    11    12   ar
    20    12    13   ar
    21    13     1    1
    22     1     2   ar
    23     2     3   ar
    24     3     4   ar
    25     4    32    1
    26    32    33   am
    27    33    34    2
    28    33    35   am
    29    35    38    1
    30    38    39   ar
    31    39    40   ar
    32    40    41   ar
    33    41    47    1
    34    47    48    1
    35    48    49    1
    36    49    50    1
    37    50    51    1
    38    51    52    1
    39    52    53    1
    40    53    54    1
    41    41    42   ar
    42    42    43   ar
    43    43    44    1
    44    44    45    1
    45    44    46    1
    46     4     5   ar
    47     5     6   ar
    48    13    14   ar
    49    14    15   ar
    50    21    22    1
    51    22    23    1
    52    23    18    1
    53    15     7   ar
    54    15    10   ar
    55    31    26    1
    56     6     1   ar
    57    43    38   ar
    58    54    49    1
    59    32    36    1
    60    35    37    1
@<TRIPOS>MOLECULE
*****
 54 60 0 0 0
SMALL
GASTEIGER

@<TRIPOS>ATOM
      1 C         -62.3340  -42.6804  -26.5213 C.ar    1  UNL1        0.0360
      2 C         -63.6010  -43.0519  -27.0017 C.ar    1  UNL1        0.0043
      3 C         -63.9505  -42.8095  -28.3335 C.ar    1  UNL1        0.0148
      4 C         -63.0390  -42.2011  -29.2071 C.ar    1  UNL1        0.0516
      5 C         -61.7950  -41.7771  -28.7145 C.ar    1  UNL1        0.0148
      6 C         -61.4420  -42.0243  -27.3861 C.ar    1  UNL1        0.0043
      7 N         -63.0231  -42.6526  -21.6991 N.ar    1  UNL1       -0.2357
      8 N         -62.3117  -43.1401  -20.6873 N.ar    1  UNL1       -0.1663
      9 C         -61.1775  -43.6929  -21.1855 C.ar    1  UNL1        0.1260
     10 C         -61.1875  -43.5458  -22.5608 C.ar    1  UNL1        0.0880
     11 C         -60.3313  -43.9098  -23.6038 C.ar    1  UNL1        0.1380
     12 N         -60.7403  -43.6122  -24.8751 N.ar    1  UNL1       -0.2117
     13 C         -61.9351  -42.9858  -25.1317 C.ar    1  UNL1        0.1653
     14 N         -62.7545  -42.6320  -24.0963 N.ar    1  UNL1       -0.2079
     15 C         -62.3578  -42.9155  -22.8346 C.ar    1  UNL1        0.1652
     16 C         -64.2387  -38.5015  -19.0542 C.2     1  UNL1        0.4050
     17 O         -64.5146  -38.6146  -17.8276 O.2     1  UNL1       -0.2262
     18 N         -64.1213  -39.6760  -19.8838 N.am    1  UNL1       -0.2459
     19 C         -63.6818  -39.5392  -21.2797 C.3     1  UNL1        0.0987
     20 C         -64.3522  -40.5863  -22.1830 C.3     1  UNL1        0.0461
     21 C         -64.3407  -42.0104  -21.5917 C.3     1  UNL1        0.1102
     22 C         -64.8389  -42.0173  -20.1395 C.3     1  UNL1        0.0461
     23 C         -64.0801  -41.0122  -19.2726 C.3     1  UNL1        0.0987
     24 C         -64.5581  -36.0457  -19.0072 C.3     1  UNL1        0.2573
     25 O         -64.0489  -37.2303  -19.6083 O.3     1  UNL1       -0.4304
     26 N         -59.0607  -44.5540  -23.3890 N.pl3   1  UNL1       -0.2879
     27 C         -57.9060  -43.7760  -22.9308 C.3     1  UNL1        0.1242
     28 C         -57.1334  -44.5786  -21.8799 C.3     1  UNL1        0.1636
     29 O         -56.8140  -45.8685  -22.3676 O.3     1  UNL1       -0.3501
     30 C         -58.0017  -46.6082  -22.5832 C.3     1  UNL1        0.1636
     31 C         -58.8463  -45.9721  -23.6916 C.3     1  UNL1        0.1242
     32 N         -63.3914  -42.0255  -30.5887 N.am    1  UNL1       -0.2681
     33 C         -62.7328  -42.6854  -31.6838 C.2     1  UNL1        0.3082
     34 O         -62.7075  -42.1202  -32.8089 O.2     1  UNL1       -0.2522
     35 N         -62.1197  -43.9793  -31.5402 N.am    1  UNL1       -0.2683
     36 H         -64.1809  -41.3799  -30.8169 H       1  UNL1        0.1564
     37 H         -61.4386  -44.2749  -32.2751 H       1  UNL1        0.1564
     38 C         -62.4818  -44.9321  -30.5245 C.ar    1  UNL1        0.0475
     39 C         -63.7654  -45.5032  -30.5402 C.ar    1  UNL1        0.0141
     40 C         -64.1575  -46.4022  -29.5513 C.ar    1  UNL1       -0.0030
     41 C         -63.2596  -46.7830  -28.5494 C.ar    1  UNL1       -0.0210
     42 C         -61.9647  -46.2473  -28.5421 C.ar    1  UNL1       -0.0073
     43 C         -61.5619  -45.3026  -29.5084 C.ar    1  UNL1       -0.0093
     44 C         -60.1489  -44.7271  -29.4720 C.3     1  UNL1        0.0236
     45 C         -59.3941  -45.1021  -30.7504 C.3     1  UNL1        0.0047
     46 C         -59.3555  -45.1575  -28.2268 C.3     1  UNL1        0.0047
     47 C         -63.7081  -47.6911  -27.4366 C.3     1  UNL1        0.0437
     48 C         -62.5351  -48.0090  -26.5052 C.3     1  UNL1        0.0769
     49 N         -62.9765  -47.9188  -25.0941 N.3     1  UNL1       -0.2681
     50 C         -64.0991  -48.8331  -24.7892 C.3     1  UNL1        0.1046
     51 C         -63.6243  -50.2855  -24.5869 C.3     1  UNL1        0.1595
     52 O         -62.6020  -50.3624  -23.6135 O.3     1  UNL1       -0.3508
     53 C         -61.4901  -49.5965  -24.0297 C.3     1  UNL1        0.1595
     54 C         -61.8711  -48.1159  -24.1362 C.3     1  UNL1        0.1046
@<TRIPOS>BOND
     1    24    25    1
     2    25    16    1
     3    16    17    2
     4    16    18   am
     5    18    19    1
     6    19    20    1
     7    20    21    1
     8    21     7    1
     9     7     8   ar
    10     8     9   ar
    11     9    10   ar
    12    10    11   ar
    13    11    26    1
    14    26    27    1
    15    27    28    1
    16    28    29    1
    17    29    30    1
    18    30    31    1
    19    11    12   ar
    20    12    13   ar
    21    13     1    1
    22     1     2   ar
    23     2     3   ar
    24     3     4   ar
    25     4    32    1
    26    32    33   am
    27    33    34    2
    28    33    35   am
    29    35    38    1
    30    38    39   ar
    31    39    40   ar
    32    40    41   ar
    33    41    47    1
    34    47    48    1
    35    48    49    1
    36    49    50    1
    37    50    51    1
    38    51    52    1
    39    52    53    1
    40    53    54    1
    41    41    42   ar
    42    42    43   ar
    43    43    44    1
    44    44    45    1
    45    44    46    1
    46     4     5   ar
    47     5     6   ar
    48    13    14   ar
    49    14    15   ar
    50    21    22    1
    51    22    23    1
    52    23    18    1
    53    15     7   ar
    54    15    10   ar
    55    31    26    1
    56     6     1   ar
    57    43    38   ar
    58    54    49    1
    59    32    36    1
    60    35    37    1
@<TRIPOS>MOLECULE
*****
 54 60 0 0 0
SMALL
GASTEIGER

@<TRIPOS>ATOM
      1 C         -60.8050  -44.5262  -26.8825 C.ar    1  UNL1        0.0360
      2 C         -60.6027  -45.4906  -27.8841 C.ar    1  UNL1        0.0043
      3 C         -60.4499  -45.1021  -29.2183 C.ar    1  UNL1        0.0148
      4 C         -60.4881  -43.7465  -29.5717 C.ar    1  UNL1        0.0516
      5 C         -60.7477  -42.7863  -28.5813 C.ar    1  UNL1        0.0148
      6 C         -60.8942  -43.1723  -27.2473 C.ar    1  UNL1        0.0043
      7 N         -60.6325  -47.7767  -23.2585 N.ar    1  UNL1       -0.2357
      8 N         -60.7824  -47.6634  -21.9424 N.ar    1  UNL1       -0.1663
      9 C         -61.0789  -46.3718  -21.6526 C.ar    1  UNL1        0.1260
     10 C         -61.1104  -45.6549  -22.8351 C.ar    1  UNL1        0.0880
     11 C         -61.3390  -44.3200  -23.1803 C.ar    1  UNL1        0.1380
     12 N         -61.2292  -43.9938  -24.5046 N.ar    1  UNL1       -0.2117
     13 C         -60.9086  -44.9234  -25.4631 C.ar    1  UNL1        0.1653
     14 N         -60.6960  -46.2254  -25.1047 N.ar    1  UNL1       -0.2079
     15 C         -60.8079  -46.5610  -23.7991 C.ar    1  UNL1        0.1652
     16 C         -62.9595  -52.2784  -23.1025 C.2     1  UNL1        0.4050
     17 O         -62.6764  -53.0834  -22.1722 O.2     1  UNL1       -0.2262
     18 N         -62.1551  -51.0994  -23.3129 N.am    1  UNL1       -0.2459
     19 C         -62.5648  -50.1098  -24.3195 C.3     1  UNL1        0.0987
     20 C         -61.3465  -49.4473  -24.9818 C.3     1  UNL1        0.0461
     21 C         -60.2630  -49.0037  -23.9783 C.3     1  UNL1        0.1102
     22 C         -59.9130  -50.1320  -22.9976 C.3     1  UNL1        0.0461
     23 C         -61.1574  -50.6963  -22.3115 C.3     1  UNL1        0.0987
     24 C         -65.0979  -53.4361  -23.5735 C.3     1  UNL1        0.2573
     25 O         -64.0570  -52.5353  -23.9322 O.3     1  UNL1       -0.4304
     26 N         -61.6934  -43.3088  -22.2172 N.pl3   1  UNL1       -0.2879
     27 C         -62.9992  -43.3472  -21.5522 C.3     1  UNL1        0.1242
     28 C         -62.8296  -42.9921  -20.0722 C.3     1  UNL1        0.1636
     29 O         -62.1337  -41.7681  -19.9256 O.3     1  UNL1       -0.3501
     30 C         -60.8127  -41.9050  -20.4161 C.3     1  UNL1        0.1636
     31 C         -60.8162  -42.1716  -21.9246 C.3     1  UNL1        0.1242
     32 N         -60.2581  -43.3637  -30.9372 N.am    1  UNL1       -0.2681
     33 C         -61.1802  -43.6069  -32.0138 C.2     1  UNL1        0.3082
     34 O         -60.7297  -43.7461  -33.1816 O.2     1  UNL1       -0.2522
     35 N         -62.6019  -43.6761  -31.8027 N.am    1  UNL1       -0.2683
     36 H         -59.3651  -42.8717  -31.1666 H       1  UNL1        0.1564
     37 H         -63.1804  -44.1158  -32.5532 H       1  UNL1        0.1564
     38 C         -63.2797  -43.0668  -30.6892 C.ar    1  UNL1        0.0475
     39 C         -63.3101  -41.6662  -30.5823 C.ar    1  UNL1        0.0141
     40 C         -63.9285  -41.0475  -29.4984 C.ar    1  UNL1       -0.0030
     41 C         -64.5677  -41.8149  -28.5199 C.ar    1  UNL1       -0.0210
     42 C         -64.5748  -43.2117  -28.6328 C.ar    1  UNL1       -0.0073
     43 C         -63.9172  -43.8596  -29.6987 C.ar    1  UNL1       -0.0093
     44 C         -63.9316  -45.3828  -29.7927 C.3     1  UNL1        0.0236
     45 C         -65.0579  -45.8427  -30.7226 C.3     1  UNL1        0.0047
     46 C         -64.0451  -46.0695  -28.4213 C.3     1  UNL1        0.0047
     47 C         -65.1654  -41.1515  -27.3088 C.3     1  UNL1        0.0437
     48 C         -64.2091  -41.2595  -26.1179 C.3     1  UNL1        0.0769
     49 N         -64.4437  -40.1350  -25.1827 N.3     1  UNL1       -0.2681
     50 C         -65.8606  -39.7105  -25.1469 C.3     1  UNL1        0.1046
     51 C         -66.7261  -40.6539  -24.2886 C.3     1  UNL1        0.1595
     52 O         -66.1884  -40.8075  -22.9902 O.3     1  UNL1       -0.3508
     53 C         -64.8926  -41.3643  -23.0746 C.3     1  UNL1        0.1595
     54 C         -63.9500  -40.4130  -23.8199 C.3     1  UNL1        0.1046
@<TRIPOS>BOND
     1    24    25    1
     2    25    16    1
     3    16    17    2
     4    16    18   am
     5    18    19    1
     6    19    20    1
     7    20    21    1
     8    21     7    1
     9     7     8   ar
    10     8     9   ar
    11     9    10   ar
    12    10    11   ar
    13    11    26    1
    14    26    27    1
    15    27    28    1
    16    28    29    1
    17    29    30    1
    18    30    31    1
    19    11    12   ar
    20    12    13   ar
    21    13     1    1
    22     1     2   ar
    23     2     3   ar
    24     3     4   ar
    25     4    32    1
    26    32    33   am
    27    33    34    2
    28    33    35   am
    29    35    38    1
    30    38    39   ar
    31    39    40   ar
    32    40    41   ar
    33    41    47    1
    34    47    48    1
    35    48    49    1
    36    49    50    1
    37    50    51    1
    38    51    52    1
    39    52    53    1
    40    53    54    1
    41    41    42   ar
    42    42    43   ar
    43    43    44    1
    44    44    45    1
    45    44    46    1
    46     4     5   ar
    47     5     6   ar
    48    13    14   ar
    49    14    15   ar
    50    21    22    1
    51    22    23    1
    52    23    18    1
    53    15     7   ar
    54    15    10   ar
    55    31    26    1
    56     6     1   ar
    57    43    38   ar
    58    54    49    1
    59    32    36    1
    60    35    37    1
@<TRIPOS>MOLECULE
*****
 54 60 0 0 0
SMALL
GASTEIGER

@<TRIPOS>ATOM
      1 C         -63.4569  -42.2269  -25.2090 C.ar    1  UNL1        0.0360
      2 C         -63.9402  -40.9355  -25.4791 C.ar    1  UNL1        0.0043
      3 C         -64.4390  -40.6186  -26.7461 C.ar    1  UNL1        0.0148
      4 C         -64.4710  -41.5868  -27.7589 C.ar    1  UNL1        0.0516
      5 C         -63.9356  -42.8598  -27.5083 C.ar    1  UNL1        0.0148
      6 C         -63.4428  -43.1797  -26.2414 C.ar    1  UNL1        0.0043
      7 N         -63.5650  -41.9347  -20.3477 N.ar    1  UNL1       -0.2357
      8 N         -62.8738  -42.5530  -19.3952 N.ar    1  UNL1       -0.1663
      9 C         -61.9615  -43.3660  -19.9841 C.ar    1  UNL1        0.1260
     10 C         -62.0946  -43.2504  -21.3560 C.ar    1  UNL1        0.0880
     11 C         -61.4699  -43.8267  -22.4655 C.ar    1  UNL1        0.1380
     12 N         -61.9423  -43.4693  -23.6990 N.ar    1  UNL1       -0.2117
     13 C         -62.9825  -42.5869  -23.8567 C.ar    1  UNL1        0.1653
     14 N         -63.5748  -42.0292  -22.7582 N.ar    1  UNL1       -0.2079
     15 C         -63.1123  -42.3702  -21.5337 C.ar    1  UNL1        0.1652
     16 C         -63.2934  -36.9789  -19.3133 C.2     1  UNL1        0.4050
     17 O         -63.1314  -36.6099  -18.1170 O.2     1  UNL1       -0.2262
     18 N         -63.6094  -38.3543  -19.6128 N.am    1  UNL1       -0.2459
     19 C         -63.6763  -38.7966  -21.0130 C.3     1  UNL1        0.0987
     20 C         -64.7358  -39.8934  -21.2037 C.3     1  UNL1        0.0461
     21 C         -64.6788  -41.0004  -20.1317 C.3     1  UNL1        0.1102
     22 C         -64.6318  -40.4070  -18.7165 C.3     1  UNL1        0.0461
     23 C         -63.5078  -39.3815  -18.5663 C.3     1  UNL1        0.0987
     24 C         -61.9344  -35.4137  -20.6691 C.3     1  UNL1        0.2573
     25 O         -63.1676  -36.0468  -20.3499 O.3     1  UNL1       -0.4304
     26 N         -60.3652  -44.7451  -22.3565 N.pl3   1  UNL1       -0.2879
     27 C         -60.5707  -46.0850  -21.7989 C.3     1  UNL1        0.1242
     28 C         -59.7783  -47.1070  -22.6194 C.3     1  UNL1        0.1636
     29 O         -58.4210  -46.7200  -22.7285 O.3     1  UNL1       -0.3501
     30 C         -58.3230  -45.5146  -23.4643 C.3     1  UNL1        0.1636
     31 C         -58.9964  -44.3614  -22.7138 C.3     1  UNL1        0.1242
     32 N         -65.0527  -41.2615  -29.0316 N.am    1  UNL1       -0.2681
     33 C         -64.3805  -40.5205  -30.0648 C.2     1  UNL1        0.3082
     34 O         -65.0674  -39.8360  -30.8683 O.2     1  UNL1       -0.2522
     35 N         -62.9506  -40.5522  -30.2223 N.am    1  UNL1       -0.2683
     36 H         -66.0268  -41.5870  -29.2250 H       1  UNL1        0.1564
     37 H         -62.5117  -39.7998  -30.7990 H       1  UNL1        0.1564
     38 C         -62.1128  -41.6200  -29.7443 C.ar    1  UNL1        0.0475
     39 C         -61.3317  -41.4219  -28.5932 C.ar    1  UNL1        0.0141
     40 C         -60.4850  -42.4239  -28.1255 C.ar    1  UNL1       -0.0030
     41 C         -60.4331  -43.6617  -28.7737 C.ar    1  UNL1       -0.0210
     42 C         -61.2330  -43.8844  -29.9026 C.ar    1  UNL1       -0.0073
     43 C         -62.0642  -42.8688  -30.4181 C.ar    1  UNL1       -0.0093
     44 C         -62.9179  -43.1343  -31.6550 C.3     1  UNL1        0.0236
     45 C         -63.8261  -44.3442  -31.4186 C.3     1  UNL1        0.0047
     46 C         -62.0835  -43.3230  -32.9331 C.3     1  UNL1        0.0047
     47 C         -59.4603  -44.7149  -28.3169 C.3     1  UNL1        0.0437
     48 C         -60.1784  -46.0533  -28.1242 C.3     1  UNL1        0.0769
     49 N         -61.4469  -45.8407  -27.3894 N.3     1  UNL1       -0.2681
     50 C         -62.6046  -46.4762  -28.0563 C.3     1  UNL1        0.1046
     51 C         -62.6631  -47.9938  -27.7930 C.3     1  UNL1        0.1595
     52 O         -62.6305  -48.2780  -26.4086 O.3     1  UNL1       -0.3508
     53 C         -61.4291  -47.7868  -25.8502 C.3     1  UNL1        0.1595
     54 C         -61.3660  -46.2608  -25.9768 C.3     1  UNL1        0.1046
@<TRIPOS>BOND
     1    24    25    1
     2    25    16    1
     3    16    17    2
     4    16    18   am
     5    18    19    1
     6    19    20    1
     7    20    21    1
     8    21     7    1
     9     7     8   ar
    10     8     9   ar
    11     9    10   ar
    12    10    11   ar
    13    11    26    1
    14    26    27    1
    15    27    28    1
    16    28    29    1
    17    29    30    1
    18    30    31    1
    19    11    12   ar
    20    12    13   ar
    21    13     1    1
    22     1     2   ar
    23     2     3   ar
    24     3     4   ar
    25     4    32    1
    26    32    33   am
    27    33    34    2
    28    33    35   am
    29    35    38    1
    30    38    39   ar
    31    39    40   ar
    32    40    41   ar
    33    41    47    1
    34    47    48    1
    35    48    49    1
    36    49    50    1
    37    50    51    1
    38    51    52    1
    39    52    53    1
    40    53    54    1
    41    41    42   ar
    42    42    43   ar
    43    43    44    1
    44    44    45    1
    45    44    46    1
    46     4     5   ar
    47     5     6   ar
    48    13    14   ar
    49    14    15   ar
    50    21    22    1
    51    22    23    1
    52    23    18    1
    53    15     7   ar
    54    15    10   ar
    55    31    26    1
    56     6     1   ar
    57    43    38   ar
    58    54    49    1
    59    32    36    1
    60    35    37    1
@<TRIPOS>MOLECULE
*****
 54 60 0 0 0
SMALL
GASTEIGER

@<TRIPOS>ATOM
      1 C         -63.5397  -41.7757  -25.1325 C.ar    1  UNL1        0.0360
      2 C         -63.5047  -42.7531  -26.1413 C.ar    1  UNL1        0.0043
      3 C         -64.1199  -42.5179  -27.3744 C.ar    1  UNL1        0.0148
      4 C         -64.7712  -41.3020  -27.6223 C.ar    1  UNL1        0.0516
      5 C         -64.8571  -40.3480  -26.5963 C.ar    1  UNL1        0.0148
      6 C         -64.2376  -40.5789  -25.3662 C.ar    1  UNL1        0.0043
      7 N         -60.2755  -44.0040  -22.2848 N.ar    1  UNL1       -0.2357
      8 N         -59.9177  -43.8235  -21.0172 N.ar    1  UNL1       -0.1663
      9 C         -60.6910  -42.8430  -20.4871 C.ar    1  UNL1        0.1260
     10 C         -61.5602  -42.3952  -21.4655 C.ar    1  UNL1        0.0880
     11 C         -62.5600  -41.4211  -21.5341 C.ar    1  UNL1        0.1380
     12 N         -63.1780  -41.2499  -22.7428 N.ar    1  UNL1       -0.2117
     13 C         -62.8421  -41.9924  -23.8480 C.ar    1  UNL1        0.1653
     14 N         -61.8660  -42.9452  -23.7573 N.ar    1  UNL1       -0.2079
     15 C         -61.2523  -43.1277  -22.5658 C.ar    1  UNL1        0.1652
     16 C         -60.8559  -49.0371  -22.4736 C.2     1  UNL1        0.4050
     17 O         -60.1451  -49.7650  -21.7262 O.2     1  UNL1       -0.2262
     18 N         -60.5564  -47.6333  -22.6182 N.am    1  UNL1       -0.2459
     19 C         -61.4611  -46.7730  -23.3939 C.3     1  UNL1        0.0987
     20 C         -60.6899  -45.6584  -24.1183 C.3     1  UNL1        0.0461
     21 C         -59.6533  -44.9447  -23.2272 C.3     1  UNL1        0.1102
     22 C         -58.7613  -45.9530  -22.4890 C.3     1  UNL1        0.0461
     23 C         -59.5855  -46.9880  -21.7228 C.3     1  UNL1        0.0987
     24 C         -62.2599  -50.9815  -23.0926 C.3     1  UNL1        0.2573
     25 O         -61.9361  -49.5981  -23.1645 O.3     1  UNL1       -0.4304
     26 N         -62.9616  -40.6261  -20.4016 N.pl3   1  UNL1       -0.2879
     27 C         -63.2847  -39.2066  -20.5727 C.3     1  UNL1        0.1242
     28 C         -64.5161  -38.8578  -19.7316 C.3     1  UNL1        0.1636
     29 O         -64.3357  -39.2591  -18.3862 O.3     1  UNL1       -0.3501
     30 C         -64.2394  -40.6697  -18.3146 C.3     1  UNL1        0.1636
     31 C         -62.9855  -41.1680  -19.0399 C.3     1  UNL1        0.1242
     32 N         -65.3353  -41.0523  -28.9197 N.am    1  UNL1       -0.2681
     33 C         -64.6282  -40.4268  -30.0047 C.2     1  UNL1        0.3082
     34 O         -65.2817  -39.7774  -30.8633 O.2     1  UNL1       -0.2522
     35 N         -63.2010  -40.5360  -30.1517 N.am    1  UNL1       -0.2683
     36 H         -66.3230  -41.3473  -29.0919 H       1  UNL1        0.1564
     37 H         -62.7272  -39.8523  -30.7837 H       1  UNL1        0.1564
     38 C         -62.4138  -41.5997  -29.5865 C.ar    1  UNL1        0.0475
     39 C         -61.6092  -41.3414  -28.4640 C.ar    1  UNL1        0.0141
     40 C         -60.8098  -42.3410  -27.9150 C.ar    1  UNL1       -0.0030
     41 C         -60.8303  -43.6327  -28.4501 C.ar    1  UNL1       -0.0210
     42 C         -61.6547  -43.9125  -29.5482 C.ar    1  UNL1       -0.0073
     43 C         -62.4385  -42.9044  -30.1462 C.ar    1  UNL1       -0.0093
     44 C         -63.3201  -43.2335  -31.3476 C.3     1  UNL1        0.0236
     45 C         -64.0661  -44.5493  -31.1090 C.3     1  UNL1        0.0047
     46 C         -62.5391  -43.2843  -32.6715 C.3     1  UNL1        0.0047
     47 C         -59.9078  -44.6908  -27.9083 C.3     1  UNL1        0.0437
     48 C         -60.4822  -46.0844  -28.1774 C.3     1  UNL1        0.0769
     49 N         -61.2431  -46.5501  -26.9949 N.3     1  UNL1       -0.2681
     50 C         -62.4948  -45.7890  -26.7875 C.3     1  UNL1        0.1046
     51 C         -63.6171  -46.2502  -27.7380 C.3     1  UNL1        0.1595
     52 O         -63.8271  -47.6454  -27.6483 O.3     1  UNL1       -0.3508
     53 C         -62.6444  -48.3287  -28.0097 C.3     1  UNL1        0.1595
     54 C         -61.5159  -48.0002  -27.0261 C.3     1  UNL1        0.1046
@<TRIPOS>BOND
     1    24    25    1
     2    25    16    1
     3    16    17    2
     4    16    18   am
     5    18    19    1
     6    19    20    1
     7    20    21    1
     8    21     7    1
     9     7     8   ar
    10     8     9   ar
    11     9    10   ar
    12    10    11   ar
    13    11    26    1
    14    26    27    1
    15    27    28    1
    16    28    29    1
    17    29    30    1
    18    30    31    1
    19    11    12   ar
    20    12    13   ar
    21    13     1    1
    22     1     2   ar
    23     2     3   ar
    24     3     4   ar
    25     4    32    1
    26    32    33   am
    27    33    34    2
    28    33    35   am
    29    35    38    1
    30    38    39   ar
    31    39    40   ar
    32    40    41   ar
    33    41    47    1
    34    47    48    1
    35    48    49    1
    36    49    50    1
    37    50    51    1
    38    51    52    1
    39    52    53    1
    40    53    54    1
    41    41    42   ar
    42    42    43   ar
    43    43    44    1
    44    44    45    1
    45    44    46    1
    46     4     5   ar
    47     5     6   ar
    48    13    14   ar
    49    14    15   ar
    50    21    22    1
    51    22    23    1
    52    23    18    1
    53    15     7   ar
    54    15    10   ar
    55    31    26    1
    56     6     1   ar
    57    43    38   ar
    58    54    49    1
    59    32    36    1
    60    35    37    1
@<TRIPOS>MOLECULE
*****
 54 60 0 0 0
SMALL
GASTEIGER

@<TRIPOS>ATOM
      1 C         -62.2641  -45.9334  -22.7510 C.ar    1  UNL1        0.0360
      2 C         -63.3766  -45.2982  -22.1739 C.ar    1  UNL1        0.0043
      3 C         -63.1990  -44.2743  -21.2388 C.ar    1  UNL1        0.0148
      4 C         -61.9102  -43.8633  -20.8722 C.ar    1  UNL1        0.0516
      5 C         -60.7986  -44.5355  -21.4039 C.ar    1  UNL1        0.0148
      6 C         -60.9743  -45.5542  -22.3429 C.ar    1  UNL1        0.0043
      7 N         -63.5172  -47.4702  -27.2004 N.ar    1  UNL1       -0.2357
      8 N         -63.4763  -48.6646  -27.7828 N.ar    1  UNL1       -0.1663
      9 C         -63.0286  -49.5699  -26.8771 C.ar    1  UNL1        0.1260
     10 C         -62.7784  -48.9104  -25.6873 C.ar    1  UNL1        0.0880
     11 C         -62.3030  -49.2836  -24.4271 C.ar    1  UNL1        0.1380
     12 N         -62.1489  -48.2873  -23.5019 N.ar    1  UNL1       -0.2117
     13 C         -62.4422  -46.9756  -23.7832 C.ar    1  UNL1        0.1653
     14 N         -62.9128  -46.6333  -25.0202 N.ar    1  UNL1       -0.2079
     15 C         -63.0751  -47.6107  -25.9411 C.ar    1  UNL1        0.1652
     16 C         -60.5412  -44.2670  -29.7672 C.2     1  UNL1        0.4050
     17 O         -59.8807  -43.3998  -29.1307 O.2     1  UNL1       -0.2262
     18 N         -61.5679  -45.0312  -29.1013 N.am    1  UNL1       -0.2459
     19 C         -62.2455  -46.1197  -29.8200 C.3     1  UNL1        0.0987
     20 C         -63.7121  -46.2532  -29.3801 C.3     1  UNL1        0.0461
     21 C         -63.9047  -46.2104  -27.8508 C.3     1  UNL1        0.1102
     22 C         -63.1641  -45.0191  -27.2267 C.3     1  UNL1        0.0461
     23 C         -61.6918  -44.9856  -27.6373 C.3     1  UNL1        0.0987
     24 C         -58.9712  -44.7675  -31.6163 C.3     1  UNL1        0.2573
     25 O         -60.2753  -44.4836  -31.1242 O.3     1  UNL1       -0.4304
     26 N         -61.9954  -50.6463  -24.0750 N.pl3   1  UNL1       -0.2879
     27 C         -60.6022  -51.0689  -23.9046 C.3     1  UNL1        0.1242
     28 C         -60.4943  -51.9963  -22.6907 C.3     1  UNL1        0.1636
     29 O         -61.4215  -53.0615  -22.7882 O.3     1  UNL1       -0.3501
     30 C         -62.7424  -52.5547  -22.7370 C.3     1  UNL1        0.1636
     31 C         -63.0352  -51.6724  -23.9545 C.3     1  UNL1        0.1242
     32 N         -61.7495  -42.7621  -19.9637 N.am    1  UNL1       -0.2681
     33 C         -60.8949  -41.6306  -20.2041 C.2     1  UNL1        0.3082
     34 O         -60.3993  -41.0217  -19.2193 O.2     1  UNL1       -0.2522
     35 N         -60.6041  -41.1599  -21.5324 N.am    1  UNL1       -0.2683
     36 H         -62.2911  -42.7784  -19.0701 H       1  UNL1        0.1564
     37 H         -59.7828  -40.5253  -21.6506 H       1  UNL1        0.1564
     38 C         -61.4447  -41.4056  -22.6742 C.ar    1  UNL1        0.0475
     39 C         -60.9059  -42.0458  -23.8028 C.ar    1  UNL1        0.0141
     40 C         -61.6846  -42.2670  -24.9362 C.ar    1  UNL1       -0.0030
     41 C         -63.0314  -41.8915  -24.9498 C.ar    1  UNL1       -0.0210
     42 C         -63.5905  -41.2834  -23.8178 C.ar    1  UNL1       -0.0073
     43 C         -62.8086  -41.0109  -22.6764 C.ar    1  UNL1       -0.0093
     44 C         -63.4399  -40.3385  -21.4604 C.3     1  UNL1        0.0236
     45 C         -64.9666  -40.4182  -21.5476 C.3     1  UNL1        0.0047
     46 C         -62.9818  -38.8825  -21.2723 C.3     1  UNL1        0.0047
     47 C         -63.8505  -42.0571  -26.2011 C.3     1  UNL1        0.0437
     48 C         -62.9635  -41.9069  -27.4401 C.3     1  UNL1        0.0769
     49 N         -63.6128  -40.9999  -28.4147 N.3     1  UNL1       -0.2681
     50 C         -62.7798  -40.7628  -29.6143 C.3     1  UNL1        0.1046
     51 C         -62.8472  -41.9393  -30.6077 C.3     1  UNL1        0.1595
     52 O         -64.1837  -42.2512  -30.9469 O.3     1  UNL1       -0.3508
     53 C         -64.8950  -42.6238  -29.7843 C.3     1  UNL1        0.1595
     54 C         -64.9642  -41.4500  -28.8013 C.3     1  UNL1        0.1046
@<TRIPOS>BOND
     1    24    25    1
     2    25    16    1
     3    16    17    2
     4    16    18   am
     5    18    19    1
     6    19    20    1
     7    20    21    1
     8    21     7    1
     9     7     8   ar
    10     8     9   ar
    11     9    10   ar
    12    10    11   ar
    13    11    26    1
    14    26    27    1
    15    27    28    1
    16    28    29    1
    17    29    30    1
    18    30    31    1
    19    11    12   ar
    20    12    13   ar
    21    13     1    1
    22     1     2   ar
    23     2     3   ar
    24     3     4   ar
    25     4    32    1
    26    32    33   am
    27    33    34    2
    28    33    35   am
    29    35    38    1
    30    38    39   ar
    31    39    40   ar
    32    40    41   ar
    33    41    47    1
    34    47    48    1
    35    48    49    1
    36    49    50    1
    37    50    51    1
    38    51    52    1
    39    52    53    1
    40    53    54    1
    41    41    42   ar
    42    42    43   ar
    43    43    44    1
    44    44    45    1
    45    44    46    1
    46     4     5   ar
    47     5     6   ar
    48    13    14   ar
    49    14    15   ar
    50    21    22    1
    51    22    23    1
    52    23    18    1
    53    15     7   ar
    54    15    10   ar
    55    31    26    1
    56     6     1   ar
    57    43    38   ar
    58    54    49    1
    59    32    36    1
    60    35    37    1
