@<TRIPOS>MOLECULE
*****
 42 46 0 0 0
SMALL
GASTEIGER

@<TRIPOS>ATOM
      1 C         -28.3031   -2.7470  -19.0383 C.3     1  UNL1        0.0323
      2 C         -28.0877   -3.3779  -17.6899 C.ar    1  UNL1       -0.0083
      3 C         -29.1059   -3.3156  -16.7219 C.ar    1  UNL1       -0.0018
      4 C         -28.9418   -3.9296  -15.4775 C.ar    1  UNL1        0.0144
      5 C         -27.7419   -4.5806  -15.1682 C.ar    1  UNL1        0.0518
      6 C         -26.7078   -4.6040  -16.1072 C.ar    1  UNL1        0.0290
      7 C         -26.8827   -4.0505  -17.3862 C.ar    1  UNL1        0.0477
      8 N         -27.5675   -5.2603  -13.9208 N.am    1  UNL1       -0.2803
      9 C         -27.5438   -6.6927  -13.8790 C.2     1  UNL1        0.2495
     10 O         -28.5110   -7.3438  -14.3591 O.2     1  UNL1       -0.2698
     11 H         -27.0723   -4.7427  -13.1601 H       1  UNL1        0.1552
     12 C         -26.3812   -7.4139  -13.3055 C.ar    1  UNL1        0.0537
     13 C         -26.4557   -7.9981  -12.0280 C.ar    1  UNL1        0.0042
     14 C         -25.3482   -8.6471  -11.4780 C.ar    1  UNL1       -0.0028
     15 C         -24.1445   -8.7311  -12.1936 C.ar    1  UNL1       -0.0061
     16 C         -24.0577   -8.1222  -13.4554 C.ar    1  UNL1       -0.0028
     17 C         -25.1656   -7.4741  -14.0081 C.ar    1  UNL1        0.0042
     18 C         -22.9428   -9.4269  -11.5954 C.3     1  UNL1        0.0992
     19 N         -21.8377   -8.5021  -11.2512 N.3     1  UNL1       -0.2677
     20 C         -20.4978   -9.1289  -11.1961 C.3     1  UNL1        0.0899
     21 C         -20.0357   -9.4262   -9.7682 C.3     1  UNL1        0.0897
     22 N         -20.1437   -8.2162   -8.9427 N.3     1  UNL1       -0.2692
     23 C         -19.5839   -8.4677   -7.6058 C.3     1  UNL1        0.0897
     24 C         -21.5582   -7.8272   -8.8306 C.3     1  UNL1        0.0883
     25 C         -22.1556   -7.4806  -10.2156 C.3     1  UNL1        0.0737
     26 C         -21.8084   -6.0461  -10.7340 C.3     1  UNL1        0.0160
     27 C         -23.0040   -5.4065  -11.4611 C.3     1  UNL1        0.0014
     28 C         -21.2897   -5.0784   -9.6565 C.3     1  UNL1        0.0014
     29 N         -25.8473   -4.1956  -18.3754 N.pl3   1  UNL1       -0.2827
     30 H         -25.4978   -3.3475  -18.8754 H       1  UNL1        0.1551
     31 C         -25.3540   -5.4775  -18.7932 C.ar    1  UNL1        0.2207
     32 N         -25.7381   -5.9950  -19.9891 N.ar    1  UNL1       -0.2120
     33 C         -25.2948   -7.2125  -20.3960 C.ar    1  UNL1        0.1034
     34 C         -24.4334   -7.9524  -19.5843 C.ar    1  UNL1        0.0400
     35 C         -24.0403   -7.4124  -18.3490 C.ar    1  UNL1        0.0872
     36 N         -24.5252   -6.1946  -17.9871 N.ar    1  UNL1       -0.2135
     37 C         -23.1287   -8.1317  -17.4196 C.ar    1  UNL1        0.0370
     38 C         -22.1246   -7.4259  -16.7320 C.ar    1  UNL1        0.0046
     39 C         -21.2628   -8.0938  -15.8611 C.ar    1  UNL1        0.0207
     40 C         -21.3990   -9.4702  -15.6874 C.ar    1  UNL1        0.0989
     41 N         -22.3567  -10.1498  -16.3701 N.ar    1  UNL1       -0.2423
     42 C         -23.2128   -9.5234  -17.2214 C.ar    1  UNL1        0.1003
@<TRIPOS>BOND
     1     1     2    1
     2     2     3   ar
     3     3     4   ar
     4     4     5   ar
     5     5     8    1
     6     8     9   am
     7     9    10    2
     8     9    12    1
     9    12    13   ar
    10    13    14   ar
    11    14    15   ar
    12    15    18    1
    13    18    19    1
    14    19    20    1
    15    20    21    1
    16    21    22    1
    17    22    23    1
    18    22    24    1
    19    24    25    1
    20    25    26    1
    21    26    27    1
    22    26    28    1
    23    15    16   ar
    24    16    17   ar
    25     5     6   ar
    26     6     7   ar
    27     7    29    1
    28    29    31    1
    29    31    32   ar
    30    32    33   ar
    31    33    34   ar
    32    34    35   ar
    33    35    37    1
    34    37    38   ar
    35    38    39   ar
    36    39    40   ar
    37    40    41   ar
    38    41    42   ar
    39    35    36   ar
    40     7     2   ar
    41    36    31   ar
    42    17    12   ar
    43    42    37   ar
    44    25    19    1
    45     8    11    1
    46    29    30    1
@<TRIPOS>MOLECULE
*****
 42 46 0 0 0
SMALL
GASTEIGER

@<TRIPOS>ATOM
      1 C         -28.2699   -2.8197  -19.5066 C.3     1  UNL1        0.0323
      2 C         -27.9148   -3.2808  -18.1196 C.ar    1  UNL1       -0.0083
      3 C         -28.8062   -3.0440  -17.0581 C.ar    1  UNL1       -0.0018
      4 C         -28.5139   -3.4992  -15.7698 C.ar    1  UNL1        0.0144
      5 C         -27.3079   -4.1629  -15.5160 C.ar    1  UNL1        0.0518
      6 C         -26.3959   -4.3581  -16.5561 C.ar    1  UNL1        0.0290
      7 C         -26.7050   -3.9667  -17.8690 C.ar    1  UNL1        0.0477
      8 N         -27.0072   -4.6833  -14.2172 N.am    1  UNL1       -0.2803
      9 C         -26.6068   -6.0510  -14.0650 C.2     1  UNL1        0.2495
     10 O         -27.3483   -6.9682  -14.5110 O.2     1  UNL1       -0.2698
     11 H         -26.6958   -4.0010  -13.4896 H       1  UNL1        0.1552
     12 C         -25.3174   -6.3944  -13.4168 C.ar    1  UNL1        0.0537
     13 C         -24.8674   -5.6842  -12.2890 C.ar    1  UNL1        0.0042
     14 C         -23.6373   -5.9886  -11.7022 C.ar    1  UNL1       -0.0028
     15 C         -22.8326   -7.0116  -12.2256 C.ar    1  UNL1       -0.0061
     16 C         -23.2647   -7.7010  -13.3696 C.ar    1  UNL1       -0.0028
     17 C         -24.4964   -7.3991  -13.9568 C.ar    1  UNL1        0.0042
     18 C         -21.4972   -7.3363  -11.5954 C.3     1  UNL1        0.0992
     19 N         -21.5358   -8.5267  -10.7141 N.3     1  UNL1       -0.2677
     20 C         -21.8331   -8.2378   -9.2931 C.3     1  UNL1        0.0899
     21 C         -20.5837   -8.2355   -8.4099 C.3     1  UNL1        0.0897
     22 N         -19.8297   -9.4811   -8.6025 N.3     1  UNL1       -0.2692
     23 C         -18.6979   -9.5343   -7.6644 C.3     1  UNL1        0.0897
     24 C         -19.3381   -9.5441   -9.9878 C.3     1  UNL1        0.0883
     25 C         -20.5103   -9.5681  -10.9980 C.3     1  UNL1        0.0737
     26 C         -21.1845  -10.9680  -11.1800 C.3     1  UNL1        0.0160
     27 C         -22.0377  -11.0190  -12.4593 C.3     1  UNL1        0.0014
     28 C         -20.2115  -12.1595  -11.1681 C.3     1  UNL1        0.0014
     29 N         -25.8018   -4.2890  -18.9424 N.pl3   1  UNL1       -0.2827
     30 H         -25.5405   -3.5462  -19.6288 H       1  UNL1        0.1551
     31 C         -25.3346   -5.6252  -19.1821 C.ar    1  UNL1        0.2207
     32 N         -25.7831   -6.3169  -20.2618 N.ar    1  UNL1       -0.2120
     33 C         -25.3650   -7.5873  -20.4982 C.ar    1  UNL1        0.1034
     34 C         -24.4634   -8.2021  -19.6280 C.ar    1  UNL1        0.0400
     35 C         -24.0037   -7.4822  -18.5133 C.ar    1  UNL1        0.0872
     36 N         -24.4657   -6.2181  -18.3192 N.ar    1  UNL1       -0.2135
     37 C         -23.0456   -8.0591  -17.5328 C.ar    1  UNL1        0.0370
     38 C         -23.1341   -9.4176  -17.1780 C.ar    1  UNL1        0.0046
     39 C         -22.2414   -9.9657  -16.2560 C.ar    1  UNL1        0.0207
     40 C         -21.2673   -9.1512  -15.6810 C.ar    1  UNL1        0.0989
     41 N         -21.2001   -7.8353  -16.0116 N.ar    1  UNL1       -0.2423
     42 C         -22.0542   -7.2761  -16.9103 C.ar    1  UNL1        0.1003
@<TRIPOS>BOND
     1     1     2    1
     2     2     3   ar
     3     3     4   ar
     4     4     5   ar
     5     5     8    1
     6     8     9   am
     7     9    10    2
     8     9    12    1
     9    12    13   ar
    10    13    14   ar
    11    14    15   ar
    12    15    18    1
    13    18    19    1
    14    19    20    1
    15    20    21    1
    16    21    22    1
    17    22    23    1
    18    22    24    1
    19    24    25    1
    20    25    26    1
    21    26    27    1
    22    26    28    1
    23    15    16   ar
    24    16    17   ar
    25     5     6   ar
    26     6     7   ar
    27     7    29    1
    28    29    31    1
    29    31    32   ar
    30    32    33   ar
    31    33    34   ar
    32    34    35   ar
    33    35    37    1
    34    37    38   ar
    35    38    39   ar
    36    39    40   ar
    37    40    41   ar
    38    41    42   ar
    39    35    36   ar
    40     7     2   ar
    41    36    31   ar
    42    17    12   ar
    43    42    37   ar
    44    25    19    1
    45     8    11    1
    46    29    30    1
@<TRIPOS>MOLECULE
*****
 42 46 0 0 0
SMALL
GASTEIGER

@<TRIPOS>ATOM
      1 C         -27.9925   -2.9445  -19.1346 C.3     1  UNL1        0.0323
      2 C         -27.8466   -3.5337  -17.7583 C.ar    1  UNL1       -0.0083
      3 C         -28.9109   -3.4381  -16.8442 C.ar    1  UNL1       -0.0018
      4 C         -28.8110   -4.0133  -15.5747 C.ar    1  UNL1        0.0144
      5 C         -27.6308   -4.6579  -15.1864 C.ar    1  UNL1        0.0518
      6 C         -26.5518   -4.7137  -16.0721 C.ar    1  UNL1        0.0290
      7 C         -26.6610   -4.1999  -17.3747 C.ar    1  UNL1        0.0477
      8 N         -27.5210   -5.2987  -13.9115 N.am    1  UNL1       -0.2803
      9 C         -27.6119   -6.7257  -13.8131 C.2     1  UNL1        0.2495
     10 O         -28.6241   -7.3167  -14.2779 O.2     1  UNL1       -0.2698
     11 H         -26.9921   -4.7920  -13.1662 H       1  UNL1        0.1552
     12 C         -26.5152   -7.5133  -13.1988 C.ar    1  UNL1        0.0537
     13 C         -25.3315   -7.7764  -13.9119 C.ar    1  UNL1        0.0042
     14 C         -24.3153   -8.5465  -13.3424 C.ar    1  UNL1       -0.0028
     15 C         -24.4570   -9.0664  -12.0471 C.ar    1  UNL1       -0.0061
     16 C         -25.6498   -8.8317  -11.3452 C.ar    1  UNL1       -0.0028
     17 C         -26.6669   -8.0594  -11.9129 C.ar    1  UNL1        0.0042
     18 C         -23.3604   -9.9068  -11.4330 C.3     1  UNL1        0.0992
     19 N         -22.3403   -9.1091  -10.7131 N.3     1  UNL1       -0.2677
     20 C         -22.8864   -8.0499   -9.8349 C.3     1  UNL1        0.0899
     21 C         -22.8179   -6.6573  -10.4651 C.3     1  UNL1        0.0897
     22 N         -21.4509   -6.3806  -10.9254 N.3     1  UNL1       -0.2692
     23 C         -21.3559   -4.9974  -11.4170 C.3     1  UNL1        0.0897
     24 C         -21.0985   -7.3217  -12.0000 C.3     1  UNL1        0.0883
     25 C         -21.1139   -8.7836  -11.4922 C.3     1  UNL1        0.0737
     26 C         -19.8325   -9.2128  -10.7043 C.3     1  UNL1        0.0160
     27 C         -19.7461   -8.5030   -9.3420 C.3     1  UNL1        0.0014
     28 C         -19.6784  -10.7297  -10.4996 C.3     1  UNL1        0.0014
     29 N         -25.5788   -4.3788  -18.3067 N.pl3   1  UNL1       -0.2827
     30 H         -25.1600   -3.5405  -18.7683 H       1  UNL1        0.1551
     31 C         -25.1257   -5.6761  -18.7225 C.ar    1  UNL1        0.2207
     32 N         -25.5029   -6.1713  -19.9299 N.ar    1  UNL1       -0.2120
     33 C         -25.0974   -7.4024  -20.3355 C.ar    1  UNL1        0.1034
     34 C         -24.2830   -8.1796  -19.5104 C.ar    1  UNL1        0.0400
     35 C         -23.8968   -7.6626  -18.2632 C.ar    1  UNL1        0.0872
     36 N         -24.3427   -6.4293  -17.9035 N.ar    1  UNL1       -0.2135
     37 C         -23.0338   -8.4218  -17.3192 C.ar    1  UNL1        0.0370
     38 C         -22.0525   -7.7504  -16.5673 C.ar    1  UNL1        0.0046
     39 C         -21.2363   -8.4558  -15.6823 C.ar    1  UNL1        0.0207
     40 C         -21.3949   -9.8352  -15.5584 C.ar    1  UNL1        0.0989
     41 N         -22.3298  -10.4812  -16.3026 N.ar    1  UNL1       -0.2423
     42 C         -23.1416   -9.8180  -17.1692 C.ar    1  UNL1        0.1003
@<TRIPOS>BOND
     1     1     2    1
     2     2     3   ar
     3     3     4   ar
     4     4     5   ar
     5     5     8    1
     6     8     9   am
     7     9    10    2
     8     9    12    1
     9    12    13   ar
    10    13    14   ar
    11    14    15   ar
    12    15    18    1
    13    18    19    1
    14    19    20    1
    15    20    21    1
    16    21    22    1
    17    22    23    1
    18    22    24    1
    19    24    25    1
    20    25    26    1
    21    26    27    1
    22    26    28    1
    23    15    16   ar
    24    16    17   ar
    25     5     6   ar
    26     6     7   ar
    27     7    29    1
    28    29    31    1
    29    31    32   ar
    30    32    33   ar
    31    33    34   ar
    32    34    35   ar
    33    35    37    1
    34    37    38   ar
    35    38    39   ar
    36    39    40   ar
    37    40    41   ar
    38    41    42   ar
    39    35    36   ar
    40     7     2   ar
    41    36    31   ar
    42    17    12   ar
    43    42    37   ar
    44    25    19    1
    45     8    11    1
    46    29    30    1
@<TRIPOS>MOLECULE
*****
 42 46 0 0 0
SMALL
GASTEIGER

@<TRIPOS>ATOM
      1 C         -27.5158   -2.6720  -20.1321 C.3     1  UNL1        0.0323
      2 C         -27.9269   -3.1104  -18.7532 C.ar    1  UNL1       -0.0083
      3 C         -29.2463   -2.8924  -18.3182 C.ar    1  UNL1       -0.0018
      4 C         -29.6596   -3.3276  -17.0564 C.ar    1  UNL1        0.0144
      5 C         -28.7491   -3.9517  -16.1956 C.ar    1  UNL1        0.0518
      6 C         -27.4243   -4.1273  -16.6025 C.ar    1  UNL1        0.0290
      7 C         -27.0111   -3.7566  -17.8926 C.ar    1  UNL1        0.0477
      8 N         -29.1593   -4.4517  -14.9189 N.am    1  UNL1       -0.2803
      9 C         -29.1390   -5.8608  -14.6576 C.2     1  UNL1        0.2495
     10 O         -29.7684   -6.6427  -15.4207 O.2     1  UNL1       -0.2698
     11 H         -29.0763   -3.8040  -14.1031 H       1  UNL1        0.1552
     12 C         -28.3613   -6.4082  -13.5191 C.ar    1  UNL1        0.0537
     13 C         -27.3537   -5.6443  -12.9026 C.ar    1  UNL1        0.0042
     14 C         -26.6013   -6.1758  -11.8530 C.ar    1  UNL1       -0.0028
     15 C         -26.8420   -7.4792  -11.3933 C.ar    1  UNL1       -0.0061
     16 C         -27.8255   -8.2548  -12.0271 C.ar    1  UNL1       -0.0028
     17 C         -28.5808   -7.7237  -13.0762 C.ar    1  UNL1        0.0042
     18 C         -26.0225   -8.0578  -10.2622 C.3     1  UNL1        0.0992
     19 N         -24.8173   -8.7870  -10.7213 N.3     1  UNL1       -0.2677
     20 C         -24.3607   -9.8648   -9.8150 C.3     1  UNL1        0.0899
     21 C         -23.1740   -9.4494   -8.9432 C.3     1  UNL1        0.0897
     22 N         -22.0993   -8.9049   -9.7833 N.3     1  UNL1       -0.2692
     23 C         -20.9127   -8.6216   -8.9614 C.3     1  UNL1        0.0897
     24 C         -22.5669   -7.6708  -10.4337 C.3     1  UNL1        0.0883
     25 C         -23.7690   -7.9502  -11.3676 C.3     1  UNL1        0.0737
     26 C         -23.3845   -8.5347  -12.7667 C.3     1  UNL1        0.0160
     27 C         -23.7748  -10.0184  -12.8826 C.3     1  UNL1        0.0014
     28 C         -23.9554   -7.7619  -13.9681 C.3     1  UNL1        0.0014
     29 N         -25.6736   -4.0598  -18.3296 N.pl3   1  UNL1       -0.2827
     30 H         -24.9820   -3.2833  -18.4299 H       1  UNL1        0.1551
     31 C         -25.2793   -5.3745  -18.7505 C.ar    1  UNL1        0.2207
     32 N         -25.8122   -5.9140  -19.8777 N.ar    1  UNL1       -0.2120
     33 C         -25.4637   -7.1619  -20.2848 C.ar    1  UNL1        0.1034
     34 C         -24.5478   -7.9109  -19.5442 C.ar    1  UNL1        0.0400
     35 C         -24.0008   -7.3482  -18.3798 C.ar    1  UNL1        0.0872
     36 N         -24.3954   -6.0997  -18.0129 N.ar    1  UNL1       -0.2135
     37 C         -23.0213   -8.0749  -17.5286 C.ar    1  UNL1        0.0370
     38 C         -23.1746   -9.4546  -17.3003 C.ar    1  UNL1        0.0046
     39 C         -22.2621  -10.1432  -16.5000 C.ar    1  UNL1        0.0207
     40 C         -21.2026   -9.4482  -15.9190 C.ar    1  UNL1        0.0989
     41 N         -21.0717   -8.1120  -16.1258 N.ar    1  UNL1       -0.2423
     42 C         -21.9436   -7.4170  -16.9048 C.ar    1  UNL1        0.1003
@<TRIPOS>BOND
     1     1     2    1
     2     2     3   ar
     3     3     4   ar
     4     4     5   ar
     5     5     8    1
     6     8     9   am
     7     9    10    2
     8     9    12    1
     9    12    13   ar
    10    13    14   ar
    11    14    15   ar
    12    15    18    1
    13    18    19    1
    14    19    20    1
    15    20    21    1
    16    21    22    1
    17    22    23    1
    18    22    24    1
    19    24    25    1
    20    25    26    1
    21    26    27    1
    22    26    28    1
    23    15    16   ar
    24    16    17   ar
    25     5     6   ar
    26     6     7   ar
    27     7    29    1
    28    29    31    1
    29    31    32   ar
    30    32    33   ar
    31    33    34   ar
    32    34    35   ar
    33    35    37    1
    34    37    38   ar
    35    38    39   ar
    36    39    40   ar
    37    40    41   ar
    38    41    42   ar
    39    35    36   ar
    40     7     2   ar
    41    36    31   ar
    42    17    12   ar
    43    42    37   ar
    44    25    19    1
    45     8    11    1
    46    29    30    1
