@<TRIPOS>MOLECULE
*****
 30 32 0 0 0
SMALL
GASTEIGER

@<TRIPOS>ATOM
      1 O          46.2070   15.8431  -25.5038 O.3     1  UNL1       -0.4750
      2 C          46.4142   14.8210  -24.5645 C.ar    1  UNL1        0.1385
      3 C          47.4368   14.9878  -23.6239 C.ar    1  UNL1        0.0366
      4 C          47.7055   13.9922  -22.6815 C.ar    1  UNL1       -0.0011
      5 C          46.9432   12.8143  -22.6594 C.ar    1  UNL1       -0.0206
      6 C          45.9106   12.6476  -23.5951 C.ar    1  UNL1       -0.0011
      7 C          45.6418   13.6447  -24.5375 C.ar    1  UNL1        0.0366
      8 C          47.2514   11.7212  -21.6682 C.3     1  UNL1        0.0468
      9 C          48.7620   11.4516  -21.5795 C.3     1  UNL1        0.1369
     10 S          49.3242   11.4405  -19.8222 S.3     1  UNL1       -0.0482
     11 C          49.8030    9.7282  -19.9757 C.2     1  UNL1        0.2792
     12 O          50.2446    9.0603  -19.0049 O.2     1  UNL1       -0.2625
     13 N          49.6463    9.1640  -21.2603 N.am    1  UNL1       -0.2460
     14 C          49.0949   10.1083  -22.1575 C.2     1  UNL1        0.2392
     15 O          48.9103    9.8303  -23.3722 O.2     1  UNL1       -0.2737
     16 H          49.9046    8.1844  -21.5139 H       1  UNL1        0.1583
     17 C          46.6938   15.8498  -26.8481 C.3     1  UNL1        0.2117
     18 C          45.5950   15.4733  -27.8517 C.3     1  UNL1        0.0931
     19 C          46.3242   11.7250  -29.8178 C.ar    1  UNL1        0.0019
     20 C          46.5790   11.8583  -28.4420 C.ar    1  UNL1       -0.0014
     21 C          46.3608   13.0705  -27.7916 C.ar    1  UNL1        0.0145
     22 C          45.8924   14.1631  -28.5227 C.ar    1  UNL1        0.0629
     23 N          45.6230   14.0175  -29.8464 N.ar    1  UNL1       -0.2433
     24 CA         45.8049   12.8477  -30.5192 C.ar    1  UNL1        0.1521
     25 C          45.4352   12.8355  -31.9529 C.2     1  UNL1        0.3556
     26 O          46.2944   13.1696  -32.8124 O.2     1  UNL1       -0.2434
     27 OXT        44.1470   12.5226  -32.3737 O.3     1  UNL1       -0.4761
     28 HXT        43.9017   12.5390  -33.3564 H       1  UNL1        0.2955
     29 C          47.4717    9.5144  -29.5537 C.3     1  UNL1        0.0051
     30 C          46.6198   10.3923  -30.4671 C.3     1  UNL1        0.0281
@<TRIPOS>BOND
     1    29    30    1
     2    30    19    1
     3    19    20   ar
     4    20    21   ar
     5    21    22   ar
     6    22    18    1
     7    18    17    1
     8    17     1    1
     9     1     2    1
    10     2     3   ar
    11     3     4   ar
    12     4     5   ar
    13     5     8    1
    14     8     9    1
    15     9    10    1
    16    10    11    1
    17    11    12    2
    18    11    13   am
    19    13    14   am
    20    14    15    2
    21     5     6   ar
    22     6     7   ar
    23    22    23   ar
    24    23    24   ar
    25    24    25    1
    26    25    26    2
    27    25    27    1
    28    24    19   ar
    29     7     2   ar
    30    14     9    1
    31    13    16    1
    32    27    28    1
@<TRIPOS>MOLECULE
*****
 30 32 0 0 0
SMALL
GASTEIGER

@<TRIPOS>ATOM
      1 O          46.1855   15.9298  -25.5569 O.3     1  UNL1       -0.4750
      2 C          46.8149   15.2459  -24.5051 C.ar    1  UNL1        0.1385
      3 C          47.7977   15.9225  -23.7739 C.ar    1  UNL1        0.0366
      4 C          48.4757   15.2834  -22.7330 C.ar    1  UNL1       -0.0011
      5 C          48.1703   13.9550  -22.3998 C.ar    1  UNL1       -0.0206
      6 C          47.1787   13.2763  -23.1248 C.ar    1  UNL1       -0.0011
      7 C          46.5000   13.9168  -24.1658 C.ar    1  UNL1        0.0366
      8 C          48.9232   13.2486  -21.3014 C.3     1  UNL1        0.0468
      9 C          48.3432   11.8513  -21.0301 C.3     1  UNL1        0.1369
     10 S          49.6078   10.5444  -21.3414 S.3     1  UNL1       -0.0482
     11 C          49.5490   10.0641  -19.6237 C.2     1  UNL1        0.2792
     12 O          50.3015    9.1770  -19.1438 O.2     1  UNL1       -0.2625
     13 N          48.6054   10.7520  -18.8302 N.am    1  UNL1       -0.2460
     14 C          47.9200   11.7230  -19.5970 C.2     1  UNL1        0.2392
     15 O          47.0003   12.4246  -19.0981 O.2     1  UNL1       -0.2737
     16 H          48.4351   10.5673  -17.8165 H       1  UNL1        0.1583
     17 C          46.6641   16.0111  -26.9016 C.3     1  UNL1        0.2117
     18 C          45.5819   15.6119  -27.9145 C.3     1  UNL1        0.0931
     19 C          46.3077   11.7895  -29.7336 C.ar    1  UNL1        0.0019
     20 C          46.5491   11.9719  -28.3610 C.ar    1  UNL1       -0.0014
     21 C          46.3319   13.2085  -27.7580 C.ar    1  UNL1        0.0145
     22 C          45.8779   14.2762  -28.5337 C.ar    1  UNL1        0.0629
     23 N          45.6212   14.0835  -29.8539 N.ar    1  UNL1       -0.2433
     24 CA         45.8026   12.8886  -30.4812 C.ar    1  UNL1        0.1521
     25 C          45.4476   12.8258  -31.9173 C.2     1  UNL1        0.3556
     26 O          46.3348   13.0616  -32.7810 O.2     1  UNL1       -0.2434
     27 OXT        44.1469   12.5720  -32.3390 O.3     1  UNL1       -0.4761
     28 HXT        43.9131   12.5531  -33.3245 H       1  UNL1        0.2955
     29 C          47.4432    9.5855  -29.3786 C.3     1  UNL1        0.0051
     30 C          46.6015   10.4321  -30.3303 C.3     1  UNL1        0.0281
@<TRIPOS>BOND
     1    29    30    1
     2    30    19    1
     3    19    20   ar
     4    20    21   ar
     5    21    22   ar
     6    22    18    1
     7    18    17    1
     8    17     1    1
     9     1     2    1
    10     2     3   ar
    11     3     4   ar
    12     4     5   ar
    13     5     8    1
    14     8     9    1
    15     9    10    1
    16    10    11    1
    17    11    12    2
    18    11    13   am
    19    13    14   am
    20    14    15    2
    21     5     6   ar
    22     6     7   ar
    23    22    23   ar
    24    23    24   ar
    25    24    25    1
    26    25    26    2
    27    25    27    1
    28    24    19   ar
    29     7     2   ar
    30    14     9    1
    31    13    16    1
    32    27    28    1
@<TRIPOS>MOLECULE
*****
 30 32 0 0 0
SMALL
GASTEIGER

@<TRIPOS>ATOM
      1 O          45.8676   12.8644  -27.2575 O.3     1  UNL1       -0.4750
      2 C          46.1935   12.5450  -25.9302 C.ar    1  UNL1        0.1385
      3 C          45.2007   12.6905  -24.9547 C.ar    1  UNL1        0.0366
      4 C          45.4754   12.4123  -23.6135 C.ar    1  UNL1       -0.0011
      5 C          46.7509   11.9712  -23.2290 C.ar    1  UNL1       -0.0206
      6 C          47.7462   11.8151  -24.2060 C.ar    1  UNL1       -0.0011
      7 C          47.4704   12.0930  -25.5481 C.ar    1  UNL1        0.0366
      8 C          47.0636   11.7037  -21.7789 C.3     1  UNL1        0.0468
      9 C          48.5113   11.2212  -21.5952 C.3     1  UNL1        0.1369
     10 S          49.3338   12.1255  -20.2133 S.3     1  UNL1       -0.0482
     11 C          49.5189   10.5976  -19.3101 C.2     1  UNL1        0.2792
     12 O          50.0014   10.5532  -18.1487 O.2     1  UNL1       -0.2625
     13 N          49.0796    9.4356  -19.9809 N.am    1  UNL1       -0.2460
     14 C          48.5431    9.7624  -21.2482 C.2     1  UNL1        0.2392
     15 O          48.1306    8.8707  -22.0367 O.2     1  UNL1       -0.2737
     16 H          49.1443    8.4673  -19.5952 H       1  UNL1        0.1583
     17 C          46.4210   13.9438  -28.0142 C.3     1  UNL1        0.2117
     18 C          46.2504   15.2884  -27.2936 C.3     1  UNL1        0.0931
     19 C          50.0319   17.2278  -26.6723 C.ar    1  UNL1        0.0019
     20 C          49.9427   15.8263  -26.6136 C.ar    1  UNL1       -0.0014
     21 C          48.7218   15.1821  -26.7994 C.ar    1  UNL1        0.0145
     22 C          47.5769   15.9440  -27.0371 C.ar    1  UNL1        0.0629
     23 N          47.6774   17.2964  -27.1192 N.ar    1  UNL1       -0.2433
     24 CA         48.8520   17.9670  -26.9614 C.ar    1  UNL1        0.1521
     25 C          48.8078   19.4393  -27.1118 C.2     1  UNL1        0.3556
     26 O          48.1825   20.1260  -26.2596 O.2     1  UNL1       -0.2434
     27 OXT        49.3873   20.0812  -28.2009 O.3     1  UNL1       -0.4761
     28 HXT        49.3312   21.0875  -28.3029 H       1  UNL1        0.2955
     29 C          51.6431   18.0239  -24.9277 C.3     1  UNL1        0.0051
     30 C          51.3808   17.8628  -26.4231 C.3     1  UNL1        0.0281
@<TRIPOS>BOND
     1    29    30    1
     2    30    19    1
     3    19    20   ar
     4    20    21   ar
     5    21    22   ar
     6    22    18    1
     7    18    17    1
     8    17     1    1
     9     1     2    1
    10     2     3   ar
    11     3     4   ar
    12     4     5   ar
    13     5     8    1
    14     8     9    1
    15     9    10    1
    16    10    11    1
    17    11    12    2
    18    11    13   am
    19    13    14   am
    20    14    15    2
    21     5     6   ar
    22     6     7   ar
    23    22    23   ar
    24    23    24   ar
    25    24    25    1
    26    25    26    2
    27    25    27    1
    28    24    19   ar
    29     7     2   ar
    30    14     9    1
    31    13    16    1
    32    27    28    1
@<TRIPOS>MOLECULE
*****
 30 32 0 0 0
SMALL
GASTEIGER

@<TRIPOS>ATOM
      1 O          45.3443   15.1362  -25.5105 O.3     1  UNL1       -0.4750
      2 C          46.3646   15.0393  -24.5515 C.ar    1  UNL1        0.1385
      3 C          46.8845   16.2249  -24.0202 C.ar    1  UNL1        0.0366
      4 C          47.9188   16.1903  -23.0818 C.ar    1  UNL1       -0.0011
      5 C          48.4425   14.9618  -22.6508 C.ar    1  UNL1       -0.0206
      6 C          47.9171   13.7704  -23.1743 C.ar    1  UNL1       -0.0011
      7 C          46.8816   13.8059  -24.1129 C.ar    1  UNL1        0.0366
      8 C          49.5824   14.9189  -21.6655 C.3     1  UNL1        0.0468
      9 C          50.3630   13.5985  -21.7651 C.3     1  UNL1        0.1369
     10 S          51.5072   13.6206  -23.2122 S.3     1  UNL1       -0.0482
     11 C          52.9099   13.4802  -22.1181 C.2     1  UNL1        0.2792
     12 O          54.0972   13.5066  -22.5345 O.2     1  UNL1       -0.2625
     13 N          52.6026   13.3454  -20.7468 N.am    1  UNL1       -0.2460
     14 C          51.2038   13.3870  -20.5412 C.2     1  UNL1        0.2392
     15 O          50.7037   13.2409  -19.3943 O.2     1  UNL1       -0.2737
     16 H          53.3110   13.2285  -19.9884 H       1  UNL1        0.1583
     17 C          45.5090   15.5799  -26.8595 C.3     1  UNL1        0.2117
     18 C          46.7647   14.9783  -27.5059 C.3     1  UNL1        0.0931
     19 C          50.2757   17.2681  -26.5696 C.ar    1  UNL1        0.0019
     20 C          50.3178   15.8641  -26.5184 C.ar    1  UNL1       -0.0014
     21 C          49.1848   15.1067  -26.8058 C.ar    1  UNL1        0.0145
     22 C          47.9954   15.7566  -27.1390 C.ar    1  UNL1        0.0629
     23 N          47.9712   17.1130  -27.2126 N.ar    1  UNL1       -0.2433
     24 CA         49.0582   17.8924  -26.9569 C.ar    1  UNL1        0.1521
     25 C          48.8846   19.3547  -27.1108 C.2     1  UNL1        0.3556
     26 O          48.2154   19.9884  -26.2509 O.2     1  UNL1       -0.2434
     27 OXT        49.3897   20.0398  -28.2107 O.3     1  UNL1       -0.4761
     28 HXT        49.2452   21.0370  -28.3146 H       1  UNL1        0.2955
     29 C          51.7016   18.1167  -24.6935 C.3     1  UNL1        0.0051
     30 C          51.5313   18.0281  -26.2081 C.3     1  UNL1        0.0281
@<TRIPOS>BOND
     1    29    30    1
     2    30    19    1
     3    19    20   ar
     4    20    21   ar
     5    21    22   ar
     6    22    18    1
     7    18    17    1
     8    17     1    1
     9     1     2    1
    10     2     3   ar
    11     3     4   ar
    12     4     5   ar
    13     5     8    1
    14     8     9    1
    15     9    10    1
    16    10    11    1
    17    11    12    2
    18    11    13   am
    19    13    14   am
    20    14    15    2
    21     5     6   ar
    22     6     7   ar
    23    22    23   ar
    24    23    24   ar
    25    24    25    1
    26    25    26    2
    27    25    27    1
    28    24    19   ar
    29     7     2   ar
    30    14     9    1
    31    13    16    1
    32    27    28    1
@<TRIPOS>MOLECULE
*****
 30 32 0 0 0
SMALL
GASTEIGER

@<TRIPOS>ATOM
      1 O          47.1518   11.4679  -24.5483 O.3     1  UNL1       -0.4750
      2 C          47.6082   11.2822  -23.2342 C.ar    1  UNL1        0.1385
      3 C          47.0507   12.0750  -22.2247 C.ar    1  UNL1        0.0366
      4 C          47.4847   11.9520  -20.9025 C.ar    1  UNL1       -0.0011
      5 C          48.4799   11.0209  -20.5680 C.ar    1  UNL1       -0.0206
      6 C          49.0346   10.2175  -21.5762 C.ar    1  UNL1       -0.0011
      7 C          48.5993   10.3407  -22.8990 C.ar    1  UNL1        0.0366
      8 C          48.9776   10.9086  -19.1496 C.3     1  UNL1        0.0468
      9 C          49.6072   12.2255  -18.6682 C.3     1  UNL1        0.1369
     10 S          49.4177   12.4142  -16.8427 S.3     1  UNL1       -0.0482
     11 C          51.1910   12.3837  -16.6452 C.2     1  UNL1        0.2792
     12 O          51.7461   12.4143  -15.5162 O.2     1  UNL1       -0.2625
     13 N          51.9368   12.3140  -17.8420 N.am    1  UNL1       -0.2460
     14 C          51.0775   12.2485  -18.9636 C.2     1  UNL1        0.2392
     15 O          51.5315   12.2243  -20.1385 O.2     1  UNL1       -0.2737
     16 H          52.9799   12.3135  -17.8923 H       1  UNL1        0.1583
     17 C          46.0362   12.2733  -24.9363 C.3     1  UNL1        0.2117
     18 C          46.4661   13.4484  -25.8255 C.3     1  UNL1        0.0931
     19 C          46.1140   12.4665  -29.9919 C.ar    1  UNL1        0.0019
     20 C          45.8418   13.7735  -29.5524 C.ar    1  UNL1       -0.0014
     21 C          45.9380   14.1055  -28.2031 C.ar    1  UNL1        0.0145
     22 C          46.3007   13.1217  -27.2819 C.ar    1  UNL1        0.0629
     23 N          46.5884   11.8680  -27.7193 N.ar    1  UNL1       -0.2433
     24 CA         46.5243   11.5033  -29.0296 C.ar    1  UNL1        0.1521
     25 C          46.8993   10.1084  -29.3554 C.2     1  UNL1        0.3556
     26 O          47.9304    9.6099  -28.8289 O.2     1  UNL1       -0.2434
     27 OXT        46.1782    9.3521  -30.2730 O.3     1  UNL1       -0.4761
     28 HXT        46.4583    8.4061  -30.5030 H       1  UNL1        0.2955
     29 C          45.7309   13.4478  -32.2642 C.3     1  UNL1        0.0051
     30 C          45.9525   12.1663  -31.4645 C.3     1  UNL1        0.0281
@<TRIPOS>BOND
     1    29    30    1
     2    30    19    1
     3    19    20   ar
     4    20    21   ar
     5    21    22   ar
     6    22    18    1
     7    18    17    1
     8    17     1    1
     9     1     2    1
    10     2     3   ar
    11     3     4   ar
    12     4     5   ar
    13     5     8    1
    14     8     9    1
    15     9    10    1
    16    10    11    1
    17    11    12    2
    18    11    13   am
    19    13    14   am
    20    14    15    2
    21     5     6   ar
    22     6     7   ar
    23    22    23   ar
    24    23    24   ar
    25    24    25    1
    26    25    26    2
    27    25    27    1
    28    24    19   ar
    29     7     2   ar
    30    14     9    1
    31    13    16    1
    32    27    28    1
@<TRIPOS>MOLECULE
*****
 30 32 0 0 0
SMALL
GASTEIGER

@<TRIPOS>ATOM
      1 O          46.7818   15.5786  -25.4171 O.3     1  UNL1       -0.4750
      2 C          47.6769   14.8686  -24.6019 C.ar    1  UNL1        0.1385
      3 C          47.7171   15.1819  -23.2386 C.ar    1  UNL1        0.0366
      4 C          48.6066   14.5260  -22.3841 C.ar    1  UNL1       -0.0011
      5 C          49.4650   13.5338  -22.8822 C.ar    1  UNL1       -0.0206
      6 C          49.4207   13.2103  -24.2471 C.ar    1  UNL1       -0.0011
      7 C          48.5298   13.8666  -25.1014 C.ar    1  UNL1        0.0366
      8 C          50.4517   12.8478  -21.9723 C.3     1  UNL1        0.0468
      9 C          50.7098   13.6704  -20.6997 C.3     1  UNL1        0.1369
     10 S          50.2382   12.7144  -19.1939 S.3     1  UNL1       -0.0482
     11 C          51.9325   12.7407  -18.6342 C.2     1  UNL1        0.2792
     12 O          52.3093   12.1447  -17.5919 O.2     1  UNL1       -0.2625
     13 N          52.8308   13.4696  -19.4435 N.am    1  UNL1       -0.2460
     14 C          52.1663   14.0045  -20.5718 C.2     1  UNL1        0.2392
     15 O          52.7698   14.7288  -21.4073 O.2     1  UNL1       -0.2737
     16 H          53.8462   13.5982  -19.2361 H       1  UNL1        0.1583
     17 C          46.9462   15.8263  -26.8155 C.3     1  UNL1        0.2117
     18 C          45.7215   15.3702  -27.6208 C.3     1  UNL1        0.0931
     19 C          46.3488   11.6559  -29.6842 C.ar    1  UNL1        0.0019
     20 C          46.5651   11.7350  -28.2976 C.ar    1  UNL1       -0.0014
     21 C          46.3794   12.9350  -27.6152 C.ar    1  UNL1        0.0145
     22 C          45.9826   14.0696  -28.3245 C.ar    1  UNL1        0.0629
     23 N          45.7495   13.9772  -29.6598 N.ar    1  UNL1       -0.2433
     24 CA         45.9015   12.8219  -30.3643 C.ar    1  UNL1        0.1521
     25 C          45.5776   12.8707  -31.8082 C.2     1  UNL1        0.3556
     26 O          44.4755   12.4070  -32.2072 O.2     1  UNL1       -0.2434
     27 OXT        46.4816   13.3603  -32.7448 O.3     1  UNL1       -0.4761
     28 HXT        46.2557   13.3681  -33.7323 H       1  UNL1        0.2955
     29 C          47.5473    9.4615  -29.5376 C.3     1  UNL1        0.0051
     30 C          46.6065   10.3322  -30.3670 C.3     1  UNL1        0.0281
@<TRIPOS>BOND
     1    29    30    1
     2    30    19    1
     3    19    20   ar
     4    20    21   ar
     5    21    22   ar
     6    22    18    1
     7    18    17    1
     8    17     1    1
     9     1     2    1
    10     2     3   ar
    11     3     4   ar
    12     4     5   ar
    13     5     8    1
    14     8     9    1
    15     9    10    1
    16    10    11    1
    17    11    12    2
    18    11    13   am
    19    13    14   am
    20    14    15    2
    21     5     6   ar
    22     6     7   ar
    23    22    23   ar
    24    23    24   ar
    25    24    25    1
    26    25    26    2
    27    25    27    1
    28    24    19   ar
    29     7     2   ar
    30    14     9    1
    31    13    16    1
    32    27    28    1
@<TRIPOS>MOLECULE
*****
 30 32 0 0 0
SMALL
GASTEIGER

@<TRIPOS>ATOM
      1 O          46.0345   14.0560  -24.8323 O.3     1  UNL1       -0.4750
      2 C          46.6381   13.1056  -23.9942 C.ar    1  UNL1        0.1385
      3 C          45.8923   12.6052  -22.9210 C.ar    1  UNL1        0.0366
      4 C          46.4504   11.6768  -22.0388 C.ar    1  UNL1       -0.0011
      5 C          47.7656   11.2248  -22.2257 C.ar    1  UNL1       -0.0206
      6 C          48.5133   11.7173  -23.3065 C.ar    1  UNL1       -0.0011
      7 C          47.9539   12.6458  -24.1893 C.ar    1  UNL1        0.0366
      8 C          48.3853   10.2504  -21.2569 C.3     1  UNL1        0.0468
      9 C          49.5903   10.8688  -20.5301 C.3     1  UNL1        0.1369
     10 S          49.2328   12.6084  -20.0303 S.3     1  UNL1       -0.0482
     11 C          49.3984   12.1593  -18.3112 C.2     1  UNL1        0.2792
     12 O          49.1903   12.9755  -17.3763 O.2     1  UNL1       -0.2625
     13 N          49.7717   10.8204  -18.0640 N.am    1  UNL1       -0.2460
     14 C          49.9018   10.1052  -19.2774 C.2     1  UNL1        0.2392
     15 O          50.2711    8.9009  -19.2937 O.2     1  UNL1       -0.2737
     16 H          49.9322   10.4144  -17.1153 H       1  UNL1        0.1583
     17 C          46.7070   14.8440  -25.8175 C.3     1  UNL1        0.2117
     18 C          45.8897   14.9529  -27.1123 C.3     1  UNL1        0.0931
     19 C          46.3892   11.5560  -29.6928 C.ar    1  UNL1        0.0019
     20 C          46.6372   11.4343  -28.3146 C.ar    1  UNL1       -0.0014
     21 C          46.4932   12.5292  -27.4657 C.ar    1  UNL1        0.0145
     22 C          46.1065   13.7600  -27.9983 C.ar    1  UNL1        0.0629
     23 N          45.8425   13.8616  -29.3272 N.ar    1  UNL1       -0.2433
     24 CA         45.9535   12.8147  -30.1908 C.ar    1  UNL1        0.1521
     25 C          45.5994   13.0731  -31.6051 C.2     1  UNL1        0.3556
     26 O          44.6460   12.4348  -32.1268 O.2     1  UNL1       -0.2434
     27 OXT        46.3285   13.9583  -32.3919 O.3     1  UNL1       -0.4761
     28 HXT        46.0888   14.1098  -33.3644 H       1  UNL1        0.2955
     29 C          47.5499    9.3455  -29.8909 C.3     1  UNL1        0.0051
     30 C          46.6025   10.3374  -30.5612 C.3     1  UNL1        0.0281
@<TRIPOS>BOND
     1    29    30    1
     2    30    19    1
     3    19    20   ar
     4    20    21   ar
     5    21    22   ar
     6    22    18    1
     7    18    17    1
     8    17     1    1
     9     1     2    1
    10     2     3   ar
    11     3     4   ar
    12     4     5   ar
    13     5     8    1
    14     8     9    1
    15     9    10    1
    16    10    11    1
    17    11    12    2
    18    11    13   am
    19    13    14   am
    20    14    15    2
    21     5     6   ar
    22     6     7   ar
    23    22    23   ar
    24    23    24   ar
    25    24    25    1
    26    25    26    2
    27    25    27    1
    28    24    19   ar
    29     7     2   ar
    30    14     9    1
    31    13    16    1
    32    27    28    1
@<TRIPOS>MOLECULE
*****
 30 32 0 0 0
SMALL
GASTEIGER

@<TRIPOS>ATOM
      1 O          51.5922   10.5832  -23.5946 O.3     1  UNL1       -0.4750
      2 C          51.2056   11.9117  -23.8305 C.ar    1  UNL1        0.1385
      3 C          50.9395   12.7268  -22.7245 C.ar    1  UNL1        0.0366
      4 C          50.5259   14.0497  -22.8992 C.ar    1  UNL1       -0.0011
      5 C          50.3830   14.5820  -24.1897 C.ar    1  UNL1       -0.0206
      6 C          50.6582   13.7703  -25.3010 C.ar    1  UNL1       -0.0011
      7 C          51.0727   12.4468  -25.1254 C.ar    1  UNL1        0.0366
      8 C          49.9028   15.9974  -24.3852 C.3     1  UNL1        0.0468
      9 C          50.4829   16.6165  -25.6669 C.3     1  UNL1        0.1369
     10 S          49.1647   16.8527  -26.9360 S.3     1  UNL1       -0.0482
     11 C          49.4161   18.6186  -26.8832 C.2     1  UNL1        0.2792
     12 O          48.7079   19.4222  -27.5437 O.2     1  UNL1       -0.2625
     13 N          50.4601   19.0610  -26.0420 N.am    1  UNL1       -0.2460
     14 C          51.0695   17.9674  -25.3837 C.2     1  UNL1        0.2392
     15 O          52.0553   18.1291  -24.6163 O.2     1  UNL1       -0.2737
     16 H          50.7450   20.0588  -25.9241 H       1  UNL1        0.1583
     17 C          51.1113    9.4379  -24.3023 C.3     1  UNL1        0.2117
     18 C          50.2118    8.5614  -23.4196 C.3     1  UNL1        0.0931
     19 C          47.4692   11.0446  -21.2382 C.ar    1  UNL1        0.0019
     20 C          48.3100   10.1529  -20.5500 C.ar    1  UNL1       -0.0014
     21 C          49.1956    9.3308  -21.2428 C.ar    1  UNL1        0.0145
     22 C          49.2365    9.3924  -22.6365 C.ar    1  UNL1        0.0629
     23 N          48.4398   10.2766  -23.2916 N.ar    1  UNL1       -0.2433
     24 CA         47.5720   11.1108  -22.6550 C.ar    1  UNL1        0.1521
     25 C          46.7942   12.0421  -23.5035 C.2     1  UNL1        0.3556
     26 O          47.3962   12.9646  -24.1160 O.2     1  UNL1       -0.2434
     27 OXT        45.4087   11.9635  -23.5965 O.3     1  UNL1       -0.4761
     28 HXT        44.8866   12.6205  -24.1639 H       1  UNL1        0.2955
     29 C          46.9779   12.0112  -18.9805 C.3     1  UNL1        0.0051
     30 C          46.5053   11.8792  -20.4262 C.3     1  UNL1        0.0281
@<TRIPOS>BOND
     1    29    30    1
     2    30    19    1
     3    19    20   ar
     4    20    21   ar
     5    21    22   ar
     6    22    18    1
     7    18    17    1
     8    17     1    1
     9     1     2    1
    10     2     3   ar
    11     3     4   ar
    12     4     5   ar
    13     5     8    1
    14     8     9    1
    15     9    10    1
    16    10    11    1
    17    11    12    2
    18    11    13   am
    19    13    14   am
    20    14    15    2
    21     5     6   ar
    22     6     7   ar
    23    22    23   ar
    24    23    24   ar
    25    24    25    1
    26    25    26    2
    27    25    27    1
    28    24    19   ar
    29     7     2   ar
    30    14     9    1
    31    13    16    1
    32    27    28    1
@<TRIPOS>MOLECULE
*****
 30 32 0 0 0
SMALL
GASTEIGER

@<TRIPOS>ATOM
      1 O          46.1578   10.4406  -28.4430 O.3     1  UNL1       -0.4750
      2 C          46.1521   11.7824  -28.0311 C.ar    1  UNL1        0.1385
      3 C          46.1095   12.0500  -26.6582 C.ar    1  UNL1        0.0366
      4 C          46.0759   13.3662  -26.1910 C.ar    1  UNL1       -0.0011
      5 C          46.0960   14.4390  -27.0954 C.ar    1  UNL1       -0.0206
      6 C          46.1482   14.1744  -28.4727 C.ar    1  UNL1       -0.0011
      7 C          46.1826   12.8571  -28.9394 C.ar    1  UNL1        0.0366
      8 C          46.0237   15.8604  -26.5989 C.3     1  UNL1        0.0468
      9 C          47.3478   16.2990  -25.9533 C.3     1  UNL1        0.1369
     10 S          48.6063   16.6964  -27.2426 S.3     1  UNL1       -0.0482
     11 C          48.6576   18.3907  -26.6847 C.2     1  UNL1        0.2792
     12 O          49.3508   19.2705  -27.2583 O.2     1  UNL1       -0.2625
     13 N          47.8603   18.6860  -25.5576 N.am    1  UNL1       -0.2460
     14 C          47.1513   17.5385  -25.1320 C.2     1  UNL1        0.2392
     15 O          46.4107   17.5642  -24.1132 O.2     1  UNL1       -0.2737
     16 H          47.8038   19.6228  -25.0994 H       1  UNL1        0.1583
     17 C          47.0598    9.8643  -29.3907 C.3     1  UNL1        0.2117
     18 C          48.2014    9.1059  -28.6994 C.3     1  UNL1        0.0931
     19 C          50.6933    7.0605  -31.5374 C.ar    1  UNL1        0.0019
     20 C          51.2769    7.8153  -30.5052 C.ar    1  UNL1       -0.0014
     21 C          50.4835    8.4958  -29.5845 C.ar    1  UNL1        0.0145
     22 C          49.0942    8.4300  -29.7000 C.ar    1  UNL1        0.0629
     23 N          48.5388    7.6760  -30.6844 N.ar    1  UNL1       -0.2433
     24 CA         49.2747    6.9809  -31.5952 C.ar    1  UNL1        0.1521
     25 C          48.5258    6.1777  -32.5883 C.2     1  UNL1        0.3556
     26 O          47.6753    5.3392  -32.1856 O.2     1  UNL1       -0.2434
     27 OXT        48.7775    6.2806  -33.9522 O.3     1  UNL1       -0.4761
     28 HXT        48.2728    5.7095  -34.6196 H       1  UNL1        0.2955
     29 C          53.0771    6.5847  -32.1409 C.3     1  UNL1        0.0051
     30 C          51.6137    6.3794  -32.5242 C.3     1  UNL1        0.0281
@<TRIPOS>BOND
     1    29    30    1
     2    30    19    1
     3    19    20   ar
     4    20    21   ar
     5    21    22   ar
     6    22    18    1
     7    18    17    1
     8    17     1    1
     9     1     2    1
    10     2     3   ar
    11     3     4   ar
    12     4     5   ar
    13     5     8    1
    14     8     9    1
    15     9    10    1
    16    10    11    1
    17    11    12    2
    18    11    13   am
    19    13    14   am
    20    14    15    2
    21     5     6   ar
    22     6     7   ar
    23    22    23   ar
    24    23    24   ar
    25    24    25    1
    26    25    26    2
    27    25    27    1
    28    24    19   ar
    29     7     2   ar
    30    14     9    1
    31    13    16    1
    32    27    28    1
