@<TRIPOS>MOLECULE
*****
 46 51 0 0 0
SMALL
GASTEIGER

@<TRIPOS>ATOM
      1 C          13.2166   83.6806   24.4224 C.ar    1  UNL1        0.0702
      2 C          14.2968   83.5664   23.5339 C.ar    1  UNL1        0.0191
      3 C          14.6880   84.6609   22.7610 C.ar    1  UNL1        0.0356
      4 C          13.9839   85.8731   22.8645 C.ar    1  UNL1        0.1318
      5 N          12.9280   85.9515   23.7226 N.ar    1  UNL1       -0.2279
      6 C          12.5298   84.8990   24.4846 C.ar    1  UNL1        0.1149
      7 N          14.3588   87.0292   22.0841 N.pl3   1  UNL1       -0.2932
      8 C          15.7823   87.3464   21.8916 C.3     1  UNL1        0.0923
      9 C          15.9919   88.0030   20.5249 C.3     1  UNL1        0.0252
     10 C          15.1550   89.2984   20.3580 C.3     1  UNL1        0.0472
     11 C          13.9122   89.3351   21.2824 C.3     1  UNL1        0.0252
     12 C          13.3326   87.9401   21.5473 C.3     1  UNL1        0.0923
     13 C          14.7541   89.5063   18.8879 C.3     1  UNL1        0.2054
     14 O          13.8882   88.4538   18.4672 O.3     1  UNL1       -0.4755
     15 C          14.2095   87.5063   17.4843 C.ar    1  UNL1        0.1388
     16 C          14.4392   87.8604   16.1419 C.ar    1  UNL1        0.0369
     17 C          14.7554   86.8782   15.2013 C.ar    1  UNL1        0.0033
     18 C          14.8459   85.5385   15.5858 C.ar    1  UNL1        0.0066
     19 C          14.6200   85.1660   16.9225 C.ar    1  UNL1        0.0785
     20 C          14.3020   86.1614   17.8639 C.ar    1  UNL1        0.0433
     21 C          14.7141   83.7486   17.3370 C.2     1  UNL1        0.3381
     22 O          14.5091   82.8247   16.5038 O.2     1  UNL1       -0.2451
     23 O          15.0304   83.4215   18.6530 O.3     1  UNL1       -0.4771
     24 H          15.0972   82.4543   18.9471 H       1  UNL1        0.2954
     25 C          11.7364   81.6549   24.8111 C.2     1  UNL1        0.2839
     26 O          11.3445   81.6313   23.6133 O.2     1  UNL1       -0.2665
     27 N          12.7678   82.5691   25.2169 N.am    1  UNL1       -0.2766
     28 H          13.2811   82.3665   26.1047 H       1  UNL1        0.1553
     29 C           9.4603   77.5446   28.5628 C.ar    1  UNL1        0.0002
     30 C           9.2888   78.7174   29.3467 C.ar    1  UNL1        0.0031
     31 C           9.6929   79.9735   28.8623 C.ar    1  UNL1        0.0375
     32 C          10.2640   80.0319   27.5958 C.ar    1  UNL1        0.1452
     33 O          10.7008   81.0966   26.9686 O.2     1  UNL1       -0.4492
     34 C          11.1644   80.7134   25.7923 C.ar    1  UNL1        0.1946
     35 C          11.0205   79.3287   25.6489 C.ar    1  UNL1        0.0202
     36 C          11.4126   78.4840   24.4742 C.3     1  UNL1        0.0345
     37 C          10.4366   78.9107   26.8294 C.ar    1  UNL1        0.0337
     38 C          10.0467   77.6479   27.2786 C.ar    1  UNL1        0.0028
     39 C           7.3113   74.7935   30.0730 C.ar    1  UNL1       -0.0222
     40 C           8.2100   73.7166   30.0619 C.ar    1  UNL1       -0.0043
     41 C           9.5084   73.8897   29.5793 C.ar    1  UNL1       -0.0003
     42 C           9.9183   75.1340   29.0950 C.ar    1  UNL1       -0.0000
     43 C           9.0286   76.2233   29.0851 C.ar    1  UNL1       -0.0003
     44 C           7.7214   76.0405   29.5735 C.ar    1  UNL1       -0.0043
     45 C           5.2087   75.9413   30.7653 C.3     1  UNL1        0.0050
     46 C           5.8995   74.5978   30.5577 C.3     1  UNL1        0.0264
@<TRIPOS>BOND
     1    45    46    1
     2    46    39    1
     3    39    40   ar
     4    40    41   ar
     5    41    42   ar
     6    42    43   ar
     7    43    29    1
     8    29    30   ar
     9    30    31   ar
    10    31    32   ar
    11    32    33   ar
    12    33    34   ar
    13    34    25    1
    14    25    26    2
    15    25    27   am
    16    27     1    1
    17     1     2   ar
    18     2     3   ar
    19     3     4   ar
    20     4     7    1
    21     7     8    1
    22     8     9    1
    23     9    10    1
    24    10    13    1
    25    13    14    1
    26    14    15    1
    27    15    16   ar
    28    16    17   ar
    29    17    18   ar
    30    18    19   ar
    31    19    21    1
    32    21    22    2
    33    21    23    1
    34    19    20   ar
    35    10    11    1
    36    11    12    1
    37     4     5   ar
    38     5     6   ar
    39    34    35   ar
    40    35    36    1
    41    35    37   ar
    42    37    38   ar
    43    43    44   ar
    44    44    39   ar
    45    38    29   ar
    46    37    32   ar
    47     6     1   ar
    48    12     7    1
    49    20    15   ar
    50    27    28    1
    51    23    24    1
@<TRIPOS>MOLECULE
*****
 46 51 0 0 0
SMALL
GASTEIGER

@<TRIPOS>ATOM
      1 C          13.0991   83.2078   25.2840 C.ar    1  UNL1        0.0702
      2 C          13.2462   83.3487   23.8955 C.ar    1  UNL1        0.0191
      3 C          13.8696   84.4804   23.3675 C.ar    1  UNL1        0.0356
      4 C          14.3340   85.4864   24.2325 C.ar    1  UNL1        0.1318
      5 N          14.1628   85.3322   25.5757 N.ar    1  UNL1       -0.2279
      6 C          13.5591   84.2390   26.1117 C.ar    1  UNL1        0.1149
      7 N          14.9866   86.6712   23.7258 N.pl3   1  UNL1       -0.2932
      8 C          16.4520   86.7799   23.7937 C.3     1  UNL1        0.0923
      9 C          16.9720   87.5925   22.6054 C.3     1  UNL1        0.0252
     10 C          16.3583   89.0162   22.5503 C.3     1  UNL1        0.0472
     11 C          14.9964   89.1131   23.2828 C.3     1  UNL1        0.0252
     12 C          14.1968   87.8061   23.2167 C.3     1  UNL1        0.0923
     13 C          16.2380   89.5053   21.0972 C.3     1  UNL1        0.2054
     14 O          16.1884   88.3884   20.2114 O.3     1  UNL1       -0.4755
     15 C          15.0130   87.7153   19.8476 C.ar    1  UNL1        0.1388
     16 C          14.9285   86.3111   19.8116 C.ar    1  UNL1        0.0369
     17 C          13.7344   85.6893   19.4415 C.ar    1  UNL1        0.0033
     18 C          12.6165   86.4558   19.1049 C.ar    1  UNL1        0.0066
     19 C          12.6822   87.8599   19.1354 C.ar    1  UNL1        0.0785
     20 C          13.8886   88.4785   19.5092 C.ar    1  UNL1        0.0433
     21 C          11.5018   88.6783   18.7798 C.2     1  UNL1        0.3381
     22 O          11.5489   89.4779   17.8060 O.2     1  UNL1       -0.2451
     23 O          10.3261   88.5729   19.5185 O.3     1  UNL1       -0.4771
     24 H           9.5123   89.1287   19.2836 H       1  UNL1        0.2954
     25 C          11.2705   81.4467   25.3096 C.2     1  UNL1        0.2839
     26 O          10.9068   81.7151   24.1329 O.2     1  UNL1       -0.2665
     27 N          12.4406   82.0689   25.8648 N.am    1  UNL1       -0.2766
     28 H          12.8897   81.6171   26.6935 H       1  UNL1        0.1553
     29 C           8.0785   77.2779   28.2393 C.ar    1  UNL1        0.0002
     30 C           8.6108   78.0015   29.3405 C.ar    1  UNL1        0.0031
     31 C           9.4525   79.1085   29.1362 C.ar    1  UNL1        0.0375
     32 C           9.7470   79.4719   27.8267 C.ar    1  UNL1        0.1452
     33 O          10.5033   80.4653   27.4279 O.2     1  UNL1       -0.4492
     34 C          10.5174   80.4600   26.1068 C.ar    1  UNL1        0.1946
     35 C           9.7292   79.4093   25.6238 C.ar    1  UNL1        0.0202
     36 C           9.4690   79.0420   24.1939 C.3     1  UNL1        0.0345
     37 C           9.2426   78.7840   26.7559 C.ar    1  UNL1        0.0337
     38 C           8.4037   77.6808   26.9218 C.ar    1  UNL1        0.0028
     39 C           5.1598   75.1490   29.4291 C.ar    1  UNL1       -0.0222
     40 C           5.5019   73.9009   28.8881 C.ar    1  UNL1       -0.0043
     41 C           6.6800   73.7522   28.1541 C.ar    1  UNL1       -0.0003
     42 C           7.5210   74.8475   27.9450 C.ar    1  UNL1       -0.0000
     43 C           7.1897   76.1106   28.4678 C.ar    1  UNL1       -0.0003
     44 C           6.0003   76.2520   29.2067 C.ar    1  UNL1       -0.0043
     45 C           3.6289   76.7871   30.5203 C.3     1  UNL1        0.0050
     46 C           3.8707   75.3185   30.1881 C.3     1  UNL1        0.0264
@<TRIPOS>BOND
     1    45    46    1
     2    46    39    1
     3    39    40   ar
     4    40    41   ar
     5    41    42   ar
     6    42    43   ar
     7    43    29    1
     8    29    30   ar
     9    30    31   ar
    10    31    32   ar
    11    32    33   ar
    12    33    34   ar
    13    34    25    1
    14    25    26    2
    15    25    27   am
    16    27     1    1
    17     1     2   ar
    18     2     3   ar
    19     3     4   ar
    20     4     7    1
    21     7     8    1
    22     8     9    1
    23     9    10    1
    24    10    13    1
    25    13    14    1
    26    14    15    1
    27    15    16   ar
    28    16    17   ar
    29    17    18   ar
    30    18    19   ar
    31    19    21    1
    32    21    22    2
    33    21    23    1
    34    19    20   ar
    35    10    11    1
    36    11    12    1
    37     4     5   ar
    38     5     6   ar
    39    34    35   ar
    40    35    36    1
    41    35    37   ar
    42    37    38   ar
    43    43    44   ar
    44    44    39   ar
    45    38    29   ar
    46    37    32   ar
    47     6     1   ar
    48    12     7    1
    49    20    15   ar
    50    27    28    1
    51    23    24    1
@<TRIPOS>MOLECULE
*****
 46 51 0 0 0
SMALL
GASTEIGER

@<TRIPOS>ATOM
      1 C          12.0412   80.9257   25.0973 C.ar    1  UNL1        0.0702
      2 C          13.4443   80.9158   25.0740 C.ar    1  UNL1        0.0191
      3 C          14.1466   82.0414   24.6404 C.ar    1  UNL1        0.0356
      4 C          13.4413   83.1789   24.2109 C.ar    1  UNL1        0.1318
      5 N          12.0787   83.1555   24.2275 N.ar    1  UNL1       -0.2279
      6 C          11.3746   82.0710   24.6457 C.ar    1  UNL1        0.1149
      7 N          14.1309   84.3642   23.7574 N.pl3   1  UNL1       -0.2932
      8 C          15.1749   84.2493   22.7274 C.3     1  UNL1        0.0923
      9 C          15.1974   85.5116   21.8621 C.3     1  UNL1        0.0252
     10 C          15.4458   86.7951   22.6971 C.3     1  UNL1        0.0472
     11 C          15.0409   86.6335   24.1839 C.3     1  UNL1        0.0252
     12 C          13.8584   85.6752   24.3723 C.3     1  UNL1        0.0923
     13 C          14.7414   88.0063   22.0631 C.3     1  UNL1        0.2054
     14 O          13.4682   87.6151   21.5524 O.3     1  UNL1       -0.4755
     15 C          12.9238   88.0710   20.3430 C.ar    1  UNL1        0.1388
     16 C          11.5937   88.5178   20.2357 C.ar    1  UNL1        0.0369
     17 C          11.0994   88.9613   19.0074 C.ar    1  UNL1        0.0033
     18 C          11.9208   88.9645   17.8778 C.ar    1  UNL1        0.0066
     19 C          13.2523   88.5218   17.9661 C.ar    1  UNL1        0.0785
     20 C          13.7426   88.0768   19.2068 C.ar    1  UNL1        0.0433
     21 C          14.1282   88.5224   16.7734 C.2     1  UNL1        0.3381
     22 O          14.0036   87.6321   15.8892 O.2     1  UNL1       -0.2451
     23 O          15.0996   89.5076   16.6161 O.3     1  UNL1       -0.4771
     24 H          15.7044   89.5170   15.8035 H       1  UNL1        0.2954
     25 C          10.5467   78.9308   24.6152 C.2     1  UNL1        0.2839
     26 O          10.7400   79.0051   23.3718 O.2     1  UNL1       -0.2665
     27 N          11.2818   79.7776   25.5135 N.am    1  UNL1       -0.2766
     28 H          11.3374   79.4953   26.5184 H       1  UNL1        0.1553
     29 C           6.5997   75.1372   27.1013 C.ar    1  UNL1        0.0002
     30 C           6.9911   74.3782   25.9654 C.ar    1  UNL1        0.0031
     31 C           7.9342   74.8813   25.0527 C.ar    1  UNL1        0.0375
     32 C           8.4702   76.1412   25.2954 C.ar    1  UNL1        0.1452
     33 O           9.3562   76.7814   24.5723 O.2     1  UNL1       -0.4492
     34 C           9.5928   77.9433   25.1550 C.ar    1  UNL1        0.1946
     35 C           8.8209   78.0627   26.3161 C.ar    1  UNL1        0.0202
     36 C           8.7813   79.2141   27.2753 C.3     1  UNL1        0.0345
     37 C           8.1022   76.8845   26.3847 C.ar    1  UNL1        0.0337
     38 C           7.1693   76.4161   27.3112 C.ar    1  UNL1        0.0028
     39 C           4.0046   74.9373   29.8748 C.ar    1  UNL1       -0.0222
     40 C           3.7068   73.5666   29.8633 C.ar    1  UNL1       -0.0043
     41 C           4.3561   72.7139   28.9689 C.ar    1  UNL1       -0.0003
     42 C           5.2996   73.2214   28.0727 C.ar    1  UNL1       -0.0000
     43 C           5.6031   74.5948   28.0590 C.ar    1  UNL1       -0.0003
     44 C           4.9441   75.4477   28.9641 C.ar    1  UNL1       -0.0043
     45 C           3.7077   77.3085   30.5867 C.3     1  UNL1        0.0050
     46 C           3.2771   75.8632   30.8128 C.3     1  UNL1        0.0264
@<TRIPOS>BOND
     1    45    46    1
     2    46    39    1
     3    39    40   ar
     4    40    41   ar
     5    41    42   ar
     6    42    43   ar
     7    43    29    1
     8    29    30   ar
     9    30    31   ar
    10    31    32   ar
    11    32    33   ar
    12    33    34   ar
    13    34    25    1
    14    25    26    2
    15    25    27   am
    16    27     1    1
    17     1     2   ar
    18     2     3   ar
    19     3     4   ar
    20     4     7    1
    21     7     8    1
    22     8     9    1
    23     9    10    1
    24    10    13    1
    25    13    14    1
    26    14    15    1
    27    15    16   ar
    28    16    17   ar
    29    17    18   ar
    30    18    19   ar
    31    19    21    1
    32    21    22    2
    33    21    23    1
    34    19    20   ar
    35    10    11    1
    36    11    12    1
    37     4     5   ar
    38     5     6   ar
    39    34    35   ar
    40    35    36    1
    41    35    37   ar
    42    37    38   ar
    43    43    44   ar
    44    44    39   ar
    45    38    29   ar
    46    37    32   ar
    47     6     1   ar
    48    12     7    1
    49    20    15   ar
    50    27    28    1
    51    23    24    1
@<TRIPOS>MOLECULE
*****
 46 51 0 0 0
SMALL
GASTEIGER

@<TRIPOS>ATOM
      1 C          13.1295   83.4400   25.3473 C.ar    1  UNL1        0.0702
      2 C          13.7363   84.3461   26.2306 C.ar    1  UNL1        0.0191
      3 C          14.4007   85.4695   25.7361 C.ar    1  UNL1        0.0356
      4 C          14.4739   85.6798   24.3481 C.ar    1  UNL1        0.1318
      5 N          13.8908   84.7751   23.5122 N.ar    1  UNL1       -0.2279
      6 C          13.2387   83.6748   23.9715 C.ar    1  UNL1        0.1149
      7 N          15.1499   86.8311   23.7969 N.pl3   1  UNL1       -0.2932
      8 C          16.6133   86.9359   23.9043 C.3     1  UNL1        0.0923
      9 C          17.1753   87.6782   22.6894 C.3     1  UNL1        0.0252
     10 C          16.5734   89.0997   22.5361 C.3     1  UNL1        0.0472
     11 C          15.1903   89.2444   23.2192 C.3     1  UNL1        0.0252
     12 C          14.3841   87.9398   23.2010 C.3     1  UNL1        0.0923
     13 C          16.5014   89.5076   21.0550 C.3     1  UNL1        0.2054
     14 O          15.1558   89.4152   20.5908 O.3     1  UNL1       -0.4755
     15 C          14.6525   88.3568   19.8205 C.ar    1  UNL1        0.1388
     16 C          13.7309   88.5559   18.7759 C.ar    1  UNL1        0.0369
     17 C          13.2595   87.4676   18.0390 C.ar    1  UNL1        0.0033
     18 C          13.6991   86.1750   18.3332 C.ar    1  UNL1        0.0066
     19 C          14.6198   85.9569   19.3730 C.ar    1  UNL1        0.0785
     20 C          15.0898   87.0583   20.1105 C.ar    1  UNL1        0.0433
     21 C          15.0897   84.5901   19.6903 C.2     1  UNL1        0.3381
     22 O          15.8253   83.9635   18.8802 O.2     1  UNL1       -0.2451
     23 O          14.7235   83.9821   20.8883 O.3     1  UNL1       -0.4771
     24 H          15.0397   83.0468   21.1152 H       1  UNL1        0.2954
     25 C          11.4433   81.5616   25.0749 C.2     1  UNL1        0.2839
     26 O          11.2697   81.8086   23.8510 O.2     1  UNL1       -0.2665
     27 N          12.4575   82.2584   25.8167 N.am    1  UNL1       -0.2766
     28 H          12.7867   81.8350   26.7139 H       1  UNL1        0.1553
     29 C           8.0899   77.1742   27.4531 C.ar    1  UNL1        0.0002
     30 C           8.3300   77.9590   28.6132 C.ar    1  UNL1        0.0031
     31 C           9.1005   79.1324   28.5426 C.ar    1  UNL1        0.0375
     32 C           9.6186   79.4999   27.3057 C.ar    1  UNL1        0.1452
     33 O          10.3539   80.5497   27.0314 O.2     1  UNL1       -0.4492
     34 C          10.6312   80.5250   25.7399 C.ar    1  UNL1        0.1946
     35 C          10.0453   79.4015   25.1457 C.ar    1  UNL1        0.0202
     36 C          10.1067   78.9904   23.7055 C.3     1  UNL1        0.0345
     37 C           9.3967   78.7536   26.1796 C.ar    1  UNL1        0.0337
     38 C           8.6364   77.5835   26.2130 C.ar    1  UNL1        0.0028
     39 C           5.7728   74.4721   28.7936 C.ar    1  UNL1       -0.0222
     40 C           5.7187   73.5990   27.6971 C.ar    1  UNL1       -0.0043
     41 C           6.4418   73.8820   26.5370 C.ar    1  UNL1       -0.0003
     42 C           7.2162   75.0416   26.4567 C.ar    1  UNL1       -0.0000
     43 C           7.2737   75.9368   27.5400 C.ar    1  UNL1       -0.0003
     44 C           6.5419   75.6441   28.7060 C.ar    1  UNL1       -0.0043
     45 C           3.8489   73.1906   29.7284 C.3     1  UNL1        0.0050
     46 C           4.9632   74.1869   30.0304 C.3     1  UNL1        0.0264
@<TRIPOS>BOND
     1    45    46    1
     2    46    39    1
     3    39    40   ar
     4    40    41   ar
     5    41    42   ar
     6    42    43   ar
     7    43    29    1
     8    29    30   ar
     9    30    31   ar
    10    31    32   ar
    11    32    33   ar
    12    33    34   ar
    13    34    25    1
    14    25    26    2
    15    25    27   am
    16    27     1    1
    17     1     2   ar
    18     2     3   ar
    19     3     4   ar
    20     4     7    1
    21     7     8    1
    22     8     9    1
    23     9    10    1
    24    10    13    1
    25    13    14    1
    26    14    15    1
    27    15    16   ar
    28    16    17   ar
    29    17    18   ar
    30    18    19   ar
    31    19    21    1
    32    21    22    2
    33    21    23    1
    34    19    20   ar
    35    10    11    1
    36    11    12    1
    37     4     5   ar
    38     5     6   ar
    39    34    35   ar
    40    35    36    1
    41    35    37   ar
    42    37    38   ar
    43    43    44   ar
    44    44    39   ar
    45    38    29   ar
    46    37    32   ar
    47     6     1   ar
    48    12     7    1
    49    20    15   ar
    50    27    28    1
    51    23    24    1
@<TRIPOS>MOLECULE
*****
 46 51 0 0 0
SMALL
GASTEIGER

@<TRIPOS>ATOM
      1 C          13.2176   83.3472   25.3578 C.ar    1  UNL1        0.0702
      2 C          13.2470   83.4279   23.9571 C.ar    1  UNL1        0.0191
      3 C          13.8408   84.5244   23.3300 C.ar    1  UNL1        0.0356
      4 C          14.3942   85.5558   24.1086 C.ar    1  UNL1        0.1318
      5 N          14.3368   85.4604   25.4668 N.ar    1  UNL1       -0.2279
      6 C          13.7638   84.4022   26.0985 C.ar    1  UNL1        0.1149
      7 N          15.0198   86.7056   23.4980 N.pl3   1  UNL1       -0.2932
      8 C          16.4859   86.7661   23.3933 C.3     1  UNL1        0.0923
      9 C          16.8891   87.5327   22.1313 C.3     1  UNL1        0.0252
     10 C          16.3175   88.9746   22.1088 C.3     1  UNL1        0.0472
     11 C          15.0537   89.1347   22.9907 C.3     1  UNL1        0.0252
     12 C          14.2117   87.8544   23.0528 C.3     1  UNL1        0.0923
     13 C          16.0444   89.4335   20.6665 C.3     1  UNL1        0.2054
     14 O          14.6502   89.3349   20.3814 O.3     1  UNL1       -0.4755
     15 C          14.0117   88.1688   19.9348 C.ar    1  UNL1        0.1388
     16 C          12.6119   88.0672   19.8332 C.ar    1  UNL1        0.0369
     17 C          12.0251   86.8828   19.3833 C.ar    1  UNL1        0.0033
     18 C          12.8226   85.7917   19.0311 C.ar    1  UNL1        0.0066
     19 C          14.2228   85.8749   19.1259 C.ar    1  UNL1        0.0785
     20 C          14.8061   87.0714   19.5799 C.ar    1  UNL1        0.0433
     21 C          15.0740   84.7228   18.7546 C.2     1  UNL1        0.3381
     22 O          15.5118   84.6052   17.5780 O.2     1  UNL1       -0.2451
     23 O          15.3998   83.7562   19.7026 O.3     1  UNL1       -0.4771
     24 H          15.9817   82.9636   19.4588 H       1  UNL1        0.2954
     25 C          11.3211   81.6889   25.6727 C.2     1  UNL1        0.2839
     26 O          10.7999   81.9761   24.5615 O.2     1  UNL1       -0.2665
     27 N          12.5932   82.2464   26.0407 N.am    1  UNL1       -0.2766
     28 H          13.1365   81.7711   26.7967 H       1  UNL1        0.1553
     29 C           8.4436   77.6568   29.0804 C.ar    1  UNL1        0.0002
     30 C           8.9463   78.5209   30.0903 C.ar    1  UNL1        0.0031
     31 C           9.7134   79.6502   29.7561 C.ar    1  UNL1        0.0375
     32 C           9.9641   79.8943   28.4104 C.ar    1  UNL1        0.1452
     33 O          10.6501   80.8857   27.8961 O.2     1  UNL1       -0.4492
     34 C          10.6440   80.7453   26.5824 C.ar    1  UNL1        0.1946
     35 C           9.9161   79.6044   26.2261 C.ar    1  UNL1        0.0202
     36 C           9.6574   79.0768   24.8471 C.3     1  UNL1        0.0345
     37 C           9.4874   79.0704   27.4263 C.ar    1  UNL1        0.0337
     38 C           8.7223   77.9411   27.7219 C.ar    1  UNL1        0.0028
     39 C           5.4956   75.4763   30.0913 C.ar    1  UNL1       -0.0222
     40 C           6.0992   74.2105   30.1251 C.ar    1  UNL1       -0.0043
     41 C           7.4574   74.0716   29.8343 C.ar    1  UNL1       -0.0003
     42 C           8.2224   75.1908   29.4981 C.ar    1  UNL1       -0.0000
     43 C           7.6336   76.4671   29.4457 C.ar    1  UNL1       -0.0003
     44 C           6.2637   76.5985   29.7404 C.ar    1  UNL1       -0.0043
     45 C           3.6246   77.0927   30.4142 C.3     1  UNL1        0.0050
     46 C           4.0228   75.6214   30.3674 C.3     1  UNL1        0.0264
@<TRIPOS>BOND
     1    45    46    1
     2    46    39    1
     3    39    40   ar
     4    40    41   ar
     5    41    42   ar
     6    42    43   ar
     7    43    29    1
     8    29    30   ar
     9    30    31   ar
    10    31    32   ar
    11    32    33   ar
    12    33    34   ar
    13    34    25    1
    14    25    26    2
    15    25    27   am
    16    27     1    1
    17     1     2   ar
    18     2     3   ar
    19     3     4   ar
    20     4     7    1
    21     7     8    1
    22     8     9    1
    23     9    10    1
    24    10    13    1
    25    13    14    1
    26    14    15    1
    27    15    16   ar
    28    16    17   ar
    29    17    18   ar
    30    18    19   ar
    31    19    21    1
    32    21    22    2
    33    21    23    1
    34    19    20   ar
    35    10    11    1
    36    11    12    1
    37     4     5   ar
    38     5     6   ar
    39    34    35   ar
    40    35    36    1
    41    35    37   ar
    42    37    38   ar
    43    43    44   ar
    44    44    39   ar
    45    38    29   ar
    46    37    32   ar
    47     6     1   ar
    48    12     7    1
    49    20    15   ar
    50    27    28    1
    51    23    24    1
@<TRIPOS>MOLECULE
*****
 46 51 0 0 0
SMALL
GASTEIGER

@<TRIPOS>ATOM
      1 C          10.1225   79.9692   23.9815 C.ar    1  UNL1        0.0702
      2 C           9.8054   79.2494   25.1436 C.ar    1  UNL1        0.0191
      3 C           9.0158   78.1012   25.0639 C.ar    1  UNL1        0.0356
      4 C           8.5256   77.6789   23.8159 C.ar    1  UNL1        0.1318
      5 N           8.8345   78.4062   22.7055 N.ar    1  UNL1       -0.2279
      6 C           9.6015   79.5268   22.7596 C.ar    1  UNL1        0.1149
      7 N           7.7078   76.4950   23.6910 N.pl3   1  UNL1       -0.2932
      8 C           6.4989   76.5309   22.8536 C.3     1  UNL1        0.0923
      9 C           6.2564   75.1564   22.2254 C.3     1  UNL1        0.0252
     10 C           6.1042   74.0392   23.2908 C.3     1  UNL1        0.0472
     11 C           6.7832   74.3952   24.6373 C.3     1  UNL1        0.0252
     12 C           8.0251   75.2768   24.4566 C.3     1  UNL1        0.0923
     13 C           6.6205   72.6943   22.7524 C.3     1  UNL1        0.2054
     14 O           7.5634   72.9199   21.7061 O.3     1  UNL1       -0.4755
     15 C           8.9548   72.9363   21.8811 C.ar    1  UNL1        0.1388
     16 C           9.6718   71.8116   22.3298 C.ar    1  UNL1        0.0369
     17 C          11.0573   71.8802   22.4884 C.ar    1  UNL1        0.0033
     18 C          11.7407   73.0643   22.2031 C.ar    1  UNL1        0.0066
     19 C          11.0411   74.1980   21.7536 C.ar    1  UNL1        0.0785
     20 C           9.6457   74.1208   21.5964 C.ar    1  UNL1        0.0433
     21 C          11.7587   75.4559   21.4496 C.2     1  UNL1        0.3381
     22 O          12.0381   76.2704   22.3707 O.2     1  UNL1       -0.2451
     23 O          12.1326   75.7523   20.1414 O.3     1  UNL1       -0.4771
     24 H          12.6240   76.6107   19.9225 H       1  UNL1        0.2954
     25 C          12.2795   81.2185   24.4637 C.2     1  UNL1        0.2839
     26 O          12.9423   80.1541   24.5930 O.2     1  UNL1       -0.2665
     27 N          10.9119   81.1704   24.0256 N.am    1  UNL1       -0.2766
     28 H          10.4908   82.0444   23.6366 H       1  UNL1        0.1553
     29 C          14.9038   86.4388   25.8820 C.ar    1  UNL1        0.0002
     30 C          14.7242   86.6235   24.4845 C.ar    1  UNL1        0.0031
     31 C          14.1265   85.6247   23.6966 C.ar    1  UNL1        0.0375
     32 C          13.7180   84.4540   24.3258 C.ar    1  UNL1        0.1452
     33 O          13.1438   83.4130   23.7739 O.2     1  UNL1       -0.4492
     34 C          12.9202   82.5218   24.7232 C.ar    1  UNL1        0.1946
     35 C          13.3723   83.0099   25.9544 C.ar    1  UNL1        0.0202
     36 C          13.3134   82.3272   27.2877 C.3     1  UNL1        0.0345
     37 C          13.8853   84.2612   25.6709 C.ar    1  UNL1        0.0337
     38 C          14.4743   85.2314   26.4833 C.ar    1  UNL1        0.0028
     39 C          15.5284   88.9371   28.6813 C.ar    1  UNL1       -0.0222
     40 C          16.7415   89.5057   28.2657 C.ar    1  UNL1       -0.0043
     41 C          17.3427   89.0879   27.0771 C.ar    1  UNL1       -0.0003
     42 C          16.7454   88.0939   26.2987 C.ar    1  UNL1       -0.0000
     43 C          15.5358   87.5016   26.7042 C.ar    1  UNL1       -0.0003
     44 C          14.9361   87.9285   27.9037 C.ar    1  UNL1       -0.0043
     45 C          13.3783   89.2942   29.8926 C.3     1  UNL1        0.0050
     46 C          14.8993   89.3600   29.9819 C.3     1  UNL1        0.0264
@<TRIPOS>BOND
     1    45    46    1
     2    46    39    1
     3    39    40   ar
     4    40    41   ar
     5    41    42   ar
     6    42    43   ar
     7    43    29    1
     8    29    30   ar
     9    30    31   ar
    10    31    32   ar
    11    32    33   ar
    12    33    34   ar
    13    34    25    1
    14    25    26    2
    15    25    27   am
    16    27     1    1
    17     1     2   ar
    18     2     3   ar
    19     3     4   ar
    20     4     7    1
    21     7     8    1
    22     8     9    1
    23     9    10    1
    24    10    13    1
    25    13    14    1
    26    14    15    1
    27    15    16   ar
    28    16    17   ar
    29    17    18   ar
    30    18    19   ar
    31    19    21    1
    32    21    22    2
    33    21    23    1
    34    19    20   ar
    35    10    11    1
    36    11    12    1
    37     4     5   ar
    38     5     6   ar
    39    34    35   ar
    40    35    36    1
    41    35    37   ar
    42    37    38   ar
    43    43    44   ar
    44    44    39   ar
    45    38    29   ar
    46    37    32   ar
    47     6     1   ar
    48    12     7    1
    49    20    15   ar
    50    27    28    1
    51    23    24    1
@<TRIPOS>MOLECULE
*****
 46 51 0 0 0
SMALL
GASTEIGER

@<TRIPOS>ATOM
      1 C           8.7015   78.4203   21.5562 C.ar    1  UNL1        0.0702
      2 C           8.5520   77.0291   21.6630 C.ar    1  UNL1        0.0191
      3 C           7.4718   76.3908   21.0515 C.ar    1  UNL1        0.0356
      4 C           6.5250   77.1504   20.3427 C.ar    1  UNL1        0.1318
      5 N           6.6849   78.5018   20.2692 N.ar    1  UNL1       -0.2279
      6 C           7.7286   79.1442   20.8565 C.ar    1  UNL1        0.1149
      7 N           5.3949   76.5274   19.6939 N.pl3   1  UNL1       -0.2932
      8 C           5.3728   75.0674   19.5148 C.3     1  UNL1        0.0923
      9 C           3.9325   74.5538   19.5819 C.3     1  UNL1        0.0252
     10 C           3.0211   75.2113   18.5126 C.3     1  UNL1        0.0472
     11 C           3.5494   76.5876   18.0356 C.3     1  UNL1        0.0252
     12 C           4.3024   77.3441   19.1368 C.3     1  UNL1        0.0923
     13 C           1.5735   75.3228   19.0198 C.3     1  UNL1        0.2054
     14 O           1.5512   75.2502   20.4442 O.3     1  UNL1       -0.4755
     15 C           1.8018   76.3340   21.2985 C.ar    1  UNL1        0.1388
     16 C           1.1343   77.5661   21.1693 C.ar    1  UNL1        0.0369
     17 C           1.4210   78.6146   22.0456 C.ar    1  UNL1        0.0033
     18 C           2.3712   78.4482   23.0555 C.ar    1  UNL1        0.0066
     19 C           3.0478   77.2243   23.1999 C.ar    1  UNL1        0.0785
     20 C           2.7534   76.1730   22.3133 C.ar    1  UNL1        0.0433
     21 C           4.0559   77.0409   24.2676 C.2     1  UNL1        0.3381
     22 O           5.2491   76.7553   23.9770 O.2     1  UNL1       -0.2451
     23 O           3.6955   77.1822   25.6052 O.3     1  UNL1       -0.4771
     24 H           4.3778   77.0586   26.3438 H       1  UNL1        0.2954
     25 C          10.3922   78.7051   23.4287 C.2     1  UNL1        0.2839
     26 O          10.1681   77.5548   23.8928 O.2     1  UNL1       -0.2665
     27 N           9.7866   79.1172   22.1927 N.am    1  UNL1       -0.2766
     28 H          10.2138   79.9231   21.6821 H       1  UNL1        0.1553
     29 C          13.8516   82.6570   26.3554 C.ar    1  UNL1        0.0002
     30 C          14.8240   81.6759   26.0220 C.ar    1  UNL1        0.0031
     31 C          14.4656   80.5196   25.3078 C.ar    1  UNL1        0.0375
     32 C          13.1336   80.3666   24.9391 C.ar    1  UNL1        0.1452
     33 O          12.6018   79.3703   24.2740 O.2     1  UNL1       -0.4492
     34 C          11.3116   79.6181   24.1342 C.ar    1  UNL1        0.1946
     35 C          10.9900   80.8383   24.7393 C.ar    1  UNL1        0.0202
     36 C           9.6458   81.4977   24.8135 C.3     1  UNL1        0.0345
     37 C          12.1854   81.3026   25.2539 C.ar    1  UNL1        0.0337
     38 C          12.5060   82.4623   25.9615 C.ar    1  UNL1        0.0028
     39 C          14.6026   86.2900   27.1949 C.ar    1  UNL1       -0.0222
     40 C          14.9714   86.1814   28.5439 C.ar    1  UNL1       -0.0043
     41 C          14.9882   84.9336   29.1696 C.ar    1  UNL1       -0.0003
     42 C          14.6283   83.7861   28.4593 C.ar    1  UNL1       -0.0000
     43 C          14.2426   83.8749   27.1096 C.ar    1  UNL1       -0.0003
     44 C          14.2285   85.1366   26.4861 C.ar    1  UNL1       -0.0043
     45 C          14.2255   87.4983   25.0466 C.3     1  UNL1        0.0050
     46 C          14.5475   87.6398   26.5305 C.3     1  UNL1        0.0264
@<TRIPOS>BOND
     1    45    46    1
     2    46    39    1
     3    39    40   ar
     4    40    41   ar
     5    41    42   ar
     6    42    43   ar
     7    43    29    1
     8    29    30   ar
     9    30    31   ar
    10    31    32   ar
    11    32    33   ar
    12    33    34   ar
    13    34    25    1
    14    25    26    2
    15    25    27   am
    16    27     1    1
    17     1     2   ar
    18     2     3   ar
    19     3     4   ar
    20     4     7    1
    21     7     8    1
    22     8     9    1
    23     9    10    1
    24    10    13    1
    25    13    14    1
    26    14    15    1
    27    15    16   ar
    28    16    17   ar
    29    17    18   ar
    30    18    19   ar
    31    19    21    1
    32    21    22    2
    33    21    23    1
    34    19    20   ar
    35    10    11    1
    36    11    12    1
    37     4     5   ar
    38     5     6   ar
    39    34    35   ar
    40    35    36    1
    41    35    37   ar
    42    37    38   ar
    43    43    44   ar
    44    44    39   ar
    45    38    29   ar
    46    37    32   ar
    47     6     1   ar
    48    12     7    1
    49    20    15   ar
    50    27    28    1
    51    23    24    1
@<TRIPOS>MOLECULE
*****
 46 51 0 0 0
SMALL
GASTEIGER

@<TRIPOS>ATOM
      1 C          11.4745   79.3067   24.1805 C.ar    1  UNL1        0.0702
      2 C          11.7966   78.0731   24.7668 C.ar    1  UNL1        0.0191
      3 C          10.9960   76.9543   24.5314 C.ar    1  UNL1        0.0356
      4 C           9.8557   77.0732   23.7179 C.ar    1  UNL1        0.1318
      5 N           9.5564   78.2869   23.1750 N.ar    1  UNL1       -0.2279
      6 C          10.3216   79.3892   23.3905 C.ar    1  UNL1        0.1149
      7 N           9.0033   75.9390   23.4480 N.pl3   1  UNL1       -0.2932
      8 C           8.3708   75.2219   24.5659 C.3     1  UNL1        0.0923
      9 C           7.0119   74.6680   24.1304 C.3     1  UNL1        0.0252
     10 C           7.1266   73.7130   22.9134 C.3     1  UNL1        0.0472
     11 C           8.3979   73.9688   22.0654 C.3     1  UNL1        0.0252
     12 C           8.8250   75.4418   22.0725 C.3     1  UNL1        0.0923
     13 C           5.8609   73.7807   22.0424 C.3     1  UNL1        0.2054
     14 O           5.1180   74.9573   22.3560 O.3     1  UNL1       -0.4755
     15 C           3.9883   75.3949   21.6494 C.ar    1  UNL1        0.1388
     16 C           3.4236   74.6526   20.5958 C.ar    1  UNL1        0.0369
     17 C           2.2983   75.1331   19.9232 C.ar    1  UNL1        0.0033
     18 C           1.7258   76.3528   20.2912 C.ar    1  UNL1        0.0066
     19 C           2.2762   77.1080   21.3416 C.ar    1  UNL1        0.0785
     20 C           3.4096   76.6170   22.0140 C.ar    1  UNL1        0.0433
     21 C           1.6749   78.4011   21.7367 C.2     1  UNL1        0.3381
     22 O           2.2913   79.4815   21.5306 O.2     1  UNL1       -0.2451
     23 O           0.4208   78.4368   22.3409 O.3     1  UNL1       -0.4771
     24 H           0.0003   79.3166   22.6153 H       1  UNL1        0.2954
     25 C          11.7159   81.7371   24.8737 C.2     1  UNL1        0.2839
     26 O          10.5440   81.7887   25.3351 O.2     1  UNL1       -0.2665
     27 N          12.2600   80.4875   24.4190 N.am    1  UNL1       -0.2766
     28 H          13.2988   80.4061   24.3363 H       1  UNL1        0.1553
     29 C          15.2229   86.6170   25.0707 C.ar    1  UNL1        0.0002
     30 C          14.6337   86.7869   23.7888 C.ar    1  UNL1        0.0031
     31 C          13.7099   85.8521   23.2906 C.ar    1  UNL1        0.0375
     32 C          13.3917   84.7593   24.0893 C.ar    1  UNL1        0.1452
     33 O          12.5596   83.7857   23.8105 O.2     1  UNL1       -0.4492
     34 C          12.5480   82.9548   24.8376 C.ar    1  UNL1        0.1946
     35 C          13.4170   83.4132   25.8342 C.ar    1  UNL1        0.0202
     36 C          13.7052   82.7781   27.1611 C.3     1  UNL1        0.0345
     37 C          13.9517   84.5815   25.3259 C.ar    1  UNL1        0.0337
     38 C          14.8720   85.4898   25.8518 C.ar    1  UNL1        0.0028
     39 C          18.1989   88.9770   25.2727 C.ar    1  UNL1       -0.0222
     40 C          18.0335   89.5053   26.5616 C.ar    1  UNL1       -0.0043
     41 C          16.9695   89.0856   27.3619 C.ar    1  UNL1       -0.0003
     42 C          16.0568   88.1441   26.8810 C.ar    1  UNL1       -0.0000
     43 C          16.1971   87.6118   25.5866 C.ar    1  UNL1       -0.0003
     44 C          17.2726   88.0401   24.7862 C.ar    1  UNL1       -0.0043
     45 C          19.1013   89.0286   22.9488 C.3     1  UNL1        0.0050
     46 C          19.3238   89.4575   24.3952 C.3     1  UNL1        0.0264
@<TRIPOS>BOND
     1    45    46    1
     2    46    39    1
     3    39    40   ar
     4    40    41   ar
     5    41    42   ar
     6    42    43   ar
     7    43    29    1
     8    29    30   ar
     9    30    31   ar
    10    31    32   ar
    11    32    33   ar
    12    33    34   ar
    13    34    25    1
    14    25    26    2
    15    25    27   am
    16    27     1    1
    17     1     2   ar
    18     2     3   ar
    19     3     4   ar
    20     4     7    1
    21     7     8    1
    22     8     9    1
    23     9    10    1
    24    10    13    1
    25    13    14    1
    26    14    15    1
    27    15    16   ar
    28    16    17   ar
    29    17    18   ar
    30    18    19   ar
    31    19    21    1
    32    21    22    2
    33    21    23    1
    34    19    20   ar
    35    10    11    1
    36    11    12    1
    37     4     5   ar
    38     5     6   ar
    39    34    35   ar
    40    35    36    1
    41    35    37   ar
    42    37    38   ar
    43    43    44   ar
    44    44    39   ar
    45    38    29   ar
    46    37    32   ar
    47     6     1   ar
    48    12     7    1
    49    20    15   ar
    50    27    28    1
    51    23    24    1
@<TRIPOS>MOLECULE
*****
 46 51 0 0 0
SMALL
GASTEIGER

@<TRIPOS>ATOM
      1 C          11.0029   79.5323   23.7583 C.ar    1  UNL1        0.0702
      2 C          11.1991   78.2899   24.3806 C.ar    1  UNL1        0.0191
      3 C          10.2959   77.2476   24.1661 C.ar    1  UNL1        0.0356
      4 C           9.1795   77.4538   23.3372 C.ar    1  UNL1        0.1318
      5 N           9.0037   78.6753   22.7590 N.ar    1  UNL1       -0.2279
      6 C           9.8702   79.7040   22.9536 C.ar    1  UNL1        0.1149
      7 N           8.2235   76.4001   23.0880 N.pl3   1  UNL1       -0.2932
      8 C           7.3423   75.9455   24.1747 C.3     1  UNL1        0.0923
      9 C           5.9958   75.4951   23.6027 C.3     1  UNL1        0.0252
     10 C           6.1485   74.3558   22.5612 C.3     1  UNL1        0.0472
     11 C           7.5517   74.3246   21.9047 C.3     1  UNL1        0.0252
     12 C           8.1765   75.7198   21.7819 C.3     1  UNL1        0.0923
     13 C           5.0433   74.4364   21.4947 C.3     1  UNL1        0.2054
     14 O           4.5393   75.7686   21.4175 O.3     1  UNL1       -0.4755
     15 C           4.7058   76.6177   20.3137 C.ar    1  UNL1        0.1388
     16 C           3.8029   76.6377   19.2346 C.ar    1  UNL1        0.0369
     17 C           4.0145   77.5019   18.1586 C.ar    1  UNL1        0.0033
     18 C           5.1227   78.3518   18.1457 C.ar    1  UNL1        0.0066
     19 C           6.0353   78.3458   19.2151 C.ar    1  UNL1        0.0785
     20 C           5.8151   77.4725   20.2953 C.ar    1  UNL1        0.0433
     21 C           7.2117   79.2434   19.2081 C.2     1  UNL1        0.3381
     22 O           8.3125   78.8573   19.6866 O.2     1  UNL1       -0.2451
     23 O           7.1138   80.5250   18.6722 O.3     1  UNL1       -0.4771
     24 H           7.9130   81.1474   18.6625 H       1  UNL1        0.2954
     25 C          11.6807   81.6683   24.9515 C.2     1  UNL1        0.2839
     26 O          10.8139   81.5153   25.8538 O.2     1  UNL1       -0.2665
     27 N          11.8971   80.6378   23.9740 N.am    1  UNL1       -0.2766
     28 H          12.7988   80.6451   23.4453 H       1  UNL1        0.1553
     29 C          15.1475   86.5755   25.1785 C.ar    1  UNL1        0.0002
     30 C          14.5965   86.7215   23.8768 C.ar    1  UNL1        0.0031
     31 C          13.6944   85.7725   23.3655 C.ar    1  UNL1        0.0375
     32 C          13.3594   84.6899   24.1712 C.ar    1  UNL1        0.1452
     33 O          12.5426   83.7063   23.8825 O.2     1  UNL1       -0.4492
     34 C          12.5054   82.8912   24.9217 C.ar    1  UNL1        0.1946
     35 C          13.3406   83.3711   25.9369 C.ar    1  UNL1        0.0202
     36 C          13.5925   82.7586   27.2817 C.3     1  UNL1        0.0345
     37 C          13.8827   84.5353   25.4268 C.ar    1  UNL1        0.0337
     38 C          14.7804   85.4580   25.9661 C.ar    1  UNL1        0.0028
     39 C          18.0735   88.9940   25.4160 C.ar    1  UNL1       -0.0222
     40 C          17.8919   89.5064   26.7091 C.ar    1  UNL1       -0.0043
     41 C          16.8334   89.0573   27.5007 C.ar    1  UNL1       -0.0003
     42 C          15.9422   88.1020   27.0068 C.ar    1  UNL1       -0.0000
     43 C          16.0989   87.5851   25.7081 C.ar    1  UNL1       -0.0003
     44 C          17.1687   88.0430   24.9165 C.ar    1  UNL1       -0.0043
     45 C          19.1237   88.8844   23.1570 C.3     1  UNL1        0.0050
     46 C          19.1920   89.5058   24.5480 C.3     1  UNL1        0.0264
@<TRIPOS>BOND
     1    45    46    1
     2    46    39    1
     3    39    40   ar
     4    40    41   ar
     5    41    42   ar
     6    42    43   ar
     7    43    29    1
     8    29    30   ar
     9    30    31   ar
    10    31    32   ar
    11    32    33   ar
    12    33    34   ar
    13    34    25    1
    14    25    26    2
    15    25    27   am
    16    27     1    1
    17     1     2   ar
    18     2     3   ar
    19     3     4   ar
    20     4     7    1
    21     7     8    1
    22     8     9    1
    23     9    10    1
    24    10    13    1
    25    13    14    1
    26    14    15    1
    27    15    16   ar
    28    16    17   ar
    29    17    18   ar
    30    18    19   ar
    31    19    21    1
    32    21    22    2
    33    21    23    1
    34    19    20   ar
    35    10    11    1
    36    11    12    1
    37     4     5   ar
    38     5     6   ar
    39    34    35   ar
    40    35    36    1
    41    35    37   ar
    42    37    38   ar
    43    43    44   ar
    44    44    39   ar
    45    38    29   ar
    46    37    32   ar
    47     6     1   ar
    48    12     7    1
    49    20    15   ar
    50    27    28    1
    51    23    24    1
