@<TRIPOS>MOLECULE
*****
 38 42 0 0 0
SMALL
GASTEIGER

@<TRIPOS>ATOM
      1 C         -20.7734   -7.7522   -9.3353 C.2     1  UNL1        0.2506
      2 O         -20.4590   -6.5415   -9.1718 O.2     1  UNL1       -0.2699
      3 N         -22.0602   -8.0916   -9.8894 N.am    1  UNL1       -0.2680
      4 C         -22.7916   -9.2571   -9.3808 C.3     1  UNL1        0.1412
      5 C         -22.7111  -10.4072  -10.3827 C.3     1  UNL1        0.2268
      6 O         -22.6189   -9.9263  -11.7221 O.3     1  UNL1       -0.4730
      7 C         -23.5531   -9.0380  -12.2615 C.ar    1  UNL1        0.1466
      8 C         -24.3618   -9.4752  -13.3198 C.ar    1  UNL1        0.0913
      9 CL        -24.1859  -11.1020  -13.9609 Cl      1  UNL1       -0.0791
     10 C         -25.3291   -8.6294  -13.8657 C.ar    1  UNL1        0.0144
     11 C         -25.4947   -7.3255  -13.3756 C.ar    1  UNL1        0.0008
     12 C         -24.6664   -6.8794  -12.3323 C.ar    1  UNL1        0.0005
     13 C         -23.6953   -7.7204  -11.7619 C.ar    1  UNL1        0.0325
     14 C         -22.7567   -7.1099  -10.7337 C.3     1  UNL1        0.1236
     15 C         -26.5205   -6.4267  -13.9626 C.ar    1  UNL1        0.0015
     16 C         -26.1533   -5.1505  -14.4745 C.ar    1  UNL1        0.0016
     17 C         -27.1191   -4.2918  -15.0323 C.ar    1  UNL1        0.0206
     18 C         -28.4373   -4.7335  -15.0649 C.ar    1  UNL1        0.0985
     19 N         -29.5123   -4.0834  -15.5454 N.ar    1  UNL1       -0.2241
     20 C         -30.5226   -4.9654  -15.3238 C.ar    1  UNL1        0.1750
     21 N         -30.1164   -6.1156  -14.7342 N.ar    1  UNL1       -0.3349
     22 C         -28.7975   -5.9520  -14.5791 C.ar    1  UNL1        0.0757
     23 C         -27.8761   -6.8328  -14.0196 C.ar    1  UNL1        0.0185
     24 H         -30.7006   -6.9380  -14.4647 H       1  UNL1        0.1675
     25 C         -19.3022   -8.9257   -7.6513 C.ar    1  UNL1        0.0503
     26 C         -18.3345   -9.9140   -7.3805 C.ar    1  UNL1        0.0328
     27 C         -17.8593  -10.7509   -8.3975 C.ar    1  UNL1        0.1069
     28 C         -18.3593  -10.6172   -9.6955 C.ar    1  UNL1        0.0186
     29 C         -19.3161   -9.6443   -9.9810 C.ar    1  UNL1        0.0071
     30 C         -19.7980   -8.7988   -8.9713 C.ar    1  UNL1        0.0667
     31 S         -16.6655  -11.9923   -8.0318 S.O2    1  UNL1        0.0105
     32 C         -15.4094  -11.9903   -9.2902 C.3     1  UNL1        0.1816
     33 O         -17.3314  -13.3390   -7.9858 O.2     1  UNL1       -0.1686
     34 O         -16.0362  -11.7197   -6.6943 O.2     1  UNL1       -0.1686
     35 N         -19.8225   -8.0921   -6.5928 N.pl3   1  UNL1       -0.3325
     36 H         -20.5733   -7.4005   -6.8148 H       1  UNL1        0.1468
     37 C         -20.3835   -8.8340   -4.3135 C.3     1  UNL1        0.0229
     38 C         -19.3614   -8.1343   -5.2038 C.3     1  UNL1        0.0871
@<TRIPOS>BOND
     1    37    38    1
     2    38    35    1
     3    35    25    1
     4    25    26   ar
     5    26    27   ar
     6    27    31    1
     7    31    32    1
     8    31    33    2
     9    31    34    2
    10    27    28   ar
    11    28    29   ar
    12    29    30   ar
    13    30     1    1
    14     1     2    2
    15     1     3   am
    16     3     4    1
    17     4     5    1
    18     5     6    1
    19     6     7    1
    20     7     8   ar
    21     8     9    1
    22     8    10   ar
    23    10    11   ar
    24    11    15    1
    25    15    16   ar
    26    16    17   ar
    27    17    18   ar
    28    18    19   ar
    29    19    20   ar
    30    20    21   ar
    31    21    22   ar
    32    22    23   ar
    33    11    12   ar
    34    12    13   ar
    35    13    14    1
    36    30    25   ar
    37    14     3    1
    38    13     7   ar
    39    23    15   ar
    40    22    18   ar
    41    35    36    1
    42    21    24    1
@<TRIPOS>MOLECULE
*****
 38 42 0 0 0
SMALL
GASTEIGER

@<TRIPOS>ATOM
      1 C         -22.7510  -11.3864  -12.6743 C.2     1  UNL1        0.2506
      2 O         -23.6085  -12.2851  -12.8943 O.2     1  UNL1       -0.2699
      3 N         -22.9614  -10.0534  -13.1812 N.am    1  UNL1       -0.2680
      4 C         -21.8265   -9.2775  -13.6931 C.3     1  UNL1        0.1412
      5 C         -21.4285   -8.2002  -12.6861 C.3     1  UNL1        0.2268
      6 O         -22.5532   -7.7471  -11.9355 O.3     1  UNL1       -0.4730
      7 C         -23.7123   -7.2630  -12.5477 C.ar    1  UNL1        0.1466
      8 C         -24.0552   -5.9160  -12.3656 C.ar    1  UNL1        0.0913
      9 CL        -23.0526   -4.8691  -11.3720 Cl      1  UNL1       -0.0791
     10 C         -25.1877   -5.3853  -12.9859 C.ar    1  UNL1        0.0144
     11 C         -26.0079   -6.1947  -13.7858 C.ar    1  UNL1        0.0008
     12 C         -25.6779   -7.5508  -13.9469 C.ar    1  UNL1        0.0005
     13 C         -24.5352   -8.1001  -13.3403 C.ar    1  UNL1        0.0325
     14 C         -24.3328   -9.6020  -13.4587 C.3     1  UNL1        0.1236
     15 C         -27.2149   -5.6282  -14.4392 C.ar    1  UNL1        0.0015
     16 C         -28.5004   -6.1836  -14.1848 C.ar    1  UNL1        0.0016
     17 C         -29.6500   -5.6534  -14.8001 C.ar    1  UNL1        0.0206
     18 C         -29.4847   -4.5733  -15.6603 C.ar    1  UNL1        0.0985
     19 N         -30.4345   -3.9169  -16.3504 N.ar    1  UNL1       -0.2241
     20 C         -29.7232   -2.9698  -17.0172 C.ar    1  UNL1        0.1750
     21 N         -28.3924   -3.0178  -16.7676 N.ar    1  UNL1       -0.3349
     22 C         -28.2603   -4.0351  -15.9086 C.ar    1  UNL1        0.0757
     23 C         -27.0976   -4.5271  -15.3221 C.ar    1  UNL1        0.0185
     24 H         -27.6451   -2.4013  -17.1574 H       1  UNL1        0.1675
     25 C         -21.1652  -10.9465  -10.7588 C.ar    1  UNL1        0.0503
     26 C         -19.9834  -11.2896  -10.0716 C.ar    1  UNL1        0.0328
     27 C         -19.1969  -12.3693  -10.4912 C.ar    1  UNL1        0.1069
     28 C         -19.5934  -13.1278  -11.5958 C.ar    1  UNL1        0.0186
     29 C         -20.7590  -12.8018  -12.2876 C.ar    1  UNL1        0.0071
     30 C         -21.5536  -11.7212  -11.8783 C.ar    1  UNL1        0.0667
     31 S         -17.7356  -12.7923   -9.6049 S.O2    1  UNL1        0.0105
     32 C         -17.1084  -11.3477   -8.7797 C.3     1  UNL1        0.1816
     33 O         -16.6990  -13.3194  -10.5571 O.2     1  UNL1       -0.1686
     34 O         -18.0426  -13.8568   -8.5890 O.2     1  UNL1       -0.1686
     35 N         -21.9975   -9.8594  -10.2992 N.pl3   1  UNL1       -0.3325
     36 H         -21.9920   -8.9582  -10.8276 H       1  UNL1        0.1468
     37 C         -24.3205   -9.7047   -9.4990 C.3     1  UNL1        0.0229
     38 C         -22.8593   -9.9198   -9.1171 C.3     1  UNL1        0.0871
@<TRIPOS>BOND
     1    37    38    1
     2    38    35    1
     3    35    25    1
     4    25    26   ar
     5    26    27   ar
     6    27    31    1
     7    31    32    1
     8    31    33    2
     9    31    34    2
    10    27    28   ar
    11    28    29   ar
    12    29    30   ar
    13    30     1    1
    14     1     2    2
    15     1     3   am
    16     3     4    1
    17     4     5    1
    18     5     6    1
    19     6     7    1
    20     7     8   ar
    21     8     9    1
    22     8    10   ar
    23    10    11   ar
    24    11    15    1
    25    15    16   ar
    26    16    17   ar
    27    17    18   ar
    28    18    19   ar
    29    19    20   ar
    30    20    21   ar
    31    21    22   ar
    32    22    23   ar
    33    11    12   ar
    34    12    13   ar
    35    13    14    1
    36    30    25   ar
    37    14     3    1
    38    13     7   ar
    39    23    15   ar
    40    22    18   ar
    41    35    36    1
    42    21    24    1
@<TRIPOS>MOLECULE
*****
 38 42 0 0 0
SMALL
GASTEIGER

@<TRIPOS>ATOM
      1 C         -24.8518   -6.0759  -12.7598 C.2     1  UNL1        0.2506
      2 O         -24.4656   -5.2973  -11.8456 O.2     1  UNL1       -0.2699
      3 N         -24.0403   -7.2088  -13.1287 N.am    1  UNL1       -0.2680
      4 C         -23.9371   -7.6076  -14.5367 C.3     1  UNL1        0.1412
      5 C         -24.7684   -8.8637  -14.7902 C.3     1  UNL1        0.2268
      6 O         -24.8295   -9.6913  -13.6305 O.3     1  UNL1       -0.4730
      7 C         -23.6809  -10.1411  -12.9740 C.ar    1  UNL1        0.1466
      8 C         -23.4083  -11.5161  -12.9642 C.ar    1  UNL1        0.0913
      9 CL        -24.5026  -12.6459  -13.7483 Cl      1  UNL1       -0.0791
     10 C         -22.2548  -12.0032  -12.3469 C.ar    1  UNL1        0.0144
     11 C         -21.3611  -11.1272  -11.7131 C.ar    1  UNL1        0.0008
     12 C         -21.6481   -9.7521  -11.7009 C.ar    1  UNL1        0.0005
     13 C         -22.7981   -9.2418  -12.3275 C.ar    1  UNL1        0.0325
     14 C         -23.0960   -7.7621  -12.1470 C.3     1  UNL1        0.1236
     15 C         -20.1382  -11.6495  -11.0523 C.ar    1  UNL1        0.0015
     16 C         -19.6875  -12.9741  -11.3130 C.ar    1  UNL1        0.0016
     17 C         -18.5297  -13.4777  -10.6907 C.ar    1  UNL1        0.0206
     18 C         -17.8463  -12.6385   -9.8174 C.ar    1  UNL1        0.0985
     19 N         -16.7293  -12.9098   -9.1189 N.ar    1  UNL1       -0.2241
     20 C         -16.5086  -11.7526   -8.4408 C.ar    1  UNL1        0.1750
     21 N         -17.4331  -10.7944   -8.6915 N.ar    1  UNL1       -0.3349
     22 C         -18.2689  -11.3708   -9.5630 C.ar    1  UNL1        0.0757
     23 C         -19.4073  -10.8321  -10.1559 C.ar    1  UNL1        0.0185
     24 H         -17.4793   -9.8298   -8.2946 H       1  UNL1        0.1675
     25 C         -27.2393   -6.7069  -13.2883 C.ar    1  UNL1        0.0503
     26 C         -28.4322   -6.4269  -13.9847 C.ar    1  UNL1        0.0328
     27 C         -28.5370   -5.2954  -14.8028 C.ar    1  UNL1        0.1069
     28 C         -27.4521   -4.4227  -14.9210 C.ar    1  UNL1        0.0186
     29 C         -26.2643   -4.6850  -14.2399 C.ar    1  UNL1        0.0071
     30 C         -26.1467   -5.8162  -13.4195 C.ar    1  UNL1        0.0667
     31 S         -30.0440   -4.9545  -15.6469 S.O2    1  UNL1        0.0105
     32 C         -30.9916   -3.7787  -14.7084 C.3     1  UNL1        0.1816
     33 O         -30.8330   -6.2234  -15.8097 O.2     1  UNL1       -0.1686
     34 O         -29.7519   -4.3904  -17.0092 O.2     1  UNL1       -0.1686
     35 N         -27.1473   -7.8509  -12.4115 N.pl3   1  UNL1       -0.3325
     36 H         -26.8507   -8.7709  -12.8078 H       1  UNL1        0.1468
     37 C         -26.3782   -8.5487  -10.1795 C.3     1  UNL1        0.0229
     38 C         -27.4551   -7.8234  -10.9803 C.3     1  UNL1        0.0871
@<TRIPOS>BOND
     1    37    38    1
     2    38    35    1
     3    35    25    1
     4    25    26   ar
     5    26    27   ar
     6    27    31    1
     7    31    32    1
     8    31    33    2
     9    31    34    2
    10    27    28   ar
    11    28    29   ar
    12    29    30   ar
    13    30     1    1
    14     1     2    2
    15     1     3   am
    16     3     4    1
    17     4     5    1
    18     5     6    1
    19     6     7    1
    20     7     8   ar
    21     8     9    1
    22     8    10   ar
    23    10    11   ar
    24    11    15    1
    25    15    16   ar
    26    16    17   ar
    27    17    18   ar
    28    18    19   ar
    29    19    20   ar
    30    20    21   ar
    31    21    22   ar
    32    22    23   ar
    33    11    12   ar
    34    12    13   ar
    35    13    14    1
    36    30    25   ar
    37    14     3    1
    38    13     7   ar
    39    23    15   ar
    40    22    18   ar
    41    35    36    1
    42    21    24    1
@<TRIPOS>MOLECULE
*****
 38 42 0 0 0
SMALL
GASTEIGER

@<TRIPOS>ATOM
      1 C         -22.1293  -11.0421  -12.2334 C.2     1  UNL1        0.2506
      2 O         -22.9103  -12.0129  -12.4305 O.2     1  UNL1       -0.2699
      3 N         -22.4409   -9.7465  -12.7834 N.am    1  UNL1       -0.2680
      4 C         -21.3671   -8.8983  -13.3122 C.3     1  UNL1        0.1412
      5 C         -21.0654   -7.7621  -12.3371 C.3     1  UNL1        0.2268
      6 O         -22.2295   -7.3775  -11.6085 O.3     1  UNL1       -0.4730
      7 C         -23.4179   -7.0070  -12.2432 C.ar    1  UNL1        0.1466
      8 C         -23.8689   -5.6868  -12.1058 C.ar    1  UNL1        0.0913
      9 CL        -22.9621   -4.5327  -11.1392 Cl      1  UNL1       -0.0791
     10 C         -25.0346   -5.2679  -12.7498 C.ar    1  UNL1        0.0144
     11 C         -25.7803   -6.1648  -13.5292 C.ar    1  UNL1        0.0008
     12 C         -25.3417   -7.4944  -13.6453 C.ar    1  UNL1        0.0005
     13 C         -24.1642   -7.9314  -13.0143 C.ar    1  UNL1        0.0325
     14 C         -23.8415   -9.4152  -13.0840 C.3     1  UNL1        0.1236
     15 C         -27.0228   -5.7173  -14.2079 C.ar    1  UNL1        0.0015
     16 C         -28.2428   -6.4255  -14.0191 C.ar    1  UNL1        0.0016
     17 C         -29.4253   -6.0088  -14.6589 C.ar    1  UNL1        0.0206
     18 C         -29.3583   -4.8862  -15.4770 C.ar    1  UNL1        0.0985
     19 N         -30.3547   -4.3186  -16.1801 N.ar    1  UNL1       -0.2241
     20 C         -29.7365   -3.2724  -16.7893 C.ar    1  UNL1        0.1750
     21 N         -28.4181   -3.1764  -16.4925 N.ar    1  UNL1       -0.3349
     22 C         -28.1971   -4.2024  -15.6625 C.ar    1  UNL1        0.0757
     23 C         -27.0051   -4.5786  -15.0499 C.ar    1  UNL1        0.0185
     24 H         -27.7351   -2.4644  -16.8343 H       1  UNL1        0.1675
     25 C         -20.1899  -12.4692  -11.4721 C.ar    1  UNL1        0.0503
     26 C         -19.0692  -12.6280  -10.6323 C.ar    1  UNL1        0.0328
     27 C         -18.6832  -11.6110   -9.7507 C.ar    1  UNL1        0.1069
     28 C         -19.4069  -10.4164   -9.7110 C.ar    1  UNL1        0.0186
     29 C         -20.5185  -10.2429  -10.5342 C.ar    1  UNL1        0.0071
     30 C         -20.9162  -11.2551  -11.4195 C.ar    1  UNL1        0.0667
     31 S         -17.2675  -11.8234   -8.7257 S.O2    1  UNL1        0.0105
     32 C         -17.5370  -11.0022   -7.1718 C.3     1  UNL1        0.1816
     33 O         -16.0589  -11.2393   -9.4020 O.2     1  UNL1       -0.1686
     34 O         -17.0247  -13.2869   -8.4842 O.2     1  UNL1       -0.1686
     35 N         -20.5611  -13.5018  -12.4112 N.pl3   1  UNL1       -0.3325
     36 H         -21.1397  -14.3055  -12.0784 H       1  UNL1        0.1468
     37 C         -21.3538  -13.8959  -14.7083 C.3     1  UNL1        0.0229
     38 C         -20.1715  -13.5159  -13.8224 C.3     1  UNL1        0.0871
@<TRIPOS>BOND
     1    37    38    1
     2    38    35    1
     3    35    25    1
     4    25    26   ar
     5    26    27   ar
     6    27    31    1
     7    31    32    1
     8    31    33    2
     9    31    34    2
    10    27    28   ar
    11    28    29   ar
    12    29    30   ar
    13    30     1    1
    14     1     2    2
    15     1     3   am
    16     3     4    1
    17     4     5    1
    18     5     6    1
    19     6     7    1
    20     7     8   ar
    21     8     9    1
    22     8    10   ar
    23    10    11   ar
    24    11    15    1
    25    15    16   ar
    26    16    17   ar
    27    17    18   ar
    28    18    19   ar
    29    19    20   ar
    30    20    21   ar
    31    21    22   ar
    32    22    23   ar
    33    11    12   ar
    34    12    13   ar
    35    13    14    1
    36    30    25   ar
    37    14     3    1
    38    13     7   ar
    39    23    15   ar
    40    22    18   ar
    41    35    36    1
    42    21    24    1
@<TRIPOS>MOLECULE
*****
 38 42 0 0 0
SMALL
GASTEIGER

@<TRIPOS>ATOM
      1 C         -23.2270   -7.6924  -10.6560 C.2     1  UNL1        0.2506
      2 O         -24.2221   -6.9475  -10.4411 O.2     1  UNL1       -0.2699
      3 N         -23.0631   -8.3180  -11.9444 N.am    1  UNL1       -0.2680
      4 C         -22.5407   -9.6861  -12.0326 C.3     1  UNL1        0.1412
      5 C         -21.0905   -9.6657  -12.5114 C.3     1  UNL1        0.2268
      6 O         -20.8419   -8.5582  -13.3748 O.3     1  UNL1       -0.4730
      7 C         -21.6068   -8.3187  -14.5194 C.ar    1  UNL1        0.1466
      8 C         -20.9865   -8.4124  -15.7730 C.ar    1  UNL1        0.0913
      9 CL        -19.2779   -8.8060  -15.8932 Cl      1  UNL1       -0.0791
     10 C         -21.7226   -8.2118  -16.9421 C.ar    1  UNL1        0.0144
     11 C         -23.0882   -7.8971  -16.8798 C.ar    1  UNL1        0.0008
     12 C         -23.7033   -7.7779  -15.6224 C.ar    1  UNL1        0.0005
     13 C         -22.9815   -7.9882  -14.4349 C.ar    1  UNL1        0.0325
     14 C         -23.6945   -7.7054  -13.1224 C.3     1  UNL1        0.1236
     15 C         -23.8666   -7.6785  -18.1253 C.ar    1  UNL1        0.0015
     16 C         -24.5191   -6.4355  -18.3591 C.ar    1  UNL1        0.0016
     17 C         -25.2595   -6.2197  -19.5366 C.ar    1  UNL1        0.0206
     18 C         -25.3294   -7.2592  -20.4577 C.ar    1  UNL1        0.0985
     19 N         -25.9765   -7.2729  -21.6369 N.ar    1  UNL1       -0.2241
     20 C         -25.7139   -8.5195  -22.1109 C.ar    1  UNL1        0.1750
     21 N         -24.9420   -9.2619  -21.2810 N.ar    1  UNL1       -0.3349
     22 C         -24.7082   -8.4502  -20.2433 C.ar    1  UNL1        0.0757
     23 C         -23.9658   -8.7068  -19.0941 C.ar    1  UNL1        0.0185
     24 H         -24.6082  -10.2412  -21.4222 H       1  UNL1        0.1675
     25 C         -22.5804   -8.5178   -8.3586 C.ar    1  UNL1        0.0503
     26 C         -21.6007   -8.6295   -7.3515 C.ar    1  UNL1        0.0328
     27 C         -20.3114   -8.1189   -7.5447 C.ar    1  UNL1        0.1069
     28 C         -19.9838   -7.5034   -8.7557 C.ar    1  UNL1        0.0186
     29 C         -20.9409   -7.3837   -9.7622 C.ar    1  UNL1        0.0071
     30 C         -22.2362   -7.8890   -9.5795 C.ar    1  UNL1        0.0667
     31 S         -19.0977   -8.2882   -6.2805 S.O2    1  UNL1        0.0105
     32 C         -19.9040   -8.6175   -4.7304 C.3     1  UNL1        0.1816
     33 O         -18.2963   -7.0212   -6.1731 O.2     1  UNL1       -0.1686
     34 O         -18.1668   -9.4207   -6.6124 O.2     1  UNL1       -0.1686
     35 N         -23.8967   -9.0828   -8.1742 N.pl3   1  UNL1       -0.3325
     36 H         -24.6298   -8.5141   -7.6940 H       1  UNL1        0.1468
     37 C         -25.7964  -10.5050   -8.8291 C.3     1  UNL1        0.0229
     38 C         -24.2892  -10.4251   -8.6077 C.3     1  UNL1        0.0871
@<TRIPOS>BOND
     1    37    38    1
     2    38    35    1
     3    35    25    1
     4    25    26   ar
     5    26    27   ar
     6    27    31    1
     7    31    32    1
     8    31    33    2
     9    31    34    2
    10    27    28   ar
    11    28    29   ar
    12    29    30   ar
    13    30     1    1
    14     1     2    2
    15     1     3   am
    16     3     4    1
    17     4     5    1
    18     5     6    1
    19     6     7    1
    20     7     8   ar
    21     8     9    1
    22     8    10   ar
    23    10    11   ar
    24    11    15    1
    25    15    16   ar
    26    16    17   ar
    27    17    18   ar
    28    18    19   ar
    29    19    20   ar
    30    20    21   ar
    31    21    22   ar
    32    22    23   ar
    33    11    12   ar
    34    12    13   ar
    35    13    14    1
    36    30    25   ar
    37    14     3    1
    38    13     7   ar
    39    23    15   ar
    40    22    18   ar
    41    35    36    1
    42    21    24    1
@<TRIPOS>MOLECULE
*****
 38 42 0 0 0
SMALL
GASTEIGER

@<TRIPOS>ATOM
      1 C         -21.4166   -7.0103  -10.1548 C.2     1  UNL1        0.2506
      2 O         -21.0391   -5.8072  -10.1936 O.2     1  UNL1       -0.2699
      3 N         -22.7669   -7.3516  -10.5266 N.am    1  UNL1       -0.2680
      4 C         -23.4865   -8.3971   -9.7909 C.3     1  UNL1        0.1412
      5 C         -23.5573   -9.6743  -10.6256 C.3     1  UNL1        0.2268
      6 O         -23.5872   -9.3839  -12.0214 O.3     1  UNL1       -0.4730
      7 C         -24.5368   -8.5275  -12.5848 C.ar    1  UNL1        0.1466
      8 C         -25.4689   -9.0593  -13.4869 C.ar    1  UNL1        0.0913
      9 CL        -25.4259  -10.7647  -13.9089 Cl      1  UNL1       -0.0791
     10 C         -26.4538   -8.2441  -14.0474 C.ar    1  UNL1        0.0144
     11 C         -26.5153   -6.8790  -13.7302 C.ar    1  UNL1        0.0008
     12 C         -25.5650   -6.3415  -12.8460 C.ar    1  UNL1        0.0005
     13 C         -24.5736   -7.1489  -12.2624 C.ar    1  UNL1        0.0325
     14 C         -23.5088   -6.4568  -11.4269 C.3     1  UNL1        0.1236
     15 C         -27.5607   -6.0137  -14.3329 C.ar    1  UNL1        0.0015
     16 C         -27.1981   -4.8496  -15.0671 C.ar    1  UNL1        0.0016
     17 C         -28.1824   -4.0233  -15.6414 C.ar    1  UNL1        0.0206
     18 C         -29.5139   -4.3842  -15.4665 C.ar    1  UNL1        0.0985
     19 N         -30.6070   -3.7461  -15.9220 N.ar    1  UNL1       -0.2241
     20 C         -31.6234   -4.5237  -15.4638 C.ar    1  UNL1        0.1750
     21 N         -31.2038   -5.5992  -14.7547 N.ar    1  UNL1       -0.3349
     22 C         -29.8699   -5.4955  -14.7674 C.ar    1  UNL1        0.0757
     23 C         -28.9306   -6.3406  -14.1833 C.ar    1  UNL1        0.0185
     24 H         -31.7893   -6.3370  -14.3038 H       1  UNL1        0.1675
     25 C         -20.0760   -9.0996  -10.6183 C.ar    1  UNL1        0.0503
     26 C         -19.1875  -10.0882  -10.1496 C.ar    1  UNL1        0.0328
     27 C         -18.6900  -10.0441   -8.8415 C.ar    1  UNL1        0.1069
     28 C         -19.0652   -9.0000   -7.9921 C.ar    1  UNL1        0.0186
     29 C         -19.9439   -8.0143   -8.4391 C.ar    1  UNL1        0.0071
     30 C         -20.4506   -8.0491   -9.7463 C.ar    1  UNL1        0.0667
     31 S         -17.5649  -11.2784   -8.2843 S.O2    1  UNL1        0.0105
     32 C         -17.3238  -11.1071   -6.5310 C.3     1  UNL1        0.1816
     33 O         -16.2483  -11.1221   -8.9922 O.2     1  UNL1       -0.1686
     34 O         -18.1142  -12.6451   -8.5839 O.2     1  UNL1       -0.1686
     35 N         -20.5544   -9.1229  -11.9808 N.pl3   1  UNL1       -0.3325
     36 H         -21.0432   -9.9768  -12.3320 H       1  UNL1        0.1468
     37 C         -21.2391   -8.2570  -14.1812 C.3     1  UNL1        0.0229
     38 C         -20.3942   -8.0223  -12.9331 C.3     1  UNL1        0.0871
@<TRIPOS>BOND
     1    37    38    1
     2    38    35    1
     3    35    25    1
     4    25    26   ar
     5    26    27   ar
     6    27    31    1
     7    31    32    1
     8    31    33    2
     9    31    34    2
    10    27    28   ar
    11    28    29   ar
    12    29    30   ar
    13    30     1    1
    14     1     2    2
    15     1     3   am
    16     3     4    1
    17     4     5    1
    18     5     6    1
    19     6     7    1
    20     7     8   ar
    21     8     9    1
    22     8    10   ar
    23    10    11   ar
    24    11    15    1
    25    15    16   ar
    26    16    17   ar
    27    17    18   ar
    28    18    19   ar
    29    19    20   ar
    30    20    21   ar
    31    21    22   ar
    32    22    23   ar
    33    11    12   ar
    34    12    13   ar
    35    13    14    1
    36    30    25   ar
    37    14     3    1
    38    13     7   ar
    39    23    15   ar
    40    22    18   ar
    41    35    36    1
    42    21    24    1
@<TRIPOS>MOLECULE
*****
 38 42 0 0 0
SMALL
GASTEIGER

@<TRIPOS>ATOM
      1 C         -22.3839   -6.6711  -10.4004 C.2     1  UNL1        0.2506
      2 O         -22.2744   -5.9645   -9.3612 O.2     1  UNL1       -0.2699
      3 N         -21.3297   -7.5856  -10.7615 N.am    1  UNL1       -0.2680
      4 C         -20.9728   -7.7707  -12.1724 C.3     1  UNL1        0.1412
      5 C         -21.5082   -9.1083  -12.6796 C.3     1  UNL1        0.2268
      6 O         -21.5570  -10.0796  -11.6365 O.3     1  UNL1       -0.4730
      7 C         -20.4369  -10.4040  -10.8666 C.ar    1  UNL1        0.1466
      8 C         -19.9089  -11.6991  -10.9621 C.ar    1  UNL1        0.0913
      9 CL        -20.6567  -12.8894  -12.0169 Cl      1  UNL1       -0.0791
     10 C         -18.7719  -12.0538  -10.2339 C.ar    1  UNL1        0.0144
     11 C         -18.1514  -11.1263   -9.3839 C.ar    1  UNL1        0.0008
     12 C         -18.6962   -9.8365   -9.2690 C.ar    1  UNL1        0.0005
     13 C         -19.8331   -9.4573  -10.0034 C.ar    1  UNL1        0.0325
     14 C         -20.4300   -8.0896   -9.7136 C.3     1  UNL1        0.1236
     15 C         -16.9457  -11.5090   -8.6063 C.ar    1  UNL1        0.0015
     16 C         -15.8629  -12.1817   -9.2393 C.ar    1  UNL1        0.0016
     17 C         -14.7163  -12.5487   -8.5099 C.ar    1  UNL1        0.0206
     18 C         -14.6803  -12.2315   -7.1565 C.ar    1  UNL1        0.0985
     19 N         -13.6954  -12.4863   -6.2765 N.ar    1  UNL1       -0.2241
     20 C         -14.1837  -11.9684   -5.1184 C.ar    1  UNL1        0.1750
     21 N         -15.4125  -11.4133   -5.2503 N.ar    1  UNL1       -0.3349
     22 C         -15.7098  -11.5877   -6.5432 C.ar    1  UNL1        0.0757
     23 C         -16.8617  -11.2061   -7.2253 C.ar    1  UNL1        0.0185
     24 H         -15.9911  -10.9557   -4.5113 H       1  UNL1        0.1675
     25 C         -24.4381   -7.6764  -11.4716 C.ar    1  UNL1        0.0503
     26 C         -25.5668   -7.5114  -12.2993 C.ar    1  UNL1        0.0328
     27 C         -25.8621   -6.2679  -12.8710 C.ar    1  UNL1        0.1069
     28 C         -25.0378   -5.1707  -12.6076 C.ar    1  UNL1        0.0186
     29 C         -23.9167   -5.3164  -11.7918 C.ar    1  UNL1        0.0071
     30 C         -23.6094   -6.5574  -11.2156 C.ar    1  UNL1        0.0667
     31 S         -27.2890   -6.0803  -13.8850 S.O2    1  UNL1        0.0105
     32 C         -28.2971   -7.5395  -13.7588 C.3     1  UNL1        0.1816
     33 O         -26.8726   -5.8769  -15.3148 O.2     1  UNL1       -0.1686
     34 O         -28.0810   -4.8833  -13.4387 O.2     1  UNL1       -0.1686
     35 N         -24.1590   -8.9491  -10.8484 N.pl3   1  UNL1       -0.3325
     36 H         -23.5061   -9.6131  -11.3219 H       1  UNL1        0.1468
     37 C         -23.6690   -9.9739   -8.6644 C.3     1  UNL1        0.0229
     38 C         -24.7419   -9.3957   -9.5818 C.3     1  UNL1        0.0871
@<TRIPOS>BOND
     1    37    38    1
     2    38    35    1
     3    35    25    1
     4    25    26   ar
     5    26    27   ar
     6    27    31    1
     7    31    32    1
     8    31    33    2
     9    31    34    2
    10    27    28   ar
    11    28    29   ar
    12    29    30   ar
    13    30     1    1
    14     1     2    2
    15     1     3   am
    16     3     4    1
    17     4     5    1
    18     5     6    1
    19     6     7    1
    20     7     8   ar
    21     8     9    1
    22     8    10   ar
    23    10    11   ar
    24    11    15    1
    25    15    16   ar
    26    16    17   ar
    27    17    18   ar
    28    18    19   ar
    29    19    20   ar
    30    20    21   ar
    31    21    22   ar
    32    22    23   ar
    33    11    12   ar
    34    12    13   ar
    35    13    14    1
    36    30    25   ar
    37    14     3    1
    38    13     7   ar
    39    23    15   ar
    40    22    18   ar
    41    35    36    1
    42    21    24    1
@<TRIPOS>MOLECULE
*****
 38 42 0 0 0
SMALL
GASTEIGER

@<TRIPOS>ATOM
      1 C         -23.4942   -7.8237  -10.6877 C.2     1  UNL1        0.2506
      2 O         -24.5736   -7.2004  -10.4943 O.2     1  UNL1       -0.2699
      3 N         -23.2197   -8.4009  -11.9799 N.am    1  UNL1       -0.2680
      4 C         -22.5428   -9.6992  -12.0727 C.3     1  UNL1        0.1412
      5 C         -21.0898   -9.5056  -12.5020 C.3     1  UNL1        0.2268
      6 O         -20.9415   -8.3601  -13.3384 O.3     1  UNL1       -0.4730
      7 C         -21.6922   -8.1856  -14.5041 C.ar    1  UNL1        0.1466
      8 C         -21.0259   -8.1837  -15.7375 C.ar    1  UNL1        0.0913
      9 CL        -19.2807   -8.3792  -15.8065 Cl      1  UNL1       -0.0791
     10 C         -21.7427   -8.0441  -16.9273 C.ar    1  UNL1        0.0144
     11 C         -23.1365   -7.8870  -16.9058 C.ar    1  UNL1        0.0008
     12 C         -23.8006   -7.8632  -15.6681 C.ar    1  UNL1        0.0005
     13 C         -23.0974   -8.0143  -14.4605 C.ar    1  UNL1        0.0325
     14 C         -23.8790   -7.8401  -13.1683 C.3     1  UNL1        0.1236
     15 C         -23.8950   -7.7329  -18.1730 C.ar    1  UNL1        0.0015
     16 C         -24.5793   -6.5187  -18.4608 C.ar    1  UNL1        0.0016
     17 C         -25.3012   -6.3640  -19.6593 C.ar    1  UNL1        0.0206
     18 C         -25.3208   -7.4345  -20.5466 C.ar    1  UNL1        0.0985
     19 N         -25.9425   -7.5063  -21.7373 N.ar    1  UNL1       -0.2241
     20 C         -25.6329   -8.7591  -22.1645 C.ar    1  UNL1        0.1750
     21 N         -24.8566   -9.4501  -21.2954 N.ar    1  UNL1       -0.3349
     22 C         -24.6688   -8.5984  -20.2807 C.ar    1  UNL1        0.0757
     23 C         -23.9432   -8.7947  -19.1091 C.ar    1  UNL1        0.0185
     24 H         -24.4909  -10.4228  -21.3973 H       1  UNL1        0.1675
     25 C         -21.2659   -7.2772   -9.6324 C.ar    1  UNL1        0.0503
     26 C         -20.3625   -7.4586   -8.5659 C.ar    1  UNL1        0.0328
     27 C         -20.6910   -8.2770   -7.4783 C.ar    1  UNL1        0.1069
     28 C         -21.9353   -8.9116   -7.4393 C.ar    1  UNL1        0.0186
     29 C         -22.8406   -8.7438   -8.4862 C.ar    1  UNL1        0.0071
     30 C         -22.5219   -7.9286   -9.5818 C.ar    1  UNL1        0.0667
     31 S         -19.5550   -8.4724   -6.1474 S.O2    1  UNL1        0.0105
     32 C         -18.3454   -9.7012   -6.5813 C.3     1  UNL1        0.1816
     33 O         -20.2917   -8.9043   -4.9105 O.2     1  UNL1       -0.1686
     34 O         -18.8654   -7.1667   -5.8666 O.2     1  UNL1       -0.1686
     35 N         -20.9429   -6.3990  -10.7325 N.pl3   1  UNL1       -0.3325
     36 H         -20.5399   -6.8073  -11.6057 H       1  UNL1        0.1468
     37 C         -22.4645   -4.5638  -11.3464 C.3     1  UNL1        0.0229
     38 C         -21.1299   -4.9470  -10.7147 C.3     1  UNL1        0.0871
@<TRIPOS>BOND
     1    37    38    1
     2    38    35    1
     3    35    25    1
     4    25    26   ar
     5    26    27   ar
     6    27    31    1
     7    31    32    1
     8    31    33    2
     9    31    34    2
    10    27    28   ar
    11    28    29   ar
    12    29    30   ar
    13    30     1    1
    14     1     2    2
    15     1     3   am
    16     3     4    1
    17     4     5    1
    18     5     6    1
    19     6     7    1
    20     7     8   ar
    21     8     9    1
    22     8    10   ar
    23    10    11   ar
    24    11    15    1
    25    15    16   ar
    26    16    17   ar
    27    17    18   ar
    28    18    19   ar
    29    19    20   ar
    30    20    21   ar
    31    21    22   ar
    32    22    23   ar
    33    11    12   ar
    34    12    13   ar
    35    13    14    1
    36    30    25   ar
    37    14     3    1
    38    13     7   ar
    39    23    15   ar
    40    22    18   ar
    41    35    36    1
    42    21    24    1
@<TRIPOS>MOLECULE
*****
 38 42 0 0 0
SMALL
GASTEIGER

@<TRIPOS>ATOM
      1 C         -21.0125   -8.1132  -12.8472 C.2     1  UNL1        0.2506
      2 O         -20.5968   -8.0496  -14.0365 O.2     1  UNL1       -0.2699
      3 N         -22.2302   -7.4375  -12.4749 N.am    1  UNL1       -0.2680
      4 C         -22.3333   -6.7832  -11.1659 C.3     1  UNL1        0.1412
      5 C         -23.2010   -7.6186  -10.2268 C.3     1  UNL1        0.2268
      6 O         -24.1993   -8.3413  -10.9442 O.3     1  UNL1       -0.4730
      7 C         -25.0993   -7.7120  -11.8083 C.ar    1  UNL1        0.1466
      8 C         -26.4623   -7.7213  -11.4809 C.ar    1  UNL1        0.0913
      9 CL        -27.0216   -8.5253  -10.0217 Cl      1  UNL1       -0.0791
     10 C         -27.3902   -7.0766  -12.3010 C.ar    1  UNL1        0.0144
     11 C         -26.9754   -6.4253  -13.4721 C.ar    1  UNL1        0.0008
     12 C         -25.6126   -6.4384  -13.8130 C.ar    1  UNL1        0.0005
     13 C         -24.6623   -7.0717  -12.9936 C.ar    1  UNL1        0.0325
     14 C         -23.2347   -7.1517  -13.5098 C.3     1  UNL1        0.1236
     15 C         -27.9659   -5.7457  -14.3450 C.ar    1  UNL1        0.0015
     16 C         -29.3252   -6.1672  -14.3575 C.ar    1  UNL1        0.0016
     17 C         -30.2708   -5.5292  -15.1822 C.ar    1  UNL1        0.0206
     18 C         -29.8308   -4.4780  -15.9792 C.ar    1  UNL1        0.0985
     19 N         -30.5542   -3.7351  -16.8361 N.ar    1  UNL1       -0.2241
     20 C         -29.6336   -2.8695  -17.3369 C.ar    1  UNL1        0.1750
     21 N         -28.3905   -3.0488  -16.8288 N.ar    1  UNL1       -0.3349
     22 C         -28.5340   -4.0674  -15.9731 C.ar    1  UNL1        0.0757
     23 C         -27.5661   -4.6689  -15.1737 C.ar    1  UNL1        0.0185
     24 H         -27.5229   -2.5136  -17.0550 H       1  UNL1        0.1675
     25 C         -20.5245  -10.2707  -11.6287 C.ar    1  UNL1        0.0503
     26 C         -19.7887  -10.9547  -10.6401 C.ar    1  UNL1        0.0328
     27 C         -18.8058  -10.2953   -9.8921 C.ar    1  UNL1        0.1069
     28 C         -18.5379   -8.9458  -10.1364 C.ar    1  UNL1        0.0186
     29 C         -19.2568   -8.2537  -11.1099 C.ar    1  UNL1        0.0071
     30 C         -20.2452   -8.9028  -11.8637 C.ar    1  UNL1        0.0667
     31 S         -17.8848  -11.1753   -8.6766 S.O2    1  UNL1        0.0105
     32 C         -18.1182  -10.4067   -7.0904 C.3     1  UNL1        0.1816
     33 O         -16.4253  -11.1589   -9.0353 O.2     1  UNL1       -0.1686
     34 O         -18.3503  -12.6032   -8.6156 O.2     1  UNL1       -0.1686
     35 N         -21.5079  -10.9628  -12.4285 N.pl3   1  UNL1       -0.3325
     36 H         -21.2424  -11.2951  -13.3828 H       1  UNL1        0.1468
     37 C         -23.8547  -11.0671  -13.1645 C.3     1  UNL1        0.0229
     38 C         -22.8822  -11.2313  -12.0008 C.3     1  UNL1        0.0871
@<TRIPOS>BOND
     1    37    38    1
     2    38    35    1
     3    35    25    1
     4    25    26   ar
     5    26    27   ar
     6    27    31    1
     7    31    32    1
     8    31    33    2
     9    31    34    2
    10    27    28   ar
    11    28    29   ar
    12    29    30   ar
    13    30     1    1
    14     1     2    2
    15     1     3   am
    16     3     4    1
    17     4     5    1
    18     5     6    1
    19     6     7    1
    20     7     8   ar
    21     8     9    1
    22     8    10   ar
    23    10    11   ar
    24    11    15    1
    25    15    16   ar
    26    16    17   ar
    27    17    18   ar
    28    18    19   ar
    29    19    20   ar
    30    20    21   ar
    31    21    22   ar
    32    22    23   ar
    33    11    12   ar
    34    12    13   ar
    35    13    14    1
    36    30    25   ar
    37    14     3    1
    38    13     7   ar
    39    23    15   ar
    40    22    18   ar
    41    35    36    1
    42    21    24    1
