@<TRIPOS>MOLECULE
*****
 44 50 0 0 0
SMALL
GASTEIGER

@<TRIPOS>ATOM
      1 C          -9.7630   -5.3097   30.8310 C.3     1  UNL1        0.1158
      2 N          -8.6719   -4.9023   31.5297 N.3     1  UNL1       -0.2851
      3 C          -7.9138   -6.0060   31.5929 C.3     1  UNL1        0.0910
      4 C          -6.6938   -6.1423   32.2355 C.3     1  UNL1        0.1018
      5 C          -6.0922   -7.4082   32.2139 C.3     1  UNL1        0.3136
      6 N          -6.6996   -8.4737   31.5854 N.am    1  UNL1       -0.1293
      7 C          -7.9178   -8.3172   30.9565 C.2     1  UNL1        0.4047
      8 O          -8.4844   -9.3010   30.4116 O.2     1  UNL1       -0.2174
      9 C          -8.5155   -7.0451   30.9531 C.3     1  UNL1        0.2038
     10 N          -9.6876   -6.6173   30.4261 N.3     1  UNL1       -0.2473
     11 H          -8.9336   -4.5852   32.4631 H       1  UNL1        0.1244
     12 C         -10.6801   -7.4122   29.6710 C.3     1  UNL1        0.0817
     13 C         -10.0721   -8.0160   28.3852 C.3     1  UNL1        0.0252
     14 C         -10.3922   -9.5238   28.3953 C.3     1  UNL1        0.0278
     15 C         -11.0184   -9.7528   29.7192 C.ar    1  UNL1       -0.0248
     16 C         -11.4188  -10.9800   30.2491 C.ar    1  UNL1       -0.0045
     17 C         -11.9918  -11.0147   31.5369 C.ar    1  UNL1       -0.0002
     18 C         -12.1871   -9.8073   32.2438 C.ar    1  UNL1       -0.0003
     19 C         -11.7805   -8.5862   31.6871 C.ar    1  UNL1       -0.0033
     20 C         -11.1746   -8.5895   30.4285 C.ar    1  UNL1       -0.0117
     21 C         -12.3996  -12.3052   32.1375 C.ar    1  UNL1        0.0030
     22 C         -13.6650  -12.8235   31.8120 C.ar    1  UNL1        0.0006
     23 C         -14.0586  -14.0809   32.2718 C.ar    1  UNL1        0.0067
     24 C         -13.1929  -14.8409   33.0583 C.ar    1  UNL1        0.0347
     25 BR        -13.7310  -16.5667   33.6748 Br      1  UNL1       -0.0490
     26 C         -11.9369  -14.3360   33.4032 C.ar    1  UNL1        0.0098
     27 C         -11.5320  -13.0616   32.9697 C.ar    1  UNL1        0.0376
     28 C         -10.2218  -12.5472   33.4318 C.ar    1  UNL1        0.1806
     29 N          -9.8041  -12.5742   34.7118 N.ar    1  UNL1       -0.1084
     30 N          -8.6177  -11.9824   34.6986 N.ar    1  UNL1       -0.0229
     31 N          -8.3194  -11.5945   33.4679 N.ar    1  UNL1       -0.0464
     32 N          -9.3080  -11.9330   32.6609 N.ar    1  UNL1       -0.2388
     33 H          -9.3547  -11.7121   31.6424 H       1  UNL1        0.1923
     34 C         -10.6814   -3.5649   29.2496 C.3     1  UNL1        0.0029
     35 C         -10.9086   -4.3749   30.5240 C.3     1  UNL1        0.0326
     36 C          -6.0459   -9.7933   31.6317 C.3     1  UNL1        0.3404
     37 C          -5.4810  -10.1540   30.2733 C.ar    1  UNL1        0.0640
     38 C          -4.2866   -9.5378   29.8583 C.ar    1  UNL1        0.0031
     39 C          -3.7144   -9.8517   28.6237 C.ar    1  UNL1       -0.0001
     40 C          -4.3264  -10.7831   27.7855 C.ar    1  UNL1        0.0007
     41 C          -5.5148  -11.4019   28.1774 C.ar    1  UNL1        0.0102
     42 C          -6.1006  -11.0960   29.4145 C.ar    1  UNL1        0.0710
     43 C          -7.3359  -11.7544   29.7662 C.1     1  UNL1        0.1003
     44 N          -8.3267  -12.2823   30.0470 N.1     1  UNL1       -0.1908
@<TRIPOS>BOND
     1    34    35    1
     2    35     1    1
     3     1     2    1
     4     2     3    1
     5     3     4    1
     6     4     5    1
     7     5     6    1
     8     6    36    1
     9    36    37    1
    10    37    38   ar
    11    38    39   ar
    12    39    40   ar
    13    40    41   ar
    14    41    42   ar
    15    42    43    1
    16    43    44    3
    17     6     7    1
    18     7     8    2
    19     7     9    1
    20     9    10    1
    21    10    12    1
    22    12    13    1
    23    13    14    1
    24    14    15    1
    25    15    16   ar
    26    16    17   ar
    27    17    21    1
    28    21    22   ar
    29    22    23   ar
    30    23    24   ar
    31    24    25    1
    32    24    26   ar
    33    26    27   ar
    34    27    28    1
    35    28    29   ar
    36    29    30   ar
    37    30    31   ar
    38    31    32   ar
    39    17    18   ar
    40    18    19   ar
    41    19    20   ar
    42    10     1    1
    43    20    12    1
    44     9     3    1
    45    20    15   ar
    46    42    37   ar
    47    27    21   ar
    48    32    28   ar
    49    32    33    1
    50     2    11    1
@<TRIPOS>MOLECULE
*****
 44 50 0 0 0
SMALL
GASTEIGER

@<TRIPOS>ATOM
      1 C          -8.9839   -5.0751   30.1958 C.3     1  UNL1        0.1158
      2 N          -7.8359   -4.7507   30.8451 N.3     1  UNL1       -0.2851
      3 C          -7.3123   -5.9427   31.1642 C.3     1  UNL1        0.0910
      4 C          -6.1458   -6.1761   31.8745 C.3     1  UNL1        0.1018
      5 C          -5.8072   -7.5109   32.1366 C.3     1  UNL1        0.3136
      6 N          -6.6120   -8.5455   31.7107 N.am    1  UNL1       -0.1293
      7 C          -7.7728   -8.2901   31.0097 C.2     1  UNL1        0.4047
      8 O          -8.5214   -9.2370   30.6508 O.2     1  UNL1       -0.2174
      9 C          -8.1061   -6.9553   30.7222 C.3     1  UNL1        0.2038
     10 N          -9.1681   -6.4276   30.0679 N.3     1  UNL1       -0.2473
     11 H          -8.0326   -4.2024   31.6824 H       1  UNL1        0.1244
     12 C         -10.2961   -7.1545   29.4462 C.3     1  UNL1        0.0817
     13 C          -9.8703   -7.8663   28.1427 C.3     1  UNL1        0.0252
     14 C         -10.3245   -9.3349   28.2571 C.3     1  UNL1        0.0278
     15 C         -10.8410   -9.4479   29.6419 C.ar    1  UNL1       -0.0248
     16 C         -11.3000  -10.6081   30.2666 C.ar    1  UNL1       -0.0045
     17 C         -11.7494  -10.5345   31.6009 C.ar    1  UNL1       -0.0002
     18 C         -11.7657   -9.2858   32.2612 C.ar    1  UNL1       -0.0003
     19 C         -11.3037   -8.1333   31.6097 C.ar    1  UNL1       -0.0033
     20 C         -10.8224   -8.2466   30.3033 C.ar    1  UNL1       -0.0117
     21 C         -12.2150  -11.7542   32.2998 C.ar    1  UNL1        0.0030
     22 C         -13.4284  -12.3355   31.8928 C.ar    1  UNL1        0.0006
     23 C         -13.8633  -13.5384   32.4506 C.ar    1  UNL1        0.0067
     24 C         -13.0908  -14.1808   33.4182 C.ar    1  UNL1        0.0347
     25 BR        -13.6839  -15.8337   34.1695 Br      1  UNL1       -0.0490
     26 C         -11.8890  -13.6107   33.8448 C.ar    1  UNL1        0.0098
     27 C         -11.4461  -12.3875   33.3123 C.ar    1  UNL1        0.0376
     28 C         -10.2045  -11.7930   33.8596 C.ar    1  UNL1        0.1806
     29 N          -9.9297  -10.4747   33.8595 N.ar    1  UNL1       -0.1084
     30 N          -8.7182  -10.3761   34.3891 N.ar    1  UNL1       -0.0229
     31 N          -8.2575  -11.5804   34.6919 N.ar    1  UNL1       -0.0464
     32 N          -9.1668  -12.4807   34.3665 N.ar    1  UNL1       -0.2388
     33 H          -9.0498  -13.5133   34.4585 H       1  UNL1        0.1923
     34 C         -11.3599   -4.2159   30.1253 C.3     1  UNL1        0.0029
     35 C          -9.9202   -4.0208   29.6552 C.3     1  UNL1        0.0326
     36 C          -6.2333   -9.9278   32.0523 C.3     1  UNL1        0.3404
     37 C          -6.8151  -10.9013   31.0482 C.ar    1  UNL1        0.0640
     38 C          -8.0420  -11.5208   31.3476 C.ar    1  UNL1        0.0031
     39 C          -8.6301  -12.4102   30.4457 C.ar    1  UNL1       -0.0001
     40 C          -8.0018  -12.6950   29.2338 C.ar    1  UNL1        0.0007
     41 C          -6.7814  -12.0940   28.9204 C.ar    1  UNL1        0.0102
     42 C          -6.1795  -11.1990   29.8169 C.ar    1  UNL1        0.0710
     43 C          -4.9117  -10.6149   29.4501 C.1     1  UNL1        0.1003
     44 N          -3.8949  -10.1462   29.1573 N.1     1  UNL1       -0.1908
@<TRIPOS>BOND
     1    34    35    1
     2    35     1    1
     3     1     2    1
     4     2     3    1
     5     3     4    1
     6     4     5    1
     7     5     6    1
     8     6    36    1
     9    36    37    1
    10    37    38   ar
    11    38    39   ar
    12    39    40   ar
    13    40    41   ar
    14    41    42   ar
    15    42    43    1
    16    43    44    3
    17     6     7    1
    18     7     8    2
    19     7     9    1
    20     9    10    1
    21    10    12    1
    22    12    13    1
    23    13    14    1
    24    14    15    1
    25    15    16   ar
    26    16    17   ar
    27    17    21    1
    28    21    22   ar
    29    22    23   ar
    30    23    24   ar
    31    24    25    1
    32    24    26   ar
    33    26    27   ar
    34    27    28    1
    35    28    29   ar
    36    29    30   ar
    37    30    31   ar
    38    31    32   ar
    39    17    18   ar
    40    18    19   ar
    41    19    20   ar
    42    10     1    1
    43    20    12    1
    44     9     3    1
    45    20    15   ar
    46    42    37   ar
    47    27    21   ar
    48    32    28   ar
    49    32    33    1
    50     2    11    1
@<TRIPOS>MOLECULE
*****
 44 50 0 0 0
SMALL
GASTEIGER

@<TRIPOS>ATOM
      1 C          -5.0649   -9.8866   31.0504 C.3     1  UNL1        0.1158
      2 N          -4.5225   -8.8926   31.8004 N.3     1  UNL1       -0.2851
      3 C          -5.3630   -7.8659   31.6097 C.3     1  UNL1        0.0910
      4 C          -5.2460   -6.5868   32.1293 C.3     1  UNL1        0.1018
      5 C          -6.2213   -5.6499   31.7606 C.3     1  UNL1        0.3136
      6 N          -7.2481   -5.9908   30.9067 N.am    1  UNL1       -0.1293
      7 C          -7.3422   -7.2692   30.3960 C.2     1  UNL1        0.4047
      8 O          -8.2635   -7.5671   29.5908 O.2     1  UNL1       -0.2174
      9 C          -6.3817   -8.2205   30.7805 C.3     1  UNL1        0.2038
     10 N          -6.2335   -9.5213   30.4337 N.3     1  UNL1       -0.2473
     11 H          -3.5837   -8.6610   31.4757 H       1  UNL1        0.1244
     12 C          -7.0925  -10.3171   29.5302 C.3     1  UNL1        0.0817
     13 C          -6.3636  -11.5751   29.0073 C.3     1  UNL1        0.0252
     14 C          -7.2866  -12.7802   29.2761 C.3     1  UNL1        0.0278
     15 C          -8.4093  -12.2098   30.0581 C.ar    1  UNL1       -0.0248
     16 C          -9.4767  -12.9140   30.6165 C.ar    1  UNL1       -0.0045
     17 C         -10.4571  -12.2074   31.3426 C.ar    1  UNL1       -0.0002
     18 C         -10.3623  -10.8023   31.4536 C.ar    1  UNL1       -0.0003
     19 C          -9.2821  -10.1172   30.8790 C.ar    1  UNL1       -0.0033
     20 C          -8.3029  -10.8503   30.2046 C.ar    1  UNL1       -0.0117
     21 C         -11.5859  -12.9309   31.9713 C.ar    1  UNL1        0.0030
     22 C         -12.7357  -13.1746   31.2003 C.ar    1  UNL1        0.0006
     23 C         -13.7870  -13.9363   31.7120 C.ar    1  UNL1        0.0067
     24 C         -13.7034  -14.4700   32.9980 C.ar    1  UNL1        0.0347
     25 BR        -15.1394  -15.5225   33.6893 Br      1  UNL1       -0.0490
     26 C         -12.5742  -14.2265   33.7836 C.ar    1  UNL1        0.0098
     27 C         -11.5155  -13.4416   33.2948 C.ar    1  UNL1        0.0376
     28 C         -10.3801  -13.1527   34.2014 C.ar    1  UNL1        0.1806
     29 N         -10.1141  -13.8404   35.3283 N.ar    1  UNL1       -0.1084
     30 N          -9.0589  -13.2373   35.8580 N.ar    1  UNL1       -0.0229
     31 N          -8.6952  -12.2137   35.1002 N.ar    1  UNL1       -0.0464
     32 N          -9.5081  -12.1393   34.0626 N.ar    1  UNL1       -0.2388
     33 H          -9.4762  -11.4011   33.3260 H       1  UNL1        0.1923
     34 C          -3.9687  -11.7808   32.3148 C.3     1  UNL1        0.0029
     35 C          -4.4299  -11.2536   30.9579 C.3     1  UNL1        0.0326
     36 C          -8.2207   -4.9555   30.5155 C.3     1  UNL1        0.3404
     37 C          -9.6368   -5.4610   30.6987 C.ar    1  UNL1        0.0640
     38 C          -9.8557   -6.5418   31.5719 C.ar    1  UNL1        0.0031
     39 C         -11.1451   -7.0314   31.7907 C.ar    1  UNL1       -0.0001
     40 C         -12.2335   -6.4509   31.1403 C.ar    1  UNL1        0.0007
     41 C         -12.0363   -5.3805   30.2661 C.ar    1  UNL1        0.0102
     42 C         -10.7468   -4.8789   30.0370 C.ar    1  UNL1        0.0710
     43 C         -10.5962   -3.7793   29.1143 C.1     1  UNL1        0.1003
     44 N         -10.4759   -2.8983   28.3735 N.1     1  UNL1       -0.1908
@<TRIPOS>BOND
     1    34    35    1
     2    35     1    1
     3     1     2    1
     4     2     3    1
     5     3     4    1
     6     4     5    1
     7     5     6    1
     8     6    36    1
     9    36    37    1
    10    37    38   ar
    11    38    39   ar
    12    39    40   ar
    13    40    41   ar
    14    41    42   ar
    15    42    43    1
    16    43    44    3
    17     6     7    1
    18     7     8    2
    19     7     9    1
    20     9    10    1
    21    10    12    1
    22    12    13    1
    23    13    14    1
    24    14    15    1
    25    15    16   ar
    26    16    17   ar
    27    17    21    1
    28    21    22   ar
    29    22    23   ar
    30    23    24   ar
    31    24    25    1
    32    24    26   ar
    33    26    27   ar
    34    27    28    1
    35    28    29   ar
    36    29    30   ar
    37    30    31   ar
    38    31    32   ar
    39    17    18   ar
    40    18    19   ar
    41    19    20   ar
    42    10     1    1
    43    20    12    1
    44     9     3    1
    45    20    15   ar
    46    42    37   ar
    47    27    21   ar
    48    32    28   ar
    49    32    33    1
    50     2    11    1
@<TRIPOS>MOLECULE
*****
 44 50 0 0 0
SMALL
GASTEIGER

@<TRIPOS>ATOM
      1 C         -10.1387   -5.5410   31.0080 C.3     1  UNL1        0.1158
      2 N          -9.1345   -4.8726   31.6322 N.3     1  UNL1       -0.2851
      3 C          -8.0324   -5.5191   31.2267 C.3     1  UNL1        0.0910
      4 C          -6.7259   -5.2554   31.6054 C.3     1  UNL1        0.1018
      5 C          -5.7250   -6.0915   31.0916 C.3     1  UNL1        0.3136
      6 N          -6.0352   -7.1390   30.2514 N.am    1  UNL1       -0.1293
      7 C          -7.3441   -7.3874   29.8918 C.2     1  UNL1        0.4047
      8 O          -7.6261   -8.3651   29.1499 O.2     1  UNL1       -0.2174
      9 C          -8.3505   -6.5384   30.3836 C.3     1  UNL1        0.2038
     10 N          -9.6922   -6.5539   30.1994 N.3     1  UNL1       -0.2473
     11 H          -9.2361   -4.9247   32.6458 H       1  UNL1        0.1244
     12 C         -10.4794   -7.5039   29.3838 C.3     1  UNL1        0.0817
     13 C          -9.6116   -8.1877   28.3036 C.3     1  UNL1        0.0252
     14 C          -9.8328   -9.7074   28.4373 C.3     1  UNL1        0.0278
     15 C         -10.6730   -9.8463   29.6505 C.ar    1  UNL1       -0.0248
     16 C         -11.0848  -11.0394   30.2452 C.ar    1  UNL1       -0.0045
     17 C         -11.8784  -10.9852   31.4093 C.ar    1  UNL1       -0.0002
     18 C         -12.2742   -9.7303   31.9232 C.ar    1  UNL1       -0.0003
     19 C         -11.8510   -8.5454   31.3041 C.ar    1  UNL1       -0.0033
     20 C         -11.0280   -8.6314   30.1788 C.ar    1  UNL1       -0.0117
     21 C         -12.3065  -12.2344   32.0793 C.ar    1  UNL1        0.0030
     22 C         -13.5725  -12.7599   31.7678 C.ar    1  UNL1        0.0006
     23 C         -13.9840  -13.9843   32.2956 C.ar    1  UNL1        0.0067
     24 C         -13.1360  -14.7041   33.1371 C.ar    1  UNL1        0.0347
     25 BR        -13.6987  -16.3857   33.8468 Br      1  UNL1       -0.0490
     26 C         -11.8798  -14.1909   33.4687 C.ar    1  UNL1        0.0098
     27 C         -11.4570  -12.9479   32.9664 C.ar    1  UNL1        0.0376
     28 C         -10.1481  -12.4188   33.4151 C.ar    1  UNL1        0.1806
     29 N          -9.7174  -12.4402   34.6909 N.ar    1  UNL1       -0.1084
     30 N          -8.5378  -11.8354   34.6655 N.ar    1  UNL1       -0.0229
     31 N          -8.2561  -11.4450   33.4316 N.ar    1  UNL1       -0.0464
     32 N          -9.2489  -11.7950   32.6348 N.ar    1  UNL1       -0.2388
     33 H          -9.3082  -11.5753   31.6166 H       1  UNL1        0.1923
     34 C         -12.2048   -5.7571   32.4478 C.3     1  UNL1        0.0029
     35 C         -11.5873   -5.1541   31.1881 C.3     1  UNL1        0.0326
     36 C          -4.9499   -8.0148   29.7763 C.3     1  UNL1        0.3404
     37 C          -5.2912   -9.4686   30.0301 C.ar    1  UNL1        0.0640
     38 C          -5.5048   -9.8861   31.3563 C.ar    1  UNL1        0.0031
     39 C          -5.8420  -11.2110   31.6408 C.ar    1  UNL1       -0.0001
     40 C          -5.9692  -12.1380   30.6069 C.ar    1  UNL1        0.0007
     41 C          -5.7565  -11.7444   29.2845 C.ar    1  UNL1        0.0102
     42 C          -5.4172  -10.4171   28.9844 C.ar    1  UNL1        0.0710
     43 C          -5.1957  -10.0650   27.6023 C.1     1  UNL1        0.1003
     44 N          -5.0191   -9.7820   26.4942 N.1     1  UNL1       -0.1908
@<TRIPOS>BOND
     1    34    35    1
     2    35     1    1
     3     1     2    1
     4     2     3    1
     5     3     4    1
     6     4     5    1
     7     5     6    1
     8     6    36    1
     9    36    37    1
    10    37    38   ar
    11    38    39   ar
    12    39    40   ar
    13    40    41   ar
    14    41    42   ar
    15    42    43    1
    16    43    44    3
    17     6     7    1
    18     7     8    2
    19     7     9    1
    20     9    10    1
    21    10    12    1
    22    12    13    1
    23    13    14    1
    24    14    15    1
    25    15    16   ar
    26    16    17   ar
    27    17    21    1
    28    21    22   ar
    29    22    23   ar
    30    23    24   ar
    31    24    25    1
    32    24    26   ar
    33    26    27   ar
    34    27    28    1
    35    28    29   ar
    36    29    30   ar
    37    30    31   ar
    38    31    32   ar
    39    17    18   ar
    40    18    19   ar
    41    19    20   ar
    42    10     1    1
    43    20    12    1
    44     9     3    1
    45    20    15   ar
    46    42    37   ar
    47    27    21   ar
    48    32    28   ar
    49    32    33    1
    50     2    11    1
@<TRIPOS>MOLECULE
*****
 44 50 0 0 0
SMALL
GASTEIGER

@<TRIPOS>ATOM
      1 C          -4.8804  -10.1869   31.3808 C.3     1  UNL1        0.1158
      2 N          -4.2980   -9.2641   32.1894 N.3     1  UNL1       -0.2851
      3 C          -4.9188   -8.1237   31.8563 C.3     1  UNL1        0.0910
      4 C          -4.6695   -6.8603   32.3677 C.3     1  UNL1        0.1018
      5 C          -5.4103   -5.7938   31.8396 C.3     1  UNL1        0.3136
      6 N          -6.3411   -5.9985   30.8441 N.am    1  UNL1       -0.1293
      7 C          -6.5693   -7.2646   30.3450 C.2     1  UNL1        0.4047
      8 O          -7.3975   -7.4420   29.4130 O.2     1  UNL1       -0.2174
      9 C          -5.8477   -8.3423   30.8867 C.3     1  UNL1        0.2038
     10 N          -5.8677   -9.6629   30.5869 N.3     1  UNL1       -0.2473
     11 H          -3.2962   -9.2007   32.0085 H       1  UNL1        0.1244
     12 C          -6.7031  -10.3453   29.5751 C.3     1  UNL1        0.0817
     13 C          -6.0084  -11.6065   29.0146 C.3     1  UNL1        0.0252
     14 C          -7.0116  -12.7706   29.1368 C.3     1  UNL1        0.0278
     15 C          -8.1537  -12.1885   29.8811 C.ar    1  UNL1       -0.0248
     16 C          -9.2939  -12.8644   30.3170 C.ar    1  UNL1       -0.0045
     17 C         -10.2832  -12.1513   31.0246 C.ar    1  UNL1       -0.0002
     18 C         -10.1207  -10.7646   31.2398 C.ar    1  UNL1       -0.0003
     19 C          -8.9676  -10.1074   30.7872 C.ar    1  UNL1       -0.0033
     20 C          -7.9846  -10.8503   30.1292 C.ar    1  UNL1       -0.0117
     21 C         -11.4904  -12.8475   31.5251 C.ar    1  UNL1        0.0030
     22 C         -11.5027  -14.2531   31.5174 C.ar    1  UNL1        0.0006
     23 C         -12.5737  -14.9582   32.0678 C.ar    1  UNL1        0.0067
     24 C         -13.6448  -14.2707   32.6385 C.ar    1  UNL1        0.0347
     25 BR        -15.1025  -15.2403   33.4021 Br      1  UNL1       -0.0490
     26 C         -13.6562  -12.8738   32.6426 C.ar    1  UNL1        0.0098
     27 C         -12.5980  -12.1458   32.0715 C.ar    1  UNL1        0.0376
     28 C         -12.7024  -10.6686   32.0352 C.ar    1  UNL1        0.1806
     29 N         -12.9011   -9.9487   30.9145 N.ar    1  UNL1       -0.1084
     30 N         -12.8847   -8.6837   31.3113 N.ar    1  UNL1       -0.0229
     31 N         -12.6723   -8.6219   32.6172 N.ar    1  UNL1       -0.0464
     32 N         -12.5516   -9.8488   33.0897 N.ar    1  UNL1       -0.2388
     33 H         -12.3382  -10.0925   34.0814 H       1  UNL1        0.1923
     34 C          -3.5549  -11.9734   32.5808 C.3     1  UNL1        0.0029
     35 C          -4.4745  -11.6412   31.4078 C.3     1  UNL1        0.0326
     36 C          -7.0595   -4.8364   30.2926 C.3     1  UNL1        0.3404
     37 C          -8.5570   -5.0406   30.3945 C.ar    1  UNL1        0.0640
     38 C          -9.3751   -4.5289   29.3710 C.ar    1  UNL1        0.0031
     39 C         -10.7595   -4.7087   29.4082 C.ar    1  UNL1       -0.0001
     40 C         -11.3469   -5.3998   30.4674 C.ar    1  UNL1        0.0007
     41 C         -10.5525   -5.9111   31.4952 C.ar    1  UNL1        0.0102
     42 C          -9.1610   -5.7378   31.4706 C.ar    1  UNL1        0.0710
     43 C          -8.3869   -6.2749   32.5640 C.1     1  UNL1        0.1003
     44 N          -7.7661   -6.7044   33.4411 N.1     1  UNL1       -0.1908
@<TRIPOS>BOND
     1    34    35    1
     2    35     1    1
     3     1     2    1
     4     2     3    1
     5     3     4    1
     6     4     5    1
     7     5     6    1
     8     6    36    1
     9    36    37    1
    10    37    38   ar
    11    38    39   ar
    12    39    40   ar
    13    40    41   ar
    14    41    42   ar
    15    42    43    1
    16    43    44    3
    17     6     7    1
    18     7     8    2
    19     7     9    1
    20     9    10    1
    21    10    12    1
    22    12    13    1
    23    13    14    1
    24    14    15    1
    25    15    16   ar
    26    16    17   ar
    27    17    21    1
    28    21    22   ar
    29    22    23   ar
    30    23    24   ar
    31    24    25    1
    32    24    26   ar
    33    26    27   ar
    34    27    28    1
    35    28    29   ar
    36    29    30   ar
    37    30    31   ar
    38    31    32   ar
    39    17    18   ar
    40    18    19   ar
    41    19    20   ar
    42    10     1    1
    43    20    12    1
    44     9     3    1
    45    20    15   ar
    46    42    37   ar
    47    27    21   ar
    48    32    28   ar
    49    32    33    1
    50     2    11    1
@<TRIPOS>MOLECULE
*****
 44 50 0 0 0
SMALL
GASTEIGER

@<TRIPOS>ATOM
      1 C          -4.9633   -8.6583   28.8484 C.3     1  UNL1        0.1158
      2 N          -5.2117   -7.3577   28.5464 N.3     1  UNL1       -0.2851
      3 C          -6.1532   -7.0073   29.4339 C.3     1  UNL1        0.0910
      4 C          -6.7862   -5.7789   29.5347 C.3     1  UNL1        0.1018
      5 C          -7.7803   -5.6448   30.5139 C.3     1  UNL1        0.3136
      6 N          -8.1173   -6.6996   31.3344 N.am    1  UNL1       -0.1293
      7 C          -7.4781   -7.9164   31.2128 C.2     1  UNL1        0.4047
      8 O          -7.8119   -8.8868   31.9428 O.2     1  UNL1       -0.2174
      9 C          -6.4635   -8.0511   30.2495 C.3     1  UNL1        0.2038
     10 N          -5.6908   -9.1128   29.9178 N.3     1  UNL1       -0.2473
     11 H          -5.5575   -7.2643   27.5914 H       1  UNL1        0.1244
     12 C          -5.7063  -10.4629   30.5215 C.3     1  UNL1        0.0817
     13 C          -5.0572  -10.4712   31.9236 C.3     1  UNL1        0.0252
     14 C          -6.0558  -11.1482   32.8831 C.3     1  UNL1        0.0278
     15 C          -7.2677  -11.3588   32.0559 C.ar    1  UNL1       -0.0248
     16 C          -8.4912  -11.8719   32.4881 C.ar    1  UNL1       -0.0045
     17 C          -9.5467  -11.9954   31.5616 C.ar    1  UNL1       -0.0002
     18 C          -9.3323  -11.6387   30.2117 C.ar    1  UNL1       -0.0003
     19 C          -8.0917  -11.1299   29.8013 C.ar    1  UNL1       -0.0033
     20 C          -7.0799  -10.9769   30.7521 C.ar    1  UNL1       -0.0117
     21 C         -10.8654  -12.5093   31.9971 C.ar    1  UNL1        0.0030
     22 C         -11.9037  -12.5718   31.0516 C.ar    1  UNL1        0.0006
     23 C         -13.1350  -13.1383   31.3835 C.ar    1  UNL1        0.0067
     24 C         -13.3456  -13.6554   32.6618 C.ar    1  UNL1        0.0347
     25 BR        -15.0284  -14.4414   33.1075 Br      1  UNL1       -0.0490
     26 C         -12.3299  -13.5894   33.6185 C.ar    1  UNL1        0.0098
     27 C         -11.0910  -13.0009   33.3105 C.ar    1  UNL1        0.0376
     28 C         -10.0807  -12.8889   34.3881 C.ar    1  UNL1        0.1806
     29 N          -9.7897  -13.8720   35.2613 N.ar    1  UNL1       -0.1084
     30 N          -8.8811  -13.3515   36.0745 N.ar    1  UNL1       -0.0229
     31 N          -8.6298  -12.0979   35.7288 N.ar    1  UNL1       -0.0464
     32 N          -9.3701  -11.7862   34.6810 N.ar    1  UNL1       -0.2388
     33 H          -9.4026  -10.8480   34.2259 H       1  UNL1        0.1923
     34 C          -4.6106  -10.4946   27.1477 C.3     1  UNL1        0.0029
     35 C          -3.9547   -9.4776   28.0789 C.3     1  UNL1        0.0326
     36 C          -9.2007   -6.5186   32.3163 C.3     1  UNL1        0.3404
     37 C         -10.4685   -7.1964   31.8391 C.ar    1  UNL1        0.0640
     38 C         -10.7535   -8.4921   32.3066 C.ar    1  UNL1        0.0031
     39 C         -11.9196   -9.1515   31.9125 C.ar    1  UNL1       -0.0001
     40 C         -12.8167   -8.5284   31.0455 C.ar    1  UNL1        0.0007
     41 C         -12.5494   -7.2446   30.5667 C.ar    1  UNL1        0.0102
     42 C         -11.3821   -6.5708   30.9542 C.ar    1  UNL1        0.0710
     43 C         -11.1471   -5.2504   30.4206 C.1     1  UNL1        0.1003
     44 N         -10.9596   -4.1919   29.9920 N.1     1  UNL1       -0.1908
@<TRIPOS>BOND
     1    34    35    1
     2    35     1    1
     3     1     2    1
     4     2     3    1
     5     3     4    1
     6     4     5    1
     7     5     6    1
     8     6    36    1
     9    36    37    1
    10    37    38   ar
    11    38    39   ar
    12    39    40   ar
    13    40    41   ar
    14    41    42   ar
    15    42    43    1
    16    43    44    3
    17     6     7    1
    18     7     8    2
    19     7     9    1
    20     9    10    1
    21    10    12    1
    22    12    13    1
    23    13    14    1
    24    14    15    1
    25    15    16   ar
    26    16    17   ar
    27    17    21    1
    28    21    22   ar
    29    22    23   ar
    30    23    24   ar
    31    24    25    1
    32    24    26   ar
    33    26    27   ar
    34    27    28    1
    35    28    29   ar
    36    29    30   ar
    37    30    31   ar
    38    31    32   ar
    39    17    18   ar
    40    18    19   ar
    41    19    20   ar
    42    10     1    1
    43    20    12    1
    44     9     3    1
    45    20    15   ar
    46    42    37   ar
    47    27    21   ar
    48    32    28   ar
    49    32    33    1
    50     2    11    1
