@<TRIPOS>MOLECULE
*****
 39 43 0 0 0
SMALL
GASTEIGER

@<TRIPOS>ATOM
      1 C         -27.6724   -5.5970  -14.5504 C.2     1  UNL1        0.2306
      2 O         -28.9259   -5.5015  -14.6481 O.2     1  UNL1       -0.2745
      3 N         -27.1035   -6.5644  -13.6503 N.am    1  UNL1       -0.2711
      4 C         -27.8977   -7.3035  -12.6660 C.3     1  UNL1        0.1202
      5 C         -26.8650   -7.9259  -11.8009 C.ar    1  UNL1       -0.0046
      6 C         -27.0510   -8.5486  -10.5663 C.ar    1  UNL1       -0.0015
      7 C         -25.9212   -8.8476   -9.7875 C.ar    1  UNL1        0.0199
      8 C         -24.6286   -8.5145  -10.2491 C.ar    1  UNL1        0.1249
      9 C         -24.4679   -7.9375  -11.5197 C.ar    1  UNL1        0.0173
     10 C         -25.6039   -7.6424  -12.2694 C.ar    1  UNL1       -0.0033
     11 C         -25.6678   -6.7910  -13.4749 C.3     1  UNL1        0.1202
     12 S         -23.2313   -8.6550   -9.1869 S.O2    1  UNL1        0.0748
     13 O         -23.1426   -7.4586   -8.2813 O.2     1  UNL1       -0.1499
     14 O         -23.3850   -9.8952   -8.3531 O.2     1  UNL1       -0.1499
     15 N         -21.7664   -8.7623  -10.1142 N.pl3   1  UNL1       -0.1962
     16 H         -21.1760   -7.9056  -10.2037 H       1  UNL1        0.1754
     17 C         -21.3807   -9.9486  -10.8189 C.ar    1  UNL1        0.1899
     18 C         -20.3110  -10.7597  -10.5176 C.ar    1  UNL1        0.1594
     19 N         -20.3213  -11.7726  -11.4049 N.ar    1  UNL1       -0.1433
     20 N         -21.3680  -11.5673  -12.1948 N.ar    1  UNL1       -0.1466
     21 N         -22.0332  -10.4673  -11.8720 N.ar    1  UNL1       -0.1299
     22 C         -21.7452  -12.4363  -13.2749 C.ar    1  UNL1        0.1026
     23 C         -20.7697  -13.1837  -13.9519 C.ar    1  UNL1        0.0209
     24 C         -21.1330  -14.0514  -14.9820 C.ar    1  UNL1        0.0013
     25 C         -22.4763  -14.2032  -15.3307 C.ar    1  UNL1       -0.0042
     26 C         -23.4736  -13.4743  -14.6602 C.ar    1  UNL1       -0.0210
     27 C         -23.0935  -12.5695  -13.6480 C.ar    1  UNL1        0.0166
     28 C         -24.9340  -13.6874  -15.0174 C.3     1  UNL1        0.0224
     29 C         -25.1068  -14.8780  -15.9694 C.3     1  UNL1        0.0047
     30 C         -25.7939  -13.8571  -13.7613 C.3     1  UNL1        0.0047
     31 C         -26.8084   -4.6518  -15.3424 C.3     1  UNL1        0.1117
     32 C         -27.7640   -3.0637  -18.6912 C.ar    1  UNL1        0.1384
     33 C         -29.0744   -2.6583  -18.4250 C.ar    1  UNL1        0.0369
     34 C         -29.6529   -2.9019  -17.1773 C.ar    1  UNL1        0.0028
     35 C         -28.9204   -3.5487  -16.1792 C.ar    1  UNL1       -0.0036
     36 C         -27.6077   -3.9790  -16.4309 C.ar    1  UNL1       -0.0101
     37 C         -27.0451   -3.7587  -17.7007 C.ar    1  UNL1        0.0331
     38 C         -27.7627   -1.7985  -20.8463 C.3     1  UNL1        0.2525
     39 O         -27.2109   -2.7488  -19.9411 O.3     1  UNL1       -0.4714
@<TRIPOS>BOND
     1    38    39    1
     2    39    32    1
     3    32    33   ar
     4    33    34   ar
     5    34    35   ar
     6    35    36   ar
     7    36    31    1
     8    31     1    1
     9     1     2    2
    10     1     3   am
    11     3     4    1
    12     4     5    1
    13     5     6   ar
    14     6     7   ar
    15     7     8   ar
    16     8    12    1
    17    12    13    2
    18    12    14    2
    19    12    15    1
    20    15    17    1
    21    17    18   ar
    22    18    19   ar
    23    19    20   ar
    24    20    22    1
    25    22    23   ar
    26    23    24   ar
    27    24    25   ar
    28    25    26   ar
    29    26    28    1
    30    28    29    1
    31    28    30    1
    32    26    27   ar
    33    20    21   ar
    34     8     9   ar
    35     9    10   ar
    36    10    11    1
    37    36    37   ar
    38    37    32   ar
    39    11     3    1
    40    10     5   ar
    41    21    17   ar
    42    27    22   ar
    43    15    16    1
@<TRIPOS>MOLECULE
*****
 39 43 0 0 0
SMALL
GASTEIGER

@<TRIPOS>ATOM
      1 C         -23.8160   -9.5233  -12.5581 C.2     1  UNL1        0.2306
      2 O         -24.2797  -10.6387  -12.1967 O.2     1  UNL1       -0.2745
      3 N         -24.7182   -8.4391  -12.8416 N.am    1  UNL1       -0.2711
      4 C         -26.1685   -8.6146  -12.9505 C.3     1  UNL1        0.1202
      5 C         -26.6193   -7.3268  -13.5341 C.ar    1  UNL1       -0.0046
      6 C         -27.8727   -7.0265  -14.0685 C.ar    1  UNL1       -0.0015
      7 C         -28.0238   -5.8374  -14.8003 C.ar    1  UNL1        0.0199
      8 C         -26.9230   -4.9737  -14.9924 C.ar    1  UNL1        0.1249
      9 C         -25.6868   -5.2746  -14.3970 C.ar    1  UNL1        0.0173
     10 C         -25.5594   -6.4639  -13.6835 C.ar    1  UNL1       -0.0033
     11 C         -24.2998   -7.0928  -13.2362 C.3     1  UNL1        0.1202
     12 S         -27.0311   -3.6145  -16.1066 S.O2    1  UNL1        0.0748
     13 O         -28.3867   -2.9718  -16.0148 O.2     1  UNL1       -0.1499
     14 O         -25.9804   -2.6062  -15.7370 O.2     1  UNL1       -0.1499
     15 N         -26.7734   -4.1418  -17.7415 N.pl3   1  UNL1       -0.1962
     16 H         -27.4078   -3.7725  -18.4841 H       1  UNL1        0.1754
     17 C         -25.7830   -5.1150  -18.0947 C.ar    1  UNL1        0.1899
     18 C         -25.3942   -5.4505  -19.3711 C.ar    1  UNL1        0.1594
     19 N         -24.4276   -6.3813  -19.2575 N.ar    1  UNL1       -0.1433
     20 N         -24.2490   -6.5783  -17.9572 N.ar    1  UNL1       -0.1466
     21 N         -25.0568   -5.8298  -17.2198 N.ar    1  UNL1       -0.1299
     22 C         -23.2884   -7.4930  -17.4053 C.ar    1  UNL1        0.1026
     23 C         -22.0754   -7.0141  -16.8878 C.ar    1  UNL1        0.0209
     24 C         -21.1512   -7.8938  -16.3240 C.ar    1  UNL1        0.0013
     25 C         -21.4379   -9.2579  -16.2462 C.ar    1  UNL1       -0.0042
     26 C         -22.6509   -9.7612  -16.7473 C.ar    1  UNL1       -0.0210
     27 C         -23.5613   -8.8705  -17.3519 C.ar    1  UNL1        0.0166
     28 C         -22.9693  -11.2396  -16.6105 C.3     1  UNL1        0.0224
     29 C         -24.3565  -11.4559  -15.9921 C.3     1  UNL1        0.0047
     30 C         -22.8475  -11.9607  -17.9564 C.3     1  UNL1        0.0047
     31 C         -22.3278   -9.3787  -12.7354 C.3     1  UNL1        0.1117
     32 C         -21.0633  -12.9183  -13.4578 C.ar    1  UNL1        0.1384
     33 C         -20.4172  -13.2167  -12.2553 C.ar    1  UNL1        0.0369
     34 C         -20.3796  -12.2812  -11.2188 C.ar    1  UNL1        0.0028
     35 C         -20.9966  -11.0378  -11.3741 C.ar    1  UNL1       -0.0036
     36 C         -21.6374  -10.7112  -12.5802 C.ar    1  UNL1       -0.0101
     37 C         -21.6417  -11.6468  -13.6300 C.ar    1  UNL1        0.0331
     38 C         -22.3164  -14.5493  -14.8771 C.3     1  UNL1        0.2525
     39 O         -21.1187  -13.9106  -14.4476 O.3     1  UNL1       -0.4714
@<TRIPOS>BOND
     1    38    39    1
     2    39    32    1
     3    32    33   ar
     4    33    34   ar
     5    34    35   ar
     6    35    36   ar
     7    36    31    1
     8    31     1    1
     9     1     2    2
    10     1     3   am
    11     3     4    1
    12     4     5    1
    13     5     6   ar
    14     6     7   ar
    15     7     8   ar
    16     8    12    1
    17    12    13    2
    18    12    14    2
    19    12    15    1
    20    15    17    1
    21    17    18   ar
    22    18    19   ar
    23    19    20   ar
    24    20    22    1
    25    22    23   ar
    26    23    24   ar
    27    24    25   ar
    28    25    26   ar
    29    26    28    1
    30    28    29    1
    31    28    30    1
    32    26    27   ar
    33    20    21   ar
    34     8     9   ar
    35     9    10   ar
    36    10    11    1
    37    36    37   ar
    38    37    32   ar
    39    11     3    1
    40    10     5   ar
    41    21    17   ar
    42    27    22   ar
    43    15    16    1
@<TRIPOS>MOLECULE
*****
 39 43 0 0 0
SMALL
GASTEIGER

@<TRIPOS>ATOM
      1 C         -24.1386   -9.5516  -12.6290 C.2     1  UNL1        0.2306
      2 O         -24.7075  -10.5784  -12.1687 O.2     1  UNL1       -0.2745
      3 N         -24.9234   -8.3878  -12.9439 N.am    1  UNL1       -0.2711
      4 C         -26.3880   -8.3953  -12.9704 C.3     1  UNL1        0.1202
      5 C         -26.7184   -7.1027  -13.6202 C.ar    1  UNL1       -0.0046
      6 C         -27.9564   -6.6894  -14.1134 C.ar    1  UNL1       -0.0015
      7 C         -28.0093   -5.5398  -14.9184 C.ar    1  UNL1        0.0199
      8 C         -26.8282   -4.8278  -15.2230 C.ar    1  UNL1        0.1249
      9 C         -25.6039   -5.2358  -14.6681 C.ar    1  UNL1        0.0173
     10 C         -25.5755   -6.3839  -13.8803 C.ar    1  UNL1       -0.0033
     11 C         -24.3743   -7.1290  -13.4512 C.3     1  UNL1        0.1202
     12 S         -26.8401   -3.5392  -16.4229 S.O2    1  UNL1        0.0748
     13 O         -28.1558   -2.8130  -16.3949 O.2     1  UNL1       -0.1499
     14 O         -25.7358   -2.5729  -16.1006 O.2     1  UNL1       -0.1499
     15 N         -26.5934   -4.1850  -18.0165 N.pl3   1  UNL1       -0.1962
     16 H         -27.1669   -3.7987  -18.7990 H       1  UNL1        0.1754
     17 C         -25.6976   -5.2711  -18.2822 C.ar    1  UNL1        0.1899
     18 C         -25.4802   -5.8630  -19.5051 C.ar    1  UNL1        0.1594
     19 N         -24.5502   -6.8194  -19.3210 N.ar    1  UNL1       -0.1433
     20 N         -24.2260   -6.7833  -18.0345 N.ar    1  UNL1       -0.1466
     21 N         -24.9049   -5.8584  -17.3708 N.ar    1  UNL1       -0.1299
     22 C         -23.2486   -7.6422  -17.4254 C.ar    1  UNL1        0.1026
     23 C         -22.0774   -7.0990  -16.8761 C.ar    1  UNL1        0.0209
     24 C         -21.1383   -7.9243  -16.2573 C.ar    1  UNL1        0.0013
     25 C         -21.3693   -9.2974  -16.1561 C.ar    1  UNL1       -0.0042
     26 C         -22.5401   -9.8645  -16.6884 C.ar    1  UNL1       -0.0210
     27 C         -23.4643   -9.0287  -17.3477 C.ar    1  UNL1        0.0166
     28 C         -22.8000  -11.3518  -16.5266 C.3     1  UNL1        0.0224
     29 C         -21.7637  -12.0011  -15.6002 C.3     1  UNL1        0.0047
     30 C         -24.2248  -11.6157  -16.0303 C.3     1  UNL1        0.0047
     31 C         -22.6559   -9.5975  -12.8874 C.3     1  UNL1        0.1117
     32 C         -21.4013   -7.9798   -9.6534 C.ar    1  UNL1        0.1384
     33 C         -20.3872   -8.8701   -9.2909 C.ar    1  UNL1        0.0369
     34 C         -20.1126   -9.9912  -10.0773 C.ar    1  UNL1        0.0028
     35 C         -20.8478  -10.2283  -11.2410 C.ar    1  UNL1       -0.0036
     36 C         -21.8822   -9.3554  -11.6150 C.ar    1  UNL1       -0.0101
     37 C         -22.1731   -8.2473  -10.7996 C.ar    1  UNL1        0.0331
     38 C         -21.6798   -5.5130   -9.3663 C.3     1  UNL1        0.2525
     39 O         -21.6027   -6.8413   -8.8594 O.3     1  UNL1       -0.4714
@<TRIPOS>BOND
     1    38    39    1
     2    39    32    1
     3    32    33   ar
     4    33    34   ar
     5    34    35   ar
     6    35    36   ar
     7    36    31    1
     8    31     1    1
     9     1     2    2
    10     1     3   am
    11     3     4    1
    12     4     5    1
    13     5     6   ar
    14     6     7   ar
    15     7     8   ar
    16     8    12    1
    17    12    13    2
    18    12    14    2
    19    12    15    1
    20    15    17    1
    21    17    18   ar
    22    18    19   ar
    23    19    20   ar
    24    20    22    1
    25    22    23   ar
    26    23    24   ar
    27    24    25   ar
    28    25    26   ar
    29    26    28    1
    30    28    29    1
    31    28    30    1
    32    26    27   ar
    33    20    21   ar
    34     8     9   ar
    35     9    10   ar
    36    10    11    1
    37    36    37   ar
    38    37    32   ar
    39    11     3    1
    40    10     5   ar
    41    21    17   ar
    42    27    22   ar
    43    15    16    1
@<TRIPOS>MOLECULE
*****
 39 43 0 0 0
SMALL
GASTEIGER

@<TRIPOS>ATOM
      1 C         -19.3816   -8.2061   -7.2695 C.2     1  UNL1        0.2306
      2 O         -19.6750   -7.2016   -6.5662 O.2     1  UNL1       -0.2745
      3 N         -19.8143   -8.2621   -8.6404 N.am    1  UNL1       -0.2711
      4 C         -20.7728   -7.3149   -9.2148 C.3     1  UNL1        0.1202
      5 C         -21.1243   -7.9397  -10.5141 C.ar    1  UNL1       -0.0046
      6 C         -22.1682   -7.5914  -11.3718 C.ar    1  UNL1       -0.0015
      7 C         -22.4911   -8.4619  -12.4255 C.ar    1  UNL1        0.0199
      8 C         -21.7737   -9.6657  -12.6011 C.ar    1  UNL1        0.1249
      9 C         -20.6925   -9.9642  -11.7554 C.ar    1  UNL1        0.0173
     10 C         -20.3974   -9.0898  -10.7123 C.ar    1  UNL1       -0.0033
     11 C         -19.5083   -9.3568   -9.5632 C.3     1  UNL1        0.1202
     12 S         -22.3210  -10.8777  -13.7553 S.O2    1  UNL1        0.0748
     13 O         -21.8422  -12.2420  -13.3449 O.2     1  UNL1       -0.1499
     14 O         -23.8231  -10.8694  -13.7840 O.2     1  UNL1       -0.1499
     15 N         -21.7126  -10.5278  -15.3442 N.pl3   1  UNL1       -0.1962
     16 H         -21.1063  -11.2405  -15.8077 H       1  UNL1        0.1754
     17 C         -21.9446   -9.2778  -16.0048 C.ar    1  UNL1        0.1899
     18 C         -21.0239   -8.2709  -16.1827 C.ar    1  UNL1        0.1594
     19 N         -21.6394   -7.2902  -16.8702 N.ar    1  UNL1       -0.1433
     20 N         -22.8774   -7.7119  -17.0963 N.ar    1  UNL1       -0.1466
     21 N         -23.1009   -8.9130  -16.5824 N.ar    1  UNL1       -0.1299
     22 C         -23.8656   -6.9597  -17.8186 C.ar    1  UNL1        0.1026
     23 C         -24.2294   -7.3402  -19.1191 C.ar    1  UNL1        0.0209
     24 C         -25.2093   -6.6317  -19.8147 C.ar    1  UNL1        0.0013
     25 C         -25.8560   -5.5518  -19.2109 C.ar    1  UNL1       -0.0042
     26 C         -25.5176   -5.1577  -17.9049 C.ar    1  UNL1       -0.0210
     27 C         -24.4979   -5.8541  -17.2246 C.ar    1  UNL1        0.0166
     28 C         -26.2646   -4.0127  -17.2439 C.3     1  UNL1        0.0224
     29 C         -27.4916   -3.5992  -18.0668 C.3     1  UNL1        0.0047
     30 C         -26.6583   -4.3633  -15.8058 C.3     1  UNL1        0.0047
     31 C         -18.6316   -9.3451   -6.6313 C.3     1  UNL1        0.1117
     32 C         -18.9470   -8.7434   -2.8645 C.ar    1  UNL1        0.1384
     33 C         -17.6447   -8.3447   -2.5526 C.ar    1  UNL1        0.0369
     34 C         -16.6657   -8.2776   -3.5465 C.ar    1  UNL1        0.0028
     35 C         -16.9841   -8.6030   -4.8671 C.ar    1  UNL1       -0.0036
     36 C         -18.2825   -9.0218   -5.1996 C.ar    1  UNL1       -0.0101
     37 C         -19.2529   -9.1178   -4.1864 C.ar    1  UNL1        0.0331
     38 C         -20.9674   -7.8002   -1.7361 C.3     1  UNL1        0.2525
     39 O         -19.9062   -8.7436   -1.8412 O.3     1  UNL1       -0.4714
@<TRIPOS>BOND
     1    38    39    1
     2    39    32    1
     3    32    33   ar
     4    33    34   ar
     5    34    35   ar
     6    35    36   ar
     7    36    31    1
     8    31     1    1
     9     1     2    2
    10     1     3   am
    11     3     4    1
    12     4     5    1
    13     5     6   ar
    14     6     7   ar
    15     7     8   ar
    16     8    12    1
    17    12    13    2
    18    12    14    2
    19    12    15    1
    20    15    17    1
    21    17    18   ar
    22    18    19   ar
    23    19    20   ar
    24    20    22    1
    25    22    23   ar
    26    23    24   ar
    27    24    25   ar
    28    25    26   ar
    29    26    28    1
    30    28    29    1
    31    28    30    1
    32    26    27   ar
    33    20    21   ar
    34     8     9   ar
    35     9    10   ar
    36    10    11    1
    37    36    37   ar
    38    37    32   ar
    39    11     3    1
    40    10     5   ar
    41    21    17   ar
    42    27    22   ar
    43    15    16    1
@<TRIPOS>MOLECULE
*****
 39 43 0 0 0
SMALL
GASTEIGER

@<TRIPOS>ATOM
      1 C         -23.3106  -11.6808  -14.6517 C.2     1  UNL1        0.2306
      2 O         -24.4682  -12.0342  -15.0052 O.2     1  UNL1       -0.2745
      3 N         -23.0453  -11.4097  -13.2640 N.am    1  UNL1       -0.2711
      4 C         -24.1017  -11.3043  -12.2546 C.3     1  UNL1        0.1202
      5 C         -23.3910  -10.7334  -11.0836 C.ar    1  UNL1       -0.0046
      6 C         -23.9529  -10.2059   -9.9206 C.ar    1  UNL1       -0.0015
      7 C         -23.1273   -9.4850   -9.0425 C.ar    1  UNL1        0.0199
      8 C         -21.7601   -9.2966   -9.3424 C.ar    1  UNL1        0.1249
      9 C         -21.2098   -9.8851  -10.4931 C.ar    1  UNL1        0.0173
     10 C         -22.0505  -10.5878  -11.3528 C.ar    1  UNL1       -0.0033
     11 C         -21.7380  -11.0254  -12.7287 C.3     1  UNL1        0.1202
     12 S         -20.7741   -8.1945   -8.3865 S.O2    1  UNL1        0.0748
     13 O         -20.9444   -8.4807   -6.9208 O.2     1  UNL1       -0.1499
     14 O         -19.3330   -8.3898   -8.7635 O.2     1  UNL1       -0.1499
     15 N         -21.2304   -6.5461   -8.6895 N.pl3   1  UNL1       -0.1962
     16 H         -21.0315   -5.8359   -7.9503 H       1  UNL1        0.1754
     17 C         -21.9330   -6.1413   -9.8707 C.ar    1  UNL1        0.1899
     18 C         -21.6534   -5.0374  -10.6428 C.ar    1  UNL1        0.1594
     19 N         -22.5292   -5.0391  -11.6658 N.ar    1  UNL1       -0.1433
     20 N         -23.2913   -6.1137  -11.5040 N.ar    1  UNL1       -0.1466
     21 N         -22.9615   -6.8055  -10.4227 N.ar    1  UNL1       -0.1299
     22 C         -24.3508   -6.4920  -12.3975 C.ar    1  UNL1        0.1026
     23 C         -24.5885   -7.8465  -12.6756 C.ar    1  UNL1        0.0209
     24 C         -25.6341   -8.2219  -13.5192 C.ar    1  UNL1        0.0013
     25 C         -26.4709   -7.2518  -14.0740 C.ar    1  UNL1       -0.0042
     26 C         -26.2607   -5.8889  -13.8020 C.ar    1  UNL1       -0.0210
     27 C         -25.1768   -5.5163  -12.9810 C.ar    1  UNL1        0.0166
     28 C         -27.2093   -4.8497  -14.3729 C.3     1  UNL1        0.0224
     29 C         -26.6233   -4.1901  -15.6280 C.3     1  UNL1        0.0047
     30 C         -28.5871   -5.4539  -14.6603 C.3     1  UNL1        0.0047
     31 C         -22.2528  -11.4996  -15.7077 C.3     1  UNL1        0.1117
     32 C         -22.9004   -7.7902  -16.3939 C.ar    1  UNL1        0.1384
     33 C         -21.5971   -7.3295  -16.5972 C.ar    1  UNL1        0.0369
     34 C         -20.5126   -8.2048  -16.5056 C.ar    1  UNL1        0.0028
     35 C         -20.7240   -9.5549  -16.2160 C.ar    1  UNL1       -0.0036
     36 C         -22.0241  -10.0357  -15.9920 C.ar    1  UNL1       -0.0101
     37 C         -23.1068   -9.1404  -16.0540 C.ar    1  UNL1        0.0331
     38 C         -24.2443   -6.1818  -17.7548 C.3     1  UNL1        0.2525
     39 O         -23.9589   -6.8831  -16.5491 O.3     1  UNL1       -0.4714
@<TRIPOS>BOND
     1    38    39    1
     2    39    32    1
     3    32    33   ar
     4    33    34   ar
     5    34    35   ar
     6    35    36   ar
     7    36    31    1
     8    31     1    1
     9     1     2    2
    10     1     3   am
    11     3     4    1
    12     4     5    1
    13     5     6   ar
    14     6     7   ar
    15     7     8   ar
    16     8    12    1
    17    12    13    2
    18    12    14    2
    19    12    15    1
    20    15    17    1
    21    17    18   ar
    22    18    19   ar
    23    19    20   ar
    24    20    22    1
    25    22    23   ar
    26    23    24   ar
    27    24    25   ar
    28    25    26   ar
    29    26    28    1
    30    28    29    1
    31    28    30    1
    32    26    27   ar
    33    20    21   ar
    34     8     9   ar
    35     9    10   ar
    36    10    11    1
    37    36    37   ar
    38    37    32   ar
    39    11     3    1
    40    10     5   ar
    41    21    17   ar
    42    27    22   ar
    43    15    16    1
@<TRIPOS>MOLECULE
*****
 39 43 0 0 0
SMALL
GASTEIGER

@<TRIPOS>ATOM
      1 C         -27.2230   -5.3630  -14.2451 C.2     1  UNL1        0.2306
      2 O         -28.4660   -5.4772  -14.4232 O.2     1  UNL1       -0.2745
      3 N         -26.5349   -6.3184  -13.4184 N.am    1  UNL1       -0.2711
      4 C         -27.2312   -7.2998  -12.5830 C.3     1  UNL1        0.1202
      5 C         -26.1490   -7.8328  -11.7188 C.ar    1  UNL1       -0.0046
      6 C         -26.2824   -8.6246  -10.5778 C.ar    1  UNL1       -0.0015
      7 C         -25.1593   -8.8140   -9.7562 C.ar    1  UNL1        0.0199
      8 C         -23.9269   -8.2059  -10.0819 C.ar    1  UNL1        0.1249
      9 C         -23.8080   -7.4588  -11.2656 C.ar    1  UNL1        0.0173
     10 C         -24.9380   -7.2778  -12.0593 C.ar    1  UNL1       -0.0033
     11 C         -25.0931   -6.3098  -13.1644 C.3     1  UNL1        0.1202
     12 S         -22.5849   -8.2283   -8.9422 S.O2    1  UNL1        0.0748
     13 O         -21.9512   -6.8681   -8.8564 O.2     1  UNL1       -0.1499
     14 O         -23.1109   -8.6143   -7.5889 O.2     1  UNL1       -0.1499
     15 N         -21.3788   -9.3750   -9.4399 N.pl3   1  UNL1       -0.1962
     16 H         -20.4495   -9.3505   -8.9643 H       1  UNL1        0.1754
     17 C         -21.5817  -10.2928  -10.5213 C.ar    1  UNL1        0.1899
     18 C         -20.7088  -11.2766  -10.9252 C.ar    1  UNL1        0.1594
     19 N         -21.2921  -11.9248  -11.9514 N.ar    1  UNL1       -0.1433
     20 N         -22.4721  -11.3463  -12.1371 N.ar    1  UNL1       -0.1466
     21 N         -22.6817  -10.3488  -11.2899 N.ar    1  UNL1       -0.1299
     22 C         -23.4204  -11.7529  -13.1368 C.ar    1  UNL1        0.1026
     23 C         -24.5844  -10.9998  -13.3520 C.ar    1  UNL1        0.0209
     24 C         -25.4947  -11.3727  -14.3411 C.ar    1  UNL1        0.0013
     25 C         -25.2411  -12.4861  -15.1443 C.ar    1  UNL1       -0.0042
     26 C         -24.0768  -13.2507  -14.9561 C.ar    1  UNL1       -0.0210
     27 C         -23.1826  -12.8901  -13.9275 C.ar    1  UNL1        0.0166
     28 C         -23.7911  -14.4291  -15.8701 C.3     1  UNL1        0.0224
     29 C         -22.7901  -15.4003  -15.2309 C.3     1  UNL1        0.0047
     30 C         -25.0828  -15.1507  -16.2660 C.3     1  UNL1        0.0047
     31 C         -26.5058   -4.1915  -14.8619 C.3     1  UNL1        0.1117
     32 C         -26.0565   -4.7578  -18.6205 C.ar    1  UNL1        0.1384
     33 C         -27.1152   -4.0006  -19.1284 C.ar    1  UNL1        0.0369
     34 C         -27.9764   -3.3173  -18.2668 C.ar    1  UNL1        0.0028
     35 C         -27.7807   -3.3799  -16.8851 C.ar    1  UNL1       -0.0036
     36 C         -26.7328   -4.1483  -16.3528 C.ar    1  UNL1       -0.0101
     37 C         -25.8909   -4.8593  -17.2264 C.ar    1  UNL1        0.0331
     38 C         -25.0750   -6.7919  -19.6903 C.3     1  UNL1        0.2525
     39 O         -25.1888   -5.3819  -19.5287 O.3     1  UNL1       -0.4714
@<TRIPOS>BOND
     1    38    39    1
     2    39    32    1
     3    32    33   ar
     4    33    34   ar
     5    34    35   ar
     6    35    36   ar
     7    36    31    1
     8    31     1    1
     9     1     2    2
    10     1     3   am
    11     3     4    1
    12     4     5    1
    13     5     6   ar
    14     6     7   ar
    15     7     8   ar
    16     8    12    1
    17    12    13    2
    18    12    14    2
    19    12    15    1
    20    15    17    1
    21    17    18   ar
    22    18    19   ar
    23    19    20   ar
    24    20    22    1
    25    22    23   ar
    26    23    24   ar
    27    24    25   ar
    28    25    26   ar
    29    26    28    1
    30    28    29    1
    31    28    30    1
    32    26    27   ar
    33    20    21   ar
    34     8     9   ar
    35     9    10   ar
    36    10    11    1
    37    36    37   ar
    38    37    32   ar
    39    11     3    1
    40    10     5   ar
    41    21    17   ar
    42    27    22   ar
    43    15    16    1
@<TRIPOS>MOLECULE
*****
 39 43 0 0 0
SMALL
GASTEIGER

@<TRIPOS>ATOM
      1 C         -27.5745   -5.6103  -14.6021 C.2     1  UNL1        0.2306
      2 O         -28.8208   -5.7424  -14.7399 O.2     1  UNL1       -0.2745
      3 N         -26.8636   -6.4861  -13.7091 N.am    1  UNL1       -0.2711
      4 C         -27.5363   -7.3894  -12.7726 C.3     1  UNL1        0.1202
      5 C         -26.4321   -7.8403  -11.8896 C.ar    1  UNL1       -0.0046
      6 C         -26.5358   -8.5263  -10.6791 C.ar    1  UNL1       -0.0015
      7 C         -25.3931   -8.6388   -9.8704 C.ar    1  UNL1        0.0199
      8 C         -24.1710   -8.0603  -10.2787 C.ar    1  UNL1        0.1249
      9 C         -24.0827   -7.4227  -11.5273 C.ar    1  UNL1        0.0173
     10 C         -25.2316   -7.3161  -12.3072 C.ar    1  UNL1       -0.0033
     11 C         -25.4163   -6.4520  -13.4910 C.3     1  UNL1        0.1202
     12 S         -22.8027   -7.9774   -9.1735 S.O2    1  UNL1        0.0748
     13 O         -22.0497   -6.6917   -9.3718 O.2     1  UNL1       -0.1499
     14 O         -23.3199   -8.0344   -7.7641 O.2     1  UNL1       -0.1499
     15 N         -21.7174   -9.3066   -9.4430 N.pl3   1  UNL1       -0.1962
     16 H         -20.9013   -9.4144   -8.8005 H       1  UNL1        0.1754
     17 C         -21.8540  -10.2063  -10.5496 C.ar    1  UNL1        0.1899
     18 C         -20.8825  -11.0530  -11.0317 C.ar    1  UNL1        0.1594
     19 N         -21.4279  -11.7375  -12.0551 N.ar    1  UNL1       -0.1433
     20 N         -22.6808  -11.3130  -12.1637 N.ar    1  UNL1       -0.1466
     21 N         -22.9748  -10.3805  -11.2688 N.ar    1  UNL1       -0.1299
     22 C         -23.6177  -11.8069  -13.1344 C.ar    1  UNL1        0.1026
     23 C         -24.6225  -10.9659  -13.6358 C.ar    1  UNL1        0.0209
     24 C         -25.5170  -11.4306  -14.6001 C.ar    1  UNL1        0.0013
     25 C         -25.4028  -12.7312  -15.0944 C.ar    1  UNL1       -0.0042
     26 C         -24.3977  -13.5898  -14.6165 C.ar    1  UNL1       -0.0210
     27 C         -23.5237  -13.1249  -13.6128 C.ar    1  UNL1        0.0166
     28 C         -24.2556  -14.9846  -15.1998 C.3     1  UNL1        0.0224
     29 C         -25.1251  -15.1562  -16.4521 C.3     1  UNL1        0.0047
     30 C         -22.7899  -15.3155  -15.4970 C.3     1  UNL1        0.0047
     31 C         -26.8765   -4.4979  -15.3386 C.3     1  UNL1        0.1117
     32 C         -29.9861   -2.9432  -16.9396 C.ar    1  UNL1        0.1384
     33 C         -29.5371   -2.7463  -18.2480 C.ar    1  UNL1        0.0369
     34 C         -28.2371   -3.1032  -18.6133 C.ar    1  UNL1        0.0028
     35 C         -27.3746   -3.6689  -17.6715 C.ar    1  UNL1       -0.0036
     36 C         -27.8000   -3.8604  -16.3471 C.ar    1  UNL1       -0.0101
     37 C         -29.0996   -3.4677  -15.9804 C.ar    1  UNL1        0.0331
     38 C         -31.8851   -2.6987  -15.3336 C.3     1  UNL1        0.2525
     39 O         -31.3162   -2.6174  -16.6363 O.3     1  UNL1       -0.4714
@<TRIPOS>BOND
     1    38    39    1
     2    39    32    1
     3    32    33   ar
     4    33    34   ar
     5    34    35   ar
     6    35    36   ar
     7    36    31    1
     8    31     1    1
     9     1     2    2
    10     1     3   am
    11     3     4    1
    12     4     5    1
    13     5     6   ar
    14     6     7   ar
    15     7     8   ar
    16     8    12    1
    17    12    13    2
    18    12    14    2
    19    12    15    1
    20    15    17    1
    21    17    18   ar
    22    18    19   ar
    23    19    20   ar
    24    20    22    1
    25    22    23   ar
    26    23    24   ar
    27    24    25   ar
    28    25    26   ar
    29    26    28    1
    30    28    29    1
    31    28    30    1
    32    26    27   ar
    33    20    21   ar
    34     8     9   ar
    35     9    10   ar
    36    10    11    1
    37    36    37   ar
    38    37    32   ar
    39    11     3    1
    40    10     5   ar
    41    21    17   ar
    42    27    22   ar
    43    15    16    1
@<TRIPOS>MOLECULE
*****
 39 43 0 0 0
SMALL
GASTEIGER

@<TRIPOS>ATOM
      1 C         -24.6720   -8.3929  -11.1473 C.2     1  UNL1        0.2306
      2 O         -25.2209   -9.3886  -10.6022 O.2     1  UNL1       -0.2745
      3 N         -25.4738   -7.4663  -11.9012 N.am    1  UNL1       -0.2711
      4 C         -26.8688   -7.7282  -12.2638 C.3     1  UNL1        0.1202
      5 C         -27.1617   -6.6669  -13.2588 C.ar    1  UNL1       -0.0046
      6 C         -28.2646   -6.5774  -14.1086 C.ar    1  UNL1       -0.0015
      7 C         -28.2345   -5.6378  -15.1520 C.ar    1  UNL1        0.0199
      8 C         -27.1043   -4.8106  -15.3340 C.ar    1  UNL1        0.1249
      9 C         -26.0314   -4.8850  -14.4304 C.ar    1  UNL1        0.0173
     10 C         -26.0807   -5.8307  -13.4092 C.ar    1  UNL1       -0.0033
     11 C         -24.9581   -6.2595  -12.5500 C.3     1  UNL1        0.1202
     12 S         -26.9467   -3.8088  -16.7735 S.O2    1  UNL1        0.0748
     13 O         -28.0131   -4.1604  -17.7726 O.2     1  UNL1       -0.1499
     14 O         -27.0991   -2.3683  -16.3748 O.2     1  UNL1       -0.1499
     15 N         -25.3918   -4.0403  -17.5126 N.pl3   1  UNL1       -0.1962
     16 H         -24.8438   -3.1937  -17.7831 H       1  UNL1        0.1754
     17 C         -24.8717   -5.3362  -17.8333 C.ar    1  UNL1        0.1899
     18 C         -25.0682   -6.0208  -19.0105 C.ar    1  UNL1        0.1594
     19 N         -24.3899   -7.1799  -18.9110 N.ar    1  UNL1       -0.1433
     20 N         -23.8072   -7.1712  -17.7185 N.ar    1  UNL1       -0.1466
     21 N         -24.0799   -6.0696  -17.0339 N.ar    1  UNL1       -0.1299
     22 C         -22.9715   -8.2292  -17.2224 C.ar    1  UNL1        0.1026
     23 C         -21.7502   -7.9299  -16.6000 C.ar    1  UNL1        0.0209
     24 C         -20.9480   -8.9508  -16.0899 C.ar    1  UNL1        0.0013
     25 C         -21.3674  -10.2799  -16.1715 C.ar    1  UNL1       -0.0042
     26 C         -22.5919  -10.6050  -16.7803 C.ar    1  UNL1       -0.0210
     27 C         -23.3770   -9.5705  -17.3290 C.ar    1  UNL1        0.0166
     28 C         -23.0570  -12.0501  -16.8170 C.3     1  UNL1        0.0224
     29 C         -21.9836  -12.9952  -16.2619 C.3     1  UNL1        0.0047
     30 C         -24.3840  -12.2253  -16.0723 C.3     1  UNL1        0.0047
     31 C         -23.1786   -8.2364  -11.0368 C.3     1  UNL1        0.1117
     32 C         -20.6108  -11.0726  -11.1461 C.ar    1  UNL1        0.1384
     33 C         -21.1325  -11.8593  -12.1763 C.ar    1  UNL1        0.0369
     34 C         -22.3098  -11.4855  -12.8281 C.ar    1  UNL1        0.0028
     35 C         -22.9737  -10.3134  -12.4587 C.ar    1  UNL1       -0.0036
     36 C         -22.4758   -9.5167  -11.4151 C.ar    1  UNL1       -0.0101
     37 C         -21.3079   -9.9183  -10.7427 C.ar    1  UNL1        0.0331
     38 C         -18.6681  -10.6743   -9.6255 C.3     1  UNL1        0.2525
     39 O         -19.3983  -11.4631  -10.5592 O.3     1  UNL1       -0.4714
@<TRIPOS>BOND
     1    38    39    1
     2    39    32    1
     3    32    33   ar
     4    33    34   ar
     5    34    35   ar
     6    35    36   ar
     7    36    31    1
     8    31     1    1
     9     1     2    2
    10     1     3   am
    11     3     4    1
    12     4     5    1
    13     5     6   ar
    14     6     7   ar
    15     7     8   ar
    16     8    12    1
    17    12    13    2
    18    12    14    2
    19    12    15    1
    20    15    17    1
    21    17    18   ar
    22    18    19   ar
    23    19    20   ar
    24    20    22    1
    25    22    23   ar
    26    23    24   ar
    27    24    25   ar
    28    25    26   ar
    29    26    28    1
    30    28    29    1
    31    28    30    1
    32    26    27   ar
    33    20    21   ar
    34     8     9   ar
    35     9    10   ar
    36    10    11    1
    37    36    37   ar
    38    37    32   ar
    39    11     3    1
    40    10     5   ar
    41    21    17   ar
    42    27    22   ar
    43    15    16    1
@<TRIPOS>MOLECULE
*****
 39 43 0 0 0
SMALL
GASTEIGER

@<TRIPOS>ATOM
      1 C         -21.7088   -8.5023   -8.7426 C.2     1  UNL1        0.2306
      2 O         -22.3525   -8.6182   -7.6646 O.2     1  UNL1       -0.2745
      3 N         -22.3195   -8.9096   -9.9799 N.am    1  UNL1       -0.2711
      4 C         -23.5741   -9.6633  -10.0413 C.3     1  UNL1        0.1202
      5 C         -23.6352  -10.0980  -11.4588 C.ar    1  UNL1       -0.0046
      6 C         -24.4942  -11.0412  -12.0239 C.ar    1  UNL1       -0.0015
      7 C         -24.2277  -11.4986  -13.3248 C.ar    1  UNL1        0.0199
      8 C         -23.1074  -11.0140  -14.0353 C.ar    1  UNL1        0.1249
      9 C         -22.2912  -10.0247  -13.4622 C.ar    1  UNL1        0.0173
     10 C         -22.5706   -9.5937  -12.1677 C.ar    1  UNL1       -0.0033
     11 C         -21.6871   -8.7936  -11.2951 C.3     1  UNL1        0.1202
     12 S         -22.6204  -11.7532  -15.5574 S.O2    1  UNL1        0.0748
     13 O         -21.8412  -13.0124  -15.2996 O.2     1  UNL1       -0.1499
     14 O         -23.8551  -12.0891  -16.3446 O.2     1  UNL1       -0.1499
     15 N         -21.6296  -10.6628  -16.4776 N.pl3   1  UNL1       -0.1962
     16 H         -20.7105  -11.0107  -16.8305 H       1  UNL1        0.1754
     17 C         -21.9867   -9.2936  -16.7021 C.ar    1  UNL1        0.1899
     18 C         -21.2218   -8.1937  -16.3891 C.ar    1  UNL1        0.1594
     19 N         -21.9109   -7.1073  -16.7871 N.ar    1  UNL1       -0.1433
     20 N         -23.0386   -7.5558  -17.3243 N.ar    1  UNL1       -0.1466
     21 N         -23.1220   -8.8780  -17.2873 N.ar    1  UNL1       -0.1299
     22 C         -24.0547   -6.7106  -17.8876 C.ar    1  UNL1        0.1026
     23 C         -24.4665   -6.8929  -19.2163 C.ar    1  UNL1        0.0209
     24 C         -25.4731   -6.0949  -19.7601 C.ar    1  UNL1        0.0013
     25 C         -26.0987   -5.1235  -18.9764 C.ar    1  UNL1       -0.0042
     26 C         -25.7121   -4.9287  -17.6392 C.ar    1  UNL1       -0.0210
     27 C         -24.6662   -5.7122  -17.1103 C.ar    1  UNL1        0.0166
     28 C         -26.4359   -3.9024  -16.7855 C.3     1  UNL1        0.0224
     29 C         -27.6991   -3.3858  -17.4863 C.3     1  UNL1        0.0047
     30 C         -26.7658   -4.4659  -15.4000 C.3     1  UNL1        0.0047
     31 C         -20.2937   -7.9904   -8.6916 C.3     1  UNL1        0.1117
     32 C         -17.9171  -10.3134   -6.7929 C.ar    1  UNL1        0.1384
     33 C         -17.4778  -11.1426   -7.8282 C.ar    1  UNL1        0.0369
     34 C         -17.9497  -10.9625   -9.1303 C.ar    1  UNL1        0.0028
     35 C         -18.8627   -9.9432   -9.4104 C.ar    1  UNL1       -0.0036
     36 C         -19.3297   -9.1089   -8.3820 C.ar    1  UNL1       -0.0101
     37 C         -18.8740   -9.3187   -7.0682 C.ar    1  UNL1        0.0331
     38 C         -17.8452   -9.8509   -4.3381 C.3     1  UNL1        0.2525
     39 O         -17.3734  -10.5010   -5.5136 O.3     1  UNL1       -0.4714
@<TRIPOS>BOND
     1    38    39    1
     2    39    32    1
     3    32    33   ar
     4    33    34   ar
     5    34    35   ar
     6    35    36   ar
     7    36    31    1
     8    31     1    1
     9     1     2    2
    10     1     3   am
    11     3     4    1
    12     4     5    1
    13     5     6   ar
    14     6     7   ar
    15     7     8   ar
    16     8    12    1
    17    12    13    2
    18    12    14    2
    19    12    15    1
    20    15    17    1
    21    17    18   ar
    22    18    19   ar
    23    19    20   ar
    24    20    22    1
    25    22    23   ar
    26    23    24   ar
    27    24    25   ar
    28    25    26   ar
    29    26    28    1
    30    28    29    1
    31    28    30    1
    32    26    27   ar
    33    20    21   ar
    34     8     9   ar
    35     9    10   ar
    36    10    11    1
    37    36    37   ar
    38    37    32   ar
    39    11     3    1
    40    10     5   ar
    41    21    17   ar
    42    27    22   ar
    43    15    16    1
