@<TRIPOS>MOLECULE
*****
 47 52 0 0 0
SMALL
GASTEIGER

@<TRIPOS>ATOM
      1 C         -26.4666   50.7694  -10.0949 C.ar    1  UNL1        0.0661
      2 C         -27.2884   51.1475  -11.1670 C.ar    1  UNL1        0.1146
      3 N         -28.2513   50.3098  -11.6266 N.ar    1  UNL1       -0.2279
      4 C         -28.4554   49.0780  -11.0900 C.ar    1  UNL1        0.1315
      5 C         -27.6709   48.6634  -10.0042 C.ar    1  UNL1        0.0313
      6 C         -26.6723   49.5089   -9.4840 C.ar    1  UNL1       -0.0047
      7 N         -29.5008   48.2387  -11.6150 N.pl3   1  UNL1       -0.2933
      8 C         -30.7096   48.8100  -12.2253 C.3     1  UNL1        0.0923
      9 C         -30.9771   48.1696  -13.5965 C.3     1  UNL1        0.0252
     10 C         -30.6007   46.6623  -13.6552 C.3     1  UNL1        0.0472
     11 C         -30.4734   46.0396  -12.2502 C.3     1  UNL1        0.0252
     12 C         -29.4030   46.7825  -11.4366 C.3     1  UNL1        0.0923
     13 C         -31.5839   45.8672  -14.5285 C.3     1  UNL1        0.2054
     14 O         -30.8964   45.2444  -15.6128 O.3     1  UNL1       -0.4755
     15 C         -30.2857   45.9362  -16.6687 C.ar    1  UNL1        0.1388
     16 C         -29.9580   45.3149  -17.8879 C.ar    1  UNL1        0.0369
     17 C         -29.3503   46.0492  -18.9083 C.ar    1  UNL1        0.0033
     18 C         -29.0640   47.4039  -18.7261 C.ar    1  UNL1        0.0066
     19 C         -29.3843   48.0414  -17.5146 C.ar    1  UNL1        0.0785
     20 C         -29.9962   47.2949  -16.4918 C.ar    1  UNL1        0.0433
     21 C         -29.0837   49.4764  -17.3147 C.2     1  UNL1        0.3381
     22 O         -27.8925   49.8663  -17.1768 O.2     1  UNL1       -0.2451
     23 O         -30.1152   50.4111  -17.2768 O.3     1  UNL1       -0.4771
     24 H         -29.9203   51.3959  -17.1405 H       1  UNL1        0.2954
     25 C         -24.0587   51.5180  -10.1851 C.2     1  UNL1        0.2839
     26 O         -23.8088   50.7259  -11.1334 O.2     1  UNL1       -0.2665
     27 N         -25.3978   51.6362   -9.6808 N.am    1  UNL1       -0.2769
     28 H         -25.6102   52.3891   -8.9884 H       1  UNL1        0.1553
     29 C         -23.7914   54.7079  -10.3340 C.3     1  UNL1        0.0345
     30 C         -22.8602   53.7371   -9.6724 C.ar    1  UNL1        0.0202
     31 C         -22.9808   52.3444   -9.6093 C.ar    1  UNL1        0.1946
     32 O         -21.9636   51.8325   -8.9392 O.2     1  UNL1       -0.4492
     33 C         -21.1902   52.8215   -8.5633 C.ar    1  UNL1        0.1452
     34 C         -20.0101   52.7392   -7.8328 C.ar    1  UNL1        0.0375
     35 C         -19.3340   53.9347   -7.5338 C.ar    1  UNL1        0.0031
     36 C         -19.8443   55.1882   -7.9671 C.ar    1  UNL1        0.0002
     37 C         -21.0492   55.2278   -8.7094 C.ar    1  UNL1        0.0028
     38 C         -21.6937   54.0217   -8.9884 C.ar    1  UNL1        0.0337
     39 C         -19.1214   56.4447   -7.6451 C.ar    1  UNL1        0.0000
     40 C         -19.3914   57.6287   -8.3577 C.ar    1  UNL1        0.0000
     41 C         -18.7092   58.8104   -8.0522 C.ar    1  UNL1        0.0000
     42 C         -17.7530   58.8248   -7.0344 C.ar    1  UNL1        0.0000
     43 C         -17.4765   57.6572   -6.3199 C.ar    1  UNL1        0.0000
     44 C         -18.1550   56.4723   -6.6216 C.ar    1  UNL1        0.0000
     45 C         -25.8497   49.0567   -8.2826 C.3     1  UNL1        0.0237
     46 C         -26.1014   47.5755   -7.9822 C.3     1  UNL1        0.0047
     47 C         -26.1240   49.9245   -7.0459 C.3     1  UNL1        0.0047
@<TRIPOS>BOND
     1    29    30    1
     2    30    31   ar
     3    31    25    1
     4    25    26    2
     5    25    27   am
     6    27     1    1
     7     1     2   ar
     8     2     3   ar
     9     3     4   ar
    10     4     7    1
    11     7     8    1
    12     8     9    1
    13     9    10    1
    14    10    13    1
    15    13    14    1
    16    14    15    1
    17    15    16   ar
    18    16    17   ar
    19    17    18   ar
    20    18    19   ar
    21    19    21    1
    22    21    22    2
    23    21    23    1
    24    19    20   ar
    25    10    11    1
    26    11    12    1
    27     4     5   ar
    28     5     6   ar
    29     6    45    1
    30    45    46    1
    31    45    47    1
    32    31    32   ar
    33    32    33   ar
    34    33    34   ar
    35    34    35   ar
    36    35    36   ar
    37    36    39    1
    38    39    40   ar
    39    40    41   ar
    40    41    42   ar
    41    42    43   ar
    42    43    44   ar
    43    36    37   ar
    44    37    38   ar
    45    38    30   ar
    46     6     1   ar
    47    38    33   ar
    48    12     7    1
    49    44    39   ar
    50    20    15   ar
    51    27    28    1
    52    23    24    1
