@<TRIPOS>MOLECULE
*****
 34 39 0 0 0
SMALL
GASTEIGER

@<TRIPOS>ATOM
      1 C         -24.5346   -8.3368  -12.3689 C.ar    1  UNL1        0.1095
      2 N         -25.7579   -7.8696  -12.7264 N.ar    1  UNL1       -0.1677
      3 N         -26.6086   -8.1471  -11.7454 N.ar    1  UNL1       -0.2319
      4 C         -28.0379   -7.8707  -11.7953 C.3     1  UNL1        0.1554
      5 C         -25.9459   -8.8068  -10.7830 C.ar    1  UNL1        0.1654
      6 N         -26.4618   -9.3229   -9.6416 N.ar    1  UNL1       -0.2050
      7 C         -25.6151   -9.9725   -8.7897 C.ar    1  UNL1        0.2014
      8 N         -24.2787  -10.0685   -9.0770 N.ar    1  UNL1       -0.2089
      9 C         -23.7513   -9.5492  -10.2264 C.ar    1  UNL1        0.1379
     10 C         -24.6320   -8.9288  -11.1156 C.ar    1  UNL1        0.0865
     11 C         -22.9313   -9.3485  -14.0913 C.ar    1  UNL1        0.0809
     12 C         -23.3783   -8.3235  -13.2766 C.ar    1  UNL1        0.0577
     13 C         -22.4246   -7.3298  -13.3937 C.ar    1  UNL1        0.1231
     14 N         -21.4697   -7.7284  -14.2567 N.ar    1  UNL1       -0.1676
     15 N         -21.7864   -8.9414  -14.6843 N.ar    1  UNL1       -0.2488
     16 C         -20.9773   -9.6792  -15.6490 C.3     1  UNL1        0.1537
     17 C         -25.6314  -14.3894  -15.0174 C.3     1  UNL1        0.0310
     18 C         -24.9525  -13.0775  -14.7578 C.ar    1  UNL1       -0.0218
     19 C         -23.9858  -12.9694  -13.7469 C.ar    1  UNL1       -0.0042
     20 C         -23.3271  -11.7560  -13.5274 C.ar    1  UNL1        0.0012
     21 C         -23.6142  -10.6393  -14.3268 C.ar    1  UNL1        0.0174
     22 C         -24.5725  -10.7522  -15.3466 C.ar    1  UNL1        0.0012
     23 C         -25.2314  -11.9652  -15.5657 C.ar    1  UNL1       -0.0042
     24 N         -22.3327   -9.5466  -10.4235 N.pl3   1  UNL1       -0.2917
     25 C         -21.6031  -10.7544  -10.7672 C.3     1  UNL1        0.0937
     26 C         -20.1270  -10.4117  -10.6038 C.3     1  UNL1        0.0391
     27 C         -20.0732   -9.1137   -9.7811 C.3     1  UNL1        0.0790
     28 C         -21.4831   -8.5046   -9.8679 C.3     1  UNL1        0.1081
     29 N         -19.5886   -9.3580   -8.3943 N.3     1  UNL1       -0.2723
     30 C         -19.5499   -8.1594   -7.5227 C.3     1  UNL1        0.0721
     31 C         -19.2559   -8.5713   -6.0768 C.3     1  UNL1        0.0174
     32 C         -17.9377   -9.3462   -5.9967 C.3     1  UNL1        0.0029
     33 C         -17.9470  -10.5296   -6.9680 C.3     1  UNL1        0.0174
     34 C         -18.2880  -10.0609   -8.3865 C.3     1  UNL1        0.0721
@<TRIPOS>BOND
     1    17    18    1
     2    18    19   ar
     3    19    20   ar
     4    20    21   ar
     5    21    11    1
     6    11    12   ar
     7    12     1    1
     8     1     2   ar
     9     2     3   ar
    10     3     4    1
    11     3     5   ar
    12     5     6   ar
    13     6     7   ar
    14     7     8   ar
    15     8     9   ar
    16     9    24    1
    17    24    25    1
    18    25    26    1
    19    26    27    1
    20    27    29    1
    21    29    30    1
    22    30    31    1
    23    31    32    1
    24    32    33    1
    25    33    34    1
    26    27    28    1
    27     9    10   ar
    28    12    13   ar
    29    13    14   ar
    30    14    15   ar
    31    15    16    1
    32    21    22   ar
    33    22    23   ar
    34    23    18   ar
    35    15    11   ar
    36    10     1   ar
    37    10     5   ar
    38    28    24    1
    39    34    29    1
@<TRIPOS>MOLECULE
*****
 34 39 0 0 0
SMALL
GASTEIGER

@<TRIPOS>ATOM
      1 C         -26.1437   -6.6790  -14.4632 C.ar    1  UNL1        0.1095
      2 N         -26.6956   -5.5821  -15.0421 N.ar    1  UNL1       -0.1677
      3 N         -25.9645   -5.2639  -16.1039 N.ar    1  UNL1       -0.2319
      4 C         -26.1974   -4.0944  -16.9404 C.3     1  UNL1        0.1554
      5 C         -24.9424   -6.1289  -16.1901 C.ar    1  UNL1        0.1654
      6 N         -23.9333   -6.1147  -17.0939 N.ar    1  UNL1       -0.2050
      7 C         -22.9769   -7.0853  -17.0048 C.ar    1  UNL1        0.2014
      8 N         -23.0608   -8.0578  -16.0431 N.ar    1  UNL1       -0.2089
      9 C         -24.0769   -8.0788  -15.1287 C.ar    1  UNL1        0.1379
     10 C         -25.0246   -7.0547  -15.1961 C.ar    1  UNL1        0.0865
     11 C         -25.9418   -7.2533  -11.9752 C.ar    1  UNL1        0.0809
     12 C         -26.6147   -7.2288  -13.1839 C.ar    1  UNL1        0.0577
     13 C         -27.7700   -7.9560  -12.9664 C.ar    1  UNL1        0.1231
     14 N         -27.8008   -8.3706  -11.6848 N.ar    1  UNL1       -0.1676
     15 N         -26.7021   -7.9336  -11.0878 N.ar    1  UNL1       -0.2488
     16 C         -26.4098   -8.1853   -9.6804 C.3     1  UNL1        0.1537
     17 C         -20.8811   -4.6695  -10.8471 C.3     1  UNL1        0.0310
     18 C         -22.1820   -5.3445  -11.1661 C.ar    1  UNL1       -0.0218
     19 C         -22.3322   -6.7239  -10.9596 C.ar    1  UNL1       -0.0042
     20 C         -23.5551   -7.3478  -11.2234 C.ar    1  UNL1        0.0012
     21 C         -24.6490   -6.5977  -11.6809 C.ar    1  UNL1        0.0174
     22 C         -24.5012   -5.2150  -11.8749 C.ar    1  UNL1        0.0012
     23 C         -23.2784   -4.5915  -11.6117 C.ar    1  UNL1       -0.0042
     24 N         -24.2066   -9.1871  -14.2308 N.pl3   1  UNL1       -0.2917
     25 C         -23.1154   -9.6106  -13.3713 C.3     1  UNL1        0.0937
     26 C         -23.5323  -10.9614  -12.8016 C.3     1  UNL1        0.0391
     27 C         -24.6973  -11.4574  -13.6741 C.3     1  UNL1        0.0790
     28 C         -25.2132  -10.2190  -14.4267 C.3     1  UNL1        0.1081
     29 N         -24.2880  -12.5891  -14.5514 N.3     1  UNL1       -0.2723
     30 C         -25.2406  -13.7240  -14.5973 C.3     1  UNL1        0.0721
     31 C         -24.8270  -14.7124  -15.6922 C.3     1  UNL1        0.0174
     32 C         -23.3983  -15.2094  -15.4550 C.3     1  UNL1        0.0029
     33 C         -22.4324  -14.0298  -15.3148 C.3     1  UNL1        0.0174
     34 C         -22.9214  -13.0570  -14.2366 C.3     1  UNL1        0.0721
@<TRIPOS>BOND
     1    17    18    1
     2    18    19   ar
     3    19    20   ar
     4    20    21   ar
     5    21    11    1
     6    11    12   ar
     7    12     1    1
     8     1     2   ar
     9     2     3   ar
    10     3     4    1
    11     3     5   ar
    12     5     6   ar
    13     6     7   ar
    14     7     8   ar
    15     8     9   ar
    16     9    24    1
    17    24    25    1
    18    25    26    1
    19    26    27    1
    20    27    29    1
    21    29    30    1
    22    30    31    1
    23    31    32    1
    24    32    33    1
    25    33    34    1
    26    27    28    1
    27     9    10   ar
    28    12    13   ar
    29    13    14   ar
    30    14    15   ar
    31    15    16    1
    32    21    22   ar
    33    22    23   ar
    34    23    18   ar
    35    15    11   ar
    36    10     1   ar
    37    10     5   ar
    38    28    24    1
    39    34    29    1
@<TRIPOS>MOLECULE
*****
 34 39 0 0 0
SMALL
GASTEIGER

@<TRIPOS>ATOM
      1 C         -22.2671   -8.9542  -10.1815 C.ar    1  UNL1        0.1095
      2 N         -21.5465   -8.2447   -9.2760 N.ar    1  UNL1       -0.1677
      3 N         -20.3981   -8.8799   -9.0734 N.ar    1  UNL1       -0.2319
      4 C         -19.3899   -8.4654   -8.1073 C.3     1  UNL1        0.1554
      5 C         -20.3931   -9.9956   -9.8188 C.ar    1  UNL1        0.1654
      6 N         -19.4337  -10.9514   -9.8534 N.ar    1  UNL1       -0.2050
      7 C         -19.6236  -12.0233  -10.6778 C.ar    1  UNL1        0.2014
      8 N         -20.7424  -12.1054  -11.4648 N.ar    1  UNL1       -0.2089
      9 C         -21.7140  -11.1440  -11.4355 C.ar    1  UNL1        0.1379
     10 C         -21.5355  -10.0752  -10.5540 C.ar    1  UNL1        0.0865
     11 C         -24.1196   -8.1558  -11.7600 C.ar    1  UNL1        0.0809
     12 C         -23.6515   -8.6156  -10.5419 C.ar    1  UNL1        0.0577
     13 C         -24.7410   -8.5573   -9.6933 C.ar    1  UNL1        0.1231
     14 N         -25.8140   -8.1121  -10.3759 N.ar    1  UNL1       -0.1676
     15 N         -25.4371   -7.8834  -11.6250 N.ar    1  UNL1       -0.2488
     16 C         -26.3529   -7.4045  -12.6552 C.3     1  UNL1        0.1537
     17 C         -21.0721   -7.7307  -16.6682 C.3     1  UNL1        0.0310
     18 C         -21.8544   -7.8691  -15.3961 C.ar    1  UNL1       -0.0218
     19 C         -21.2207   -7.7073  -14.1550 C.ar    1  UNL1       -0.0042
     20 C         -21.9560   -7.8012  -12.9697 C.ar    1  UNL1        0.0012
     21 C         -23.3377   -8.0414  -13.0104 C.ar    1  UNL1        0.0174
     22 C         -23.9732   -8.1904  -14.2534 C.ar    1  UNL1        0.0012
     23 C         -23.2379   -8.0970  -15.4383 C.ar    1  UNL1       -0.0042
     24 N         -22.7967  -11.1945  -12.3718 N.pl3   1  UNL1       -0.2917
     25 C         -24.1556  -11.4974  -11.9585 C.3     1  UNL1        0.0937
     26 C         -24.9384  -11.7418  -13.2432 C.3     1  UNL1        0.0391
     27 C         -23.8942  -11.9584  -14.3510 C.3     1  UNL1        0.0790
     28 C         -22.5719  -11.4041  -13.7937 C.3     1  UNL1        0.1081
     29 N         -23.8351  -13.3820  -14.7842 N.3     1  UNL1       -0.2723
     30 C         -22.4687  -13.9412  -14.9177 C.3     1  UNL1        0.0721
     31 C         -22.5409  -15.4545  -15.1445 C.3     1  UNL1        0.0174
     32 C         -23.3831  -15.7723  -16.3830 C.3     1  UNL1        0.0029
     33 C         -24.7617  -15.1138  -16.2822 C.3     1  UNL1        0.0174
     34 C         -24.6239  -13.6116  -16.0133 C.3     1  UNL1        0.0721
@<TRIPOS>BOND
     1    17    18    1
     2    18    19   ar
     3    19    20   ar
     4    20    21   ar
     5    21    11    1
     6    11    12   ar
     7    12     1    1
     8     1     2   ar
     9     2     3   ar
    10     3     4    1
    11     3     5   ar
    12     5     6   ar
    13     6     7   ar
    14     7     8   ar
    15     8     9   ar
    16     9    24    1
    17    24    25    1
    18    25    26    1
    19    26    27    1
    20    27    29    1
    21    29    30    1
    22    30    31    1
    23    31    32    1
    24    32    33    1
    25    33    34    1
    26    27    28    1
    27     9    10   ar
    28    12    13   ar
    29    13    14   ar
    30    14    15   ar
    31    15    16    1
    32    21    22   ar
    33    22    23   ar
    34    23    18   ar
    35    15    11   ar
    36    10     1   ar
    37    10     5   ar
    38    28    24    1
    39    34    29    1
@<TRIPOS>MOLECULE
*****
 34 39 0 0 0
SMALL
GASTEIGER

@<TRIPOS>ATOM
      1 C         -24.4244   -9.8798  -13.1251 C.ar    1  UNL1        0.1095
      2 N         -24.8697  -10.8222  -13.9948 N.ar    1  UNL1       -0.1677
      3 N         -24.1032  -10.7789  -15.0782 N.ar    1  UNL1       -0.2319
      4 C         -24.3187  -11.5894  -16.2692 C.3     1  UNL1        0.1554
      5 C         -23.1951   -9.8044  -14.9170 C.ar    1  UNL1        0.1654
      6 N         -22.2674   -9.3946  -15.8152 N.ar    1  UNL1       -0.2050
      7 C         -21.4361   -8.3714  -15.4592 C.ar    1  UNL1        0.2014
      8 N         -21.5271   -7.8022  -14.2160 N.ar    1  UNL1       -0.2089
      9 C         -22.4601   -8.2115  -13.3045 C.ar    1  UNL1        0.1379
     10 C         -23.3385   -9.2256  -13.6937 C.ar    1  UNL1        0.0865
     11 C         -25.9398   -8.4668  -11.6192 C.ar    1  UNL1        0.0809
     12 C         -25.1235   -9.5545  -11.8735 C.ar    1  UNL1        0.0577
     13 C         -24.9934  -10.1981  -10.6571 C.ar    1  UNL1        0.1231
     14 N         -25.7181   -9.5448   -9.7278 N.ar    1  UNL1       -0.1676
     15 N         -26.2971   -8.5087  -10.3158 N.ar    1  UNL1       -0.2488
     16 C         -27.1756   -7.5832   -9.6077 C.3     1  UNL1        0.1537
     17 C         -27.7247   -4.5295  -15.4755 C.3     1  UNL1        0.0310
     18 C         -27.2781   -5.5354  -14.4565 C.ar    1  UNL1       -0.0218
     19 C         -28.0438   -6.6860  -14.2160 C.ar    1  UNL1       -0.0042
     20 C         -27.6106   -7.6414  -13.2919 C.ar    1  UNL1        0.0012
     21 C         -26.3977   -7.4670  -12.6085 C.ar    1  UNL1        0.0174
     22 C         -25.6259   -6.3213  -12.8594 C.ar    1  UNL1        0.0012
     23 C         -26.0594   -5.3660  -13.7830 C.ar    1  UNL1       -0.0042
     24 N         -22.4321   -7.6900  -11.9709 N.pl3   1  UNL1       -0.2917
     25 C         -21.9072   -6.3689  -11.6740 C.3     1  UNL1        0.0937
     26 C         -21.7809   -6.3007  -10.1566 C.3     1  UNL1        0.0391
     27 C         -21.8708   -7.7498   -9.6500 C.3     1  UNL1        0.0790
     28 C         -22.4818   -8.5600  -10.8060 C.3     1  UNL1        0.1081
     29 N         -20.5525   -8.2509   -9.1716 N.3     1  UNL1       -0.2723
     30 C         -20.1351   -9.5566   -9.7359 C.3     1  UNL1        0.0721
     31 C         -18.6827   -9.8546   -9.3506 C.3     1  UNL1        0.0174
     32 C         -18.5174   -9.8409   -7.8285 C.3     1  UNL1        0.0029
     33 C         -19.0369   -8.5261   -7.2406 C.3     1  UNL1        0.0174
     34 C         -20.4764   -8.2632   -7.6952 C.3     1  UNL1        0.0721
@<TRIPOS>BOND
     1    17    18    1
     2    18    19   ar
     3    19    20   ar
     4    20    21   ar
     5    21    11    1
     6    11    12   ar
     7    12     1    1
     8     1     2   ar
     9     2     3   ar
    10     3     4    1
    11     3     5   ar
    12     5     6   ar
    13     6     7   ar
    14     7     8   ar
    15     8     9   ar
    16     9    24    1
    17    24    25    1
    18    25    26    1
    19    26    27    1
    20    27    29    1
    21    29    30    1
    22    30    31    1
    23    31    32    1
    24    32    33    1
    25    33    34    1
    26    27    28    1
    27     9    10   ar
    28    12    13   ar
    29    13    14   ar
    30    14    15   ar
    31    15    16    1
    32    21    22   ar
    33    22    23   ar
    34    23    18   ar
    35    15    11   ar
    36    10     1   ar
    37    10     5   ar
    38    28    24    1
    39    34    29    1
@<TRIPOS>MOLECULE
*****
 34 39 0 0 0
SMALL
GASTEIGER

@<TRIPOS>ATOM
      1 C         -24.0224   -7.0881  -11.7163 C.ar    1  UNL1        0.1095
      2 N         -23.6126   -5.8465  -11.3512 N.ar    1  UNL1       -0.1677
      3 N         -22.2932   -5.7899  -11.4900 N.ar    1  UNL1       -0.2319
      4 C         -21.4775   -4.6409  -11.1211 C.3     1  UNL1        0.1554
      5 C         -21.8593   -6.9869  -11.9133 C.ar    1  UNL1        0.1654
      6 N         -20.5747   -7.3651  -12.1185 N.ar    1  UNL1       -0.2050
      7 C         -20.3405   -8.6413  -12.5441 C.ar    1  UNL1        0.2014
      8 N         -21.3838   -9.4974  -12.7816 N.ar    1  UNL1       -0.2089
      9 C         -22.6824   -9.1220  -12.5776 C.ar    1  UNL1        0.1379
     10 C         -22.9111   -7.8309  -12.0958 C.ar    1  UNL1        0.0865
     11 C         -26.5045   -7.2144  -12.3358 C.ar    1  UNL1        0.0809
     12 C         -25.4093   -7.5494  -11.5596 C.ar    1  UNL1        0.0577
     13 C         -25.9226   -8.3021  -10.5201 C.ar    1  UNL1        0.1231
     14 N         -27.2537   -8.4349  -10.6813 N.ar    1  UNL1       -0.1676
     15 N         -27.5980   -7.7878  -11.7846 N.ar    1  UNL1       -0.2488
     16 C         -28.9703   -7.7341  -12.2777 C.3     1  UNL1        0.1537
     17 C         -26.3847   -4.1144  -17.2281 C.3     1  UNL1        0.0310
     18 C         -26.3989   -4.8970  -15.9487 C.ar    1  UNL1       -0.0218
     19 C         -27.3710   -4.6366  -14.9712 C.ar    1  UNL1       -0.0042
     20 C         -27.4067   -5.3892  -13.7936 C.ar    1  UNL1        0.0012
     21 C         -26.4814   -6.4232  -13.5853 C.ar    1  UNL1        0.0174
     22 C         -25.5172   -6.6913  -14.5699 C.ar    1  UNL1        0.0012
     23 C         -25.4812   -5.9385  -15.7470 C.ar    1  UNL1       -0.0042
     24 N         -23.7480   -9.9952  -12.9694 N.pl3   1  UNL1       -0.2917
     25 C         -24.2703  -11.0167  -12.0790 C.3     1  UNL1        0.0937
     26 C         -25.1632  -11.9037  -12.9387 C.3     1  UNL1        0.0391
     27 C         -24.8077  -11.5868  -14.4008 C.3     1  UNL1        0.0790
     28 C         -24.0628  -10.2413  -14.3682 C.3     1  UNL1        0.1081
     29 N         -24.0499  -12.6988  -15.0389 N.3     1  UNL1       -0.2723
     30 C         -24.6524  -14.0434  -14.8759 C.3     1  UNL1        0.0721
     31 C         -23.9155  -15.0587  -15.7550 C.3     1  UNL1        0.0174
     32 C         -22.4238  -15.0845  -15.4105 C.3     1  UNL1        0.0029
     33 C         -21.8268  -13.6769  -15.4894 C.3     1  UNL1        0.0174
     34 C         -22.6308  -12.7004  -14.6244 C.3     1  UNL1        0.0721
@<TRIPOS>BOND
     1    17    18    1
     2    18    19   ar
     3    19    20   ar
     4    20    21   ar
     5    21    11    1
     6    11    12   ar
     7    12     1    1
     8     1     2   ar
     9     2     3   ar
    10     3     4    1
    11     3     5   ar
    12     5     6   ar
    13     6     7   ar
    14     7     8   ar
    15     8     9   ar
    16     9    24    1
    17    24    25    1
    18    25    26    1
    19    26    27    1
    20    27    29    1
    21    29    30    1
    22    30    31    1
    23    31    32    1
    24    32    33    1
    25    33    34    1
    26    27    28    1
    27     9    10   ar
    28    12    13   ar
    29    13    14   ar
    30    14    15   ar
    31    15    16    1
    32    21    22   ar
    33    22    23   ar
    34    23    18   ar
    35    15    11   ar
    36    10     1   ar
    37    10     5   ar
    38    28    24    1
    39    34    29    1
@<TRIPOS>MOLECULE
*****
 34 39 0 0 0
SMALL
GASTEIGER

@<TRIPOS>ATOM
      1 C         -24.0045  -10.4559  -12.2549 C.ar    1  UNL1        0.1095
      2 N         -24.7237  -10.7597  -11.1445 N.ar    1  UNL1       -0.1677
      3 N         -25.0158   -9.6256  -10.5187 N.ar    1  UNL1       -0.2319
      4 C         -25.7130   -9.5483   -9.2421 C.3     1  UNL1        0.1554
      5 C         -24.4689   -8.6098  -11.2040 C.ar    1  UNL1        0.1654
      6 N         -24.4810   -7.2972  -10.8689 N.ar    1  UNL1       -0.2050
      7 C         -23.8536   -6.4154  -11.7016 C.ar    1  UNL1        0.2014
      8 N         -23.2571   -6.8527  -12.8552 N.ar    1  UNL1       -0.2089
      9 C         -23.2421   -8.1756  -13.1999 C.ar    1  UNL1        0.1379
     10 C         -23.8437   -9.0772  -12.3187 C.ar    1  UNL1        0.0865
     11 C         -22.0966  -11.9561  -13.0734 C.ar    1  UNL1        0.0809
     12 C         -23.3947  -11.4794  -13.1160 C.ar    1  UNL1        0.0577
     13 C         -23.9580  -12.0708  -14.2312 C.ar    1  UNL1        0.1231
     14 N         -23.0518  -12.8823  -14.8106 N.ar    1  UNL1       -0.1676
     15 N         -21.9349  -12.8195  -14.1013 N.ar    1  UNL1       -0.2488
     16 C         -20.7396  -13.5881  -14.4332 C.3     1  UNL1        0.1537
     17 C         -18.1046  -10.6664   -9.0783 C.3     1  UNL1        0.0310
     18 C         -19.1175  -10.9993  -10.1331 C.ar    1  UNL1       -0.0218
     19 C         -19.3500  -12.3350  -10.4938 C.ar    1  UNL1       -0.0042
     20 C         -20.3187  -12.6489  -11.4516 C.ar    1  UNL1        0.0012
     21 C         -21.0796  -11.6326  -12.0491 C.ar    1  UNL1        0.0174
     22 C         -20.8550  -10.2974  -11.6780 C.ar    1  UNL1        0.0012
     23 C         -19.8861   -9.9836  -10.7208 C.ar    1  UNL1       -0.0042
     24 N         -22.7332   -8.5747  -14.4778 N.pl3   1  UNL1       -0.2917
     25 C         -21.4372   -8.1315  -14.9607 C.3     1  UNL1        0.0937
     26 C         -21.3868   -8.5154  -16.4348 C.3     1  UNL1        0.0391
     27 C         -22.8351   -8.8209  -16.8515 C.3     1  UNL1        0.0790
     28 C         -23.6100   -9.0408  -15.5410 C.3     1  UNL1        0.1081
     29 N         -23.3938   -7.7562  -17.7300 N.3     1  UNL1       -0.2723
     30 C         -24.1383   -6.6863  -17.0238 C.3     1  UNL1        0.0721
     31 C         -24.4648   -5.5462  -17.9935 C.3     1  UNL1        0.0174
     32 C         -25.2663   -6.0704  -19.1881 C.3     1  UNL1        0.0029
     33 C         -24.5365   -7.2378  -19.8578 C.3     1  UNL1        0.0174
     34 C         -24.2003   -8.3245  -18.8311 C.3     1  UNL1        0.0721
@<TRIPOS>BOND
     1    17    18    1
     2    18    19   ar
     3    19    20   ar
     4    20    21   ar
     5    21    11    1
     6    11    12   ar
     7    12     1    1
     8     1     2   ar
     9     2     3   ar
    10     3     4    1
    11     3     5   ar
    12     5     6   ar
    13     6     7   ar
    14     7     8   ar
    15     8     9   ar
    16     9    24    1
    17    24    25    1
    18    25    26    1
    19    26    27    1
    20    27    29    1
    21    29    30    1
    22    30    31    1
    23    31    32    1
    24    32    33    1
    25    33    34    1
    26    27    28    1
    27     9    10   ar
    28    12    13   ar
    29    13    14   ar
    30    14    15   ar
    31    15    16    1
    32    21    22   ar
    33    22    23   ar
    34    23    18   ar
    35    15    11   ar
    36    10     1   ar
    37    10     5   ar
    38    28    24    1
    39    34    29    1
@<TRIPOS>MOLECULE
*****
 34 39 0 0 0
SMALL
GASTEIGER

@<TRIPOS>ATOM
      1 C         -24.1034   -7.8155  -13.8132 C.ar    1  UNL1        0.1095
      2 N         -25.1183   -7.0761  -14.3287 N.ar    1  UNL1       -0.1677
      3 N         -25.9835   -6.8257  -13.3530 N.ar    1  UNL1       -0.2319
      4 C         -27.2460   -6.1225  -13.5356 C.3     1  UNL1        0.1554
      5 C         -25.5430   -7.4185  -12.2328 C.ar    1  UNL1        0.1654
      6 N         -26.1645   -7.4572  -11.0296 N.ar    1  UNL1       -0.2050
      7 C         -25.5501   -8.1263  -10.0100 C.ar    1  UNL1        0.2014
      8 N         -24.3267   -8.7132  -10.2013 N.ar    1  UNL1       -0.2089
      9 C         -23.6936   -8.6771  -11.4124 C.ar    1  UNL1        0.1379
     10 C         -24.3507   -8.0326  -12.4633 C.ar    1  UNL1        0.0865
     11 C         -22.8483   -9.7177  -14.9824 C.ar    1  UNL1        0.0809
     12 C         -23.0332   -8.3897  -14.6415 C.ar    1  UNL1        0.0577
     13 C         -21.9187   -7.7347  -15.1311 C.ar    1  UNL1        0.1231
     14 N         -21.1208   -8.6212  -15.7581 N.ar    1  UNL1       -0.1676
     15 N         -21.6920   -9.8135  -15.6767 N.ar    1  UNL1       -0.2488
     16 C         -21.1086  -11.0148  -16.2650 C.3     1  UNL1        0.1537
     17 C         -26.5170  -14.0616  -13.8728 C.3     1  UNL1        0.0310
     18 C         -25.5828  -12.9197  -14.1427 C.ar    1  UNL1       -0.0218
     19 C         -24.4824  -12.6926  -13.3027 C.ar    1  UNL1       -0.0042
     20 C         -23.5912  -11.6500  -13.5735 C.ar    1  UNL1        0.0012
     21 C         -23.7793  -10.8313  -14.6974 C.ar    1  UNL1        0.0174
     22 C         -24.8736  -11.0676  -15.5444 C.ar    1  UNL1        0.0012
     23 C         -25.7648  -12.1096  -15.2733 C.ar    1  UNL1       -0.0042
     24 N         -22.3577   -9.1790  -11.5350 N.pl3   1  UNL1       -0.2917
     25 C         -22.0309  -10.5671  -11.2603 C.3     1  UNL1        0.0937
     26 C         -20.5090  -10.6372  -11.2160 C.3     1  UNL1        0.0391
     27 C         -20.0136   -9.1882  -11.0766 C.3     1  UNL1        0.0790
     28 C         -21.2003   -8.2991  -11.4857 C.3     1  UNL1        0.1081
     29 N         -19.4769   -8.9162   -9.7143 N.3     1  UNL1       -0.2723
     30 C         -19.0809  -10.1193   -8.9440 C.3     1  UNL1        0.0721
     31 C         -18.3429   -9.7053   -7.6670 C.3     1  UNL1        0.0174
     32 C         -19.2172   -8.7782   -6.8182 C.3     1  UNL1        0.0029
     33 C         -19.7008   -7.5845   -7.6459 C.3     1  UNL1        0.0174
     34 C         -20.3914   -8.0611   -8.9281 C.3     1  UNL1        0.0721
@<TRIPOS>BOND
     1    17    18    1
     2    18    19   ar
     3    19    20   ar
     4    20    21   ar
     5    21    11    1
     6    11    12   ar
     7    12     1    1
     8     1     2   ar
     9     2     3   ar
    10     3     4    1
    11     3     5   ar
    12     5     6   ar
    13     6     7   ar
    14     7     8   ar
    15     8     9   ar
    16     9    24    1
    17    24    25    1
    18    25    26    1
    19    26    27    1
    20    27    29    1
    21    29    30    1
    22    30    31    1
    23    31    32    1
    24    32    33    1
    25    33    34    1
    26    27    28    1
    27     9    10   ar
    28    12    13   ar
    29    13    14   ar
    30    14    15   ar
    31    15    16    1
    32    21    22   ar
    33    22    23   ar
    34    23    18   ar
    35    15    11   ar
    36    10     1   ar
    37    10     5   ar
    38    28    24    1
    39    34    29    1
@<TRIPOS>MOLECULE
*****
 34 39 0 0 0
SMALL
GASTEIGER

@<TRIPOS>ATOM
      1 C         -24.5304   -8.9262  -11.6118 C.ar    1  UNL1        0.1095
      2 N         -24.2190   -9.9519  -10.7791 N.ar    1  UNL1       -0.1677
      3 N         -25.1138   -9.9735   -9.7982 N.ar    1  UNL1       -0.2319
      4 C         -25.0675  -10.8870   -8.6646 C.3     1  UNL1        0.1554
      5 C         -25.9723   -8.9592   -9.9846 C.ar    1  UNL1        0.1654
      6 N         -26.9955   -8.5949   -9.1749 N.ar    1  UNL1       -0.2050
      7 C         -27.7523   -7.5185   -9.5401 C.ar    1  UNL1        0.2014
      8 N         -27.4936   -6.8512  -10.7087 N.ar    1  UNL1       -0.2089
      9 C         -26.4634   -7.2142  -11.5309 C.ar    1  UNL1        0.1379
     10 C         -25.6638   -8.2858  -11.1262 C.ar    1  UNL1        0.0865
     11 C         -23.2983   -9.2809  -13.8292 C.ar    1  UNL1        0.0809
     12 C         -23.6730   -8.5214  -12.7352 C.ar    1  UNL1        0.0577
     13 C         -22.9571   -7.3448  -12.8527 C.ar    1  UNL1        0.1231
     14 N         -22.2130   -7.3864  -13.9752 N.ar    1  UNL1       -0.1676
     15 N         -22.4319   -8.5509  -14.5673 N.ar    1  UNL1       -0.2488
     16 C         -21.7988   -8.9331  -15.8253 C.3     1  UNL1        0.1537
     17 C         -25.2978  -14.5529  -15.1589 C.3     1  UNL1        0.0310
     18 C         -24.7894  -13.1916  -14.7873 C.ar    1  UNL1       -0.0218
     19 C         -23.4919  -13.0363  -14.2769 C.ar    1  UNL1       -0.0042
     20 C         -23.0046  -11.7641  -13.9632 C.ar    1  UNL1        0.0012
     21 C         -23.8022  -10.6288  -14.1717 C.ar    1  UNL1        0.0174
     22 C         -25.0958  -10.7842  -14.6947 C.ar    1  UNL1        0.0012
     23 C         -25.5831  -12.0562  -15.0077 C.ar    1  UNL1       -0.0042
     24 N         -26.3124   -6.5828  -12.8076 N.pl3   1  UNL1       -0.2917
     25 C         -25.6616   -5.2928  -12.9541 C.3     1  UNL1        0.0937
     26 C         -25.9538   -4.8367  -14.3787 C.3     1  UNL1        0.0391
     27 C         -27.1101   -5.7148  -14.8850 C.3     1  UNL1        0.0790
     28 C         -27.1614   -6.9260  -13.9380 C.3     1  UNL1        0.1081
     29 N         -28.3841   -4.9497  -14.9811 N.3     1  UNL1       -0.2723
     30 C         -29.6140   -5.7773  -14.9929 C.3     1  UNL1        0.0721
     31 C         -30.8504   -4.8818  -14.8666 C.3     1  UNL1        0.0174
     32 C         -30.8801   -3.8453  -15.9932 C.3     1  UNL1        0.0029
     33 C         -29.5689   -3.0561  -16.0358 C.3     1  UNL1        0.0174
     34 C         -28.3696   -4.0061  -16.1191 C.3     1  UNL1        0.0721
@<TRIPOS>BOND
     1    17    18    1
     2    18    19   ar
     3    19    20   ar
     4    20    21   ar
     5    21    11    1
     6    11    12   ar
     7    12     1    1
     8     1     2   ar
     9     2     3   ar
    10     3     4    1
    11     3     5   ar
    12     5     6   ar
    13     6     7   ar
    14     7     8   ar
    15     8     9   ar
    16     9    24    1
    17    24    25    1
    18    25    26    1
    19    26    27    1
    20    27    29    1
    21    29    30    1
    22    30    31    1
    23    31    32    1
    24    32    33    1
    25    33    34    1
    26    27    28    1
    27     9    10   ar
    28    12    13   ar
    29    13    14   ar
    30    14    15   ar
    31    15    16    1
    32    21    22   ar
    33    22    23   ar
    34    23    18   ar
    35    15    11   ar
    36    10     1   ar
    37    10     5   ar
    38    28    24    1
    39    34    29    1
@<TRIPOS>MOLECULE
*****
 34 39 0 0 0
SMALL
GASTEIGER

@<TRIPOS>ATOM
      1 C         -23.9040   -7.4661  -14.6264 C.ar    1  UNL1        0.1095
      2 N         -24.5141   -7.0857  -15.7778 N.ar    1  UNL1       -0.1677
      3 N         -23.6283   -7.1746  -16.7631 N.ar    1  UNL1       -0.2319
      4 C         -23.8885   -6.7751  -18.1395 C.3     1  UNL1        0.1554
      5 C         -22.4585   -7.5812  -16.2467 C.ar    1  UNL1        0.1654
      6 N         -21.2847   -7.7377  -16.9046 N.ar    1  UNL1       -0.2050
      7 C         -20.1980   -8.1542  -16.1903 C.ar    1  UNL1        0.2014
      8 N         -20.3097   -8.4309  -14.8528 N.ar    1  UNL1       -0.2089
      9 C         -21.4913   -8.2762  -14.1830 C.ar    1  UNL1        0.1379
     10 C         -22.5863   -7.8033  -14.9101 C.ar    1  UNL1        0.0865
     11 C         -25.1759   -8.3657  -12.5932 C.ar    1  UNL1        0.0809
     12 C         -24.5484   -7.3619  -13.3092 C.ar    1  UNL1        0.0577
     13 C         -24.7774   -6.2071  -12.5848 C.ar    1  UNL1        0.1231
     14 N         -25.4819   -6.5089  -11.4766 N.ar    1  UNL1       -0.1676
     15 N         -25.7089   -7.8139  -11.4798 N.ar    1  UNL1       -0.2488
     16 C         -26.4363   -8.4956  -10.4141 C.3     1  UNL1        0.1537
     17 C         -25.2691  -13.9951  -13.9575 C.3     1  UNL1        0.0310
     18 C         -25.2187  -12.5353  -13.6167 C.ar    1  UNL1       -0.0218
     19 C         -25.6868  -11.5793  -14.5305 C.ar    1  UNL1       -0.0042
     20 C         -25.6729  -10.2210  -14.1999 C.ar    1  UNL1        0.0012
     21 C         -25.2065   -9.8022  -12.9446 C.ar    1  UNL1        0.0174
     22 C         -24.7503  -10.7610  -12.0260 C.ar    1  UNL1        0.0012
     23 C         -24.7638  -12.1188  -12.3569 C.ar    1  UNL1       -0.0042
     24 N         -21.6022   -8.7079  -12.8218 N.pl3   1  UNL1       -0.2917
     25 C         -21.1797   -7.8698  -11.7136 C.3     1  UNL1        0.0937
     26 C         -21.1818   -8.7705  -10.4840 C.3     1  UNL1        0.0391
     27 C         -21.2299  -10.2157  -11.0071 C.3     1  UNL1        0.0790
     28 C         -21.6971  -10.1162  -12.4693 C.3     1  UNL1        0.1081
     29 N         -19.9286  -10.9151  -10.8191 N.3     1  UNL1       -0.2723
     30 C         -19.9962  -12.3946  -10.8837 C.3     1  UNL1        0.0721
     31 C         -18.5824  -12.9841  -10.9035 C.3     1  UNL1        0.0174
     32 C         -17.7931  -12.5278   -9.6735 C.3     1  UNL1        0.0029
     33 C         -17.8054  -11.0011   -9.5596 C.3     1  UNL1        0.0174
     34 C         -19.2423  -10.4694   -9.5879 C.3     1  UNL1        0.0721
@<TRIPOS>BOND
     1    17    18    1
     2    18    19   ar
     3    19    20   ar
     4    20    21   ar
     5    21    11    1
     6    11    12   ar
     7    12     1    1
     8     1     2   ar
     9     2     3   ar
    10     3     4    1
    11     3     5   ar
    12     5     6   ar
    13     6     7   ar
    14     7     8   ar
    15     8     9   ar
    16     9    24    1
    17    24    25    1
    18    25    26    1
    19    26    27    1
    20    27    29    1
    21    29    30    1
    22    30    31    1
    23    31    32    1
    24    32    33    1
    25    33    34    1
    26    27    28    1
    27     9    10   ar
    28    12    13   ar
    29    13    14   ar
    30    14    15   ar
    31    15    16    1
    32    21    22   ar
    33    22    23   ar
    34    23    18   ar
    35    15    11   ar
    36    10     1   ar
    37    10     5   ar
    38    28    24    1
    39    34    29    1
