@<TRIPOS>MOLECULE
*****
 49 54 0 0 0
SMALL
GASTEIGER

@<TRIPOS>ATOM
      1 C         -64.1984  -53.9533  -22.5986 C.2     1  UNL1        0.2483
      2 O         -63.2980  -54.7684  -22.2563 O.2     1  UNL1       -0.2701
      3 N         -65.5676  -54.2178  -22.2536 N.am    1  UNL1       -0.2945
      4 H         -66.2615  -53.4386  -22.3167 H       1  UNL1        0.1501
      5 C         -63.1426  -50.3648  -24.7247 C.ar    1  UNL1        0.0502
      6 C         -64.2969  -51.0869  -25.0641 C.ar    1  UNL1        0.0148
      7 C         -64.6357  -52.2480  -24.3648 C.ar    1  UNL1        0.0080
      8 C         -63.8205  -52.7174  -23.3209 C.ar    1  UNL1        0.0808
      9 C         -62.6689  -51.9848  -22.9718 C.ar    1  UNL1        0.1457
     10 F         -61.8893  -52.3617  -21.9268 F       1  UNL1       -0.2040
     11 C         -62.3347  -50.8220  -23.6731 C.ar    1  UNL1        0.0443
     12 N         -62.6264  -46.6615  -26.6053 N.pl3   1  UNL1       -0.3034
     13 C         -63.5585  -47.6277  -27.1910 C.3     1  UNL1        0.1123
     14 C         -63.0982  -49.0497  -26.8730 C.3     1  UNL1        0.1122
     15 N         -62.7871  -49.1685  -25.4430 N.pl3   1  UNL1       -0.3040
     16 C         -61.8443  -48.2037  -24.8633 C.3     1  UNL1        0.1122
     17 C         -62.2901  -46.7758  -25.1841 C.3     1  UNL1        0.1123
     18 C         -61.8088  -43.0333  -28.6626 C.ar    1  UNL1       -0.0216
     19 C         -62.9831  -43.1847  -27.9020 C.ar    1  UNL1       -0.0030
     20 C         -63.2420  -44.3813  -27.2301 C.ar    1  UNL1        0.0151
     21 C         -62.3363  -45.4447  -27.3046 C.ar    1  UNL1        0.0586
     22 C         -61.1602  -45.3054  -28.0619 C.ar    1  UNL1        0.0706
     23 CL        -59.9975  -46.6186  -28.1852 Cl      1  UNL1       -0.0810
     24 C         -60.9021  -44.1054  -28.7348 C.ar    1  UNL1        0.0084
     25 C         -62.3187  -40.5739  -28.8108 C.3     1  UNL1        0.0047
     26 C         -61.5138  -41.7394  -29.3982 C.3     1  UNL1        0.0224
     27 C         -61.7737  -41.8871  -30.9020 C.3     1  UNL1        0.0047
     28 C         -65.9817  -55.4806  -21.6355 C.3     1  UNL1        0.1535
     29 C         -67.0015  -55.2139  -20.5578 C.2     1  UNL1        0.2443
     30 O         -67.3564  -54.0270  -20.3206 O.2     1  UNL1       -0.2730
     31 N         -67.6412  -56.3164  -19.8932 N.am    1  UNL1       -0.2825
     32 H         -67.4096  -57.2808  -20.2230 H       1  UNL1        0.1549
     33 C         -68.7610  -56.1708  -19.0055 C.ar    1  UNL1        0.0535
     34 C         -68.6391  -55.5134  -17.7708 C.ar    1  UNL1        0.0353
     35 C         -69.7561  -55.4002  -16.9390 C.ar    1  UNL1        0.1002
     36 N         -70.9473  -55.9339  -17.3189 N.ar    1  UNL1       -0.2422
     37 C         -71.0885  -56.5914  -18.5001 C.ar    1  UNL1        0.1002
     38 C         -69.9960  -56.7307  -19.3588 C.ar    1  UNL1        0.0353
     39 C         -66.5548  -56.4307  -22.7044 C.3     1  UNL1        0.0569
     40 C         -67.4434  -55.7028  -23.6743 C.ar    1  UNL1       -0.0017
     41 C         -67.0387  -55.0696  -24.8457 C.ar    1  UNL1        0.0681
     42 N         -68.1126  -54.6380  -25.5454 N.ar    1  UNL1       -0.3523
     43 C         -69.1924  -55.0056  -24.8340 C.ar    1  UNL1        0.0563
     44 C         -70.5314  -54.8232  -25.1774 C.ar    1  UNL1        0.0170
     45 C         -71.5097  -55.3331  -24.3046 C.ar    1  UNL1        0.0015
     46 C         -71.1322  -56.0086  -23.1230 C.ar    1  UNL1        0.0001
     47 C         -69.7735  -56.1790  -22.8026 C.ar    1  UNL1        0.0012
     48 C         -68.8255  -55.6595  -23.6856 C.ar    1  UNL1        0.0131
     49 H         -68.1016  -54.1466  -26.4667 H       1  UNL1        0.1660
@<TRIPOS>BOND
     1    25    26    1
     2    26    27    1
     3    26    18    1
     4    18    19   ar
     5    19    20   ar
     6    20    21   ar
     7    21    12    1
     8    12    13    1
     9    13    14    1
    10    14    15    1
    11    15     5    1
    12     5     6   ar
    13     6     7   ar
    14     7     8   ar
    15     8     1    1
    16     1     2    2
    17     1     3   am
    18     3    28    1
    19    28    39    1
    20    39    40    1
    21    40    41   ar
    22    41    42   ar
    23    42    43   ar
    24    43    44   ar
    25    44    45   ar
    26    45    46   ar
    27    46    47   ar
    28    47    48   ar
    29    28    29    1
    30    29    30    2
    31    29    31   am
    32    31    33    1
    33    33    34   ar
    34    34    35   ar
    35    35    36   ar
    36    36    37   ar
    37    37    38   ar
    38     8     9   ar
    39     9    10    1
    40     9    11   ar
    41    15    16    1
    42    16    17    1
    43    21    22   ar
    44    22    23    1
    45    22    24   ar
    46    24    18   ar
    47    17    12    1
    48    11     5   ar
    49    48    40   ar
    50    38    33   ar
    51    48    43   ar
    52     3     4    1
    53    42    49    1
    54    31    32    1
@<TRIPOS>MOLECULE
*****
 49 54 0 0 0
SMALL
GASTEIGER

@<TRIPOS>ATOM
      1 C         -64.6458  -54.7011  -22.3336 C.2     1  UNL1        0.2483
      2 O         -63.7868  -55.4218  -21.7548 O.2     1  UNL1       -0.2701
      3 N         -66.0308  -55.0814  -22.3052 N.am    1  UNL1       -0.2945
      4 H         -66.7526  -54.3707  -22.5630 H       1  UNL1        0.1501
      5 C         -63.3495  -51.0712  -24.2455 C.ar    1  UNL1        0.0502
      6 C         -62.7215  -51.5314  -23.0780 C.ar    1  UNL1        0.0148
      7 C         -63.1448  -52.7142  -22.4667 C.ar    1  UNL1        0.0080
      8 C         -64.2125  -53.4536  -23.0029 C.ar    1  UNL1        0.0808
      9 C         -64.8340  -52.9983  -24.1825 C.ar    1  UNL1        0.1457
     10 F         -65.8230  -53.7147  -24.7743 F       1  UNL1       -0.2040
     11 C         -64.4057  -51.8149  -24.7922 C.ar    1  UNL1        0.0443
     12 N         -62.5317  -47.2591  -25.7677 N.pl3   1  UNL1       -0.3034
     13 C         -63.6913  -47.9915  -26.2817 C.3     1  UNL1        0.1123
     14 C         -63.4281  -49.4951  -26.2092 C.3     1  UNL1        0.1122
     15 N         -62.9190  -49.8518  -24.8790 N.pl3   1  UNL1       -0.3040
     16 C         -61.7502  -49.1215  -24.3729 C.3     1  UNL1        0.1122
     17 C         -61.9988  -47.6139  -24.4501 C.3     1  UNL1        0.1123
     18 C         -61.4578  -43.5394  -27.5214 C.ar    1  UNL1       -0.0216
     19 C         -62.4370  -43.6077  -26.5130 C.ar    1  UNL1       -0.0030
     20 C         -62.7823  -44.8353  -25.9436 C.ar    1  UNL1        0.0151
     21 C         -62.1584  -46.0128  -26.3688 C.ar    1  UNL1        0.0586
     22 C         -61.1794  -45.9571  -27.3760 C.ar    1  UNL1        0.0706
     23 CL        -60.3739  -47.4138  -27.9424 Cl      1  UNL1       -0.0810
     24 C         -60.8343  -44.7260  -27.9457 C.ar    1  UNL1        0.0084
     25 C         -59.9176  -41.5546  -27.3849 C.3     1  UNL1        0.0047
     26 C         -61.0721  -42.2132  -28.1495 C.3     1  UNL1        0.0224
     27 C         -62.2800  -41.2734  -28.2420 C.3     1  UNL1        0.0047
     28 C         -66.4722  -56.3616  -21.7444 C.3     1  UNL1        0.1535
     29 C         -67.1653  -56.1319  -20.4255 C.2     1  UNL1        0.2443
     30 O         -66.4798  -55.8379  -19.4082 O.2     1  UNL1       -0.2730
     31 N         -68.6015  -56.1368  -20.3644 N.am    1  UNL1       -0.2825
     32 H         -69.1238  -56.2506  -21.2627 H       1  UNL1        0.1549
     33 C         -69.3517  -55.7313  -19.2086 C.ar    1  UNL1        0.0535
     34 C         -70.1752  -54.5943  -19.2291 C.ar    1  UNL1        0.0353
     35 C         -70.8827  -54.2371  -18.0783 C.ar    1  UNL1        0.1002
     36 N         -70.7634  -54.9791  -16.9456 N.ar    1  UNL1       -0.2422
     37 C         -69.9590  -56.0735  -16.8927 C.ar    1  UNL1        0.1002
     38 C         -69.2312  -56.4624  -18.0193 C.ar    1  UNL1        0.0353
     39 C         -67.4099  -57.0786  -22.7345 C.3     1  UNL1        0.0569
     40 C         -68.0787  -56.1075  -23.6673 C.ar    1  UNL1       -0.0017
     41 C         -68.5380  -54.8352  -23.3400 C.ar    1  UNL1        0.0681
     42 N         -68.9586  -54.1846  -24.4486 N.ar    1  UNL1       -0.3523
     43 C         -68.7558  -55.0287  -25.4749 C.ar    1  UNL1        0.0563
     44 C         -68.9908  -54.7847  -26.8274 C.ar    1  UNL1        0.0170
     45 C         -68.6588  -55.7972  -27.7459 C.ar    1  UNL1        0.0015
     46 C         -68.1034  -57.0159  -27.2976 C.ar    1  UNL1        0.0001
     47 C         -67.8761  -57.2341  -25.9269 C.ar    1  UNL1        0.0012
     48 C         -68.2185  -56.2129  -25.0390 C.ar    1  UNL1        0.0131
     49 H         -69.3351  -53.2118  -24.4969 H       1  UNL1        0.1660
@<TRIPOS>BOND
     1    25    26    1
     2    26    27    1
     3    26    18    1
     4    18    19   ar
     5    19    20   ar
     6    20    21   ar
     7    21    12    1
     8    12    13    1
     9    13    14    1
    10    14    15    1
    11    15     5    1
    12     5     6   ar
    13     6     7   ar
    14     7     8   ar
    15     8     1    1
    16     1     2    2
    17     1     3   am
    18     3    28    1
    19    28    39    1
    20    39    40    1
    21    40    41   ar
    22    41    42   ar
    23    42    43   ar
    24    43    44   ar
    25    44    45   ar
    26    45    46   ar
    27    46    47   ar
    28    47    48   ar
    29    28    29    1
    30    29    30    2
    31    29    31   am
    32    31    33    1
    33    33    34   ar
    34    34    35   ar
    35    35    36   ar
    36    36    37   ar
    37    37    38   ar
    38     8     9   ar
    39     9    10    1
    40     9    11   ar
    41    15    16    1
    42    16    17    1
    43    21    22   ar
    44    22    23    1
    45    22    24   ar
    46    24    18   ar
    47    17    12    1
    48    11     5   ar
    49    48    40   ar
    50    38    33   ar
    51    48    43   ar
    52     3     4    1
    53    42    49    1
    54    31    32    1
@<TRIPOS>MOLECULE
*****
 49 54 0 0 0
SMALL
GASTEIGER

@<TRIPOS>ATOM
      1 C         -61.6900  -46.3434  -25.2598 C.2     1  UNL1        0.2483
      2 O         -60.5580  -46.8893  -25.1464 O.2     1  UNL1       -0.2701
      3 N         -62.7167  -46.9857  -26.0325 N.am    1  UNL1       -0.2945
      4 H         -63.7051  -46.6646  -25.9206 H       1  UNL1        0.1501
      5 C         -62.4386  -42.6476  -23.1879 C.ar    1  UNL1        0.0502
      6 C         -62.1823  -43.8299  -22.4769 C.ar    1  UNL1        0.0148
      7 C         -61.9344  -45.0246  -23.1575 C.ar    1  UNL1        0.0080
      8 C         -61.9505  -45.0639  -24.5619 C.ar    1  UNL1        0.0808
      9 C         -62.1947  -43.8739  -25.2755 C.ar    1  UNL1        0.1457
     10 F         -62.1523  -43.8494  -26.6317 F       1  UNL1       -0.2040
     11 C         -62.4403  -42.6799  -24.5902 C.ar    1  UNL1        0.0443
     12 N         -63.5100  -39.3946  -20.7820 N.pl3   1  UNL1       -0.3034
     13 C         -64.4992  -39.9402  -21.7143 C.3     1  UNL1        0.1123
     14 C         -63.7913  -40.5381  -22.9294 C.3     1  UNL1        0.1122
     15 N         -62.6968  -41.4136  -22.4920 N.pl3   1  UNL1       -0.3040
     16 C         -61.7022  -40.8584  -21.5656 C.3     1  UNL1        0.1122
     17 C         -62.4008  -40.2479  -20.3490 C.3     1  UNL1        0.1123
     18 C         -64.4438  -35.8793  -18.5830 C.ar    1  UNL1       -0.0216
     19 C         -65.2029  -37.0538  -18.4259 C.ar    1  UNL1       -0.0030
     20 C         -64.8874  -38.2033  -19.1536 C.ar    1  UNL1        0.0151
     21 C         -63.8119  -38.2014  -20.0479 C.ar    1  UNL1        0.0586
     22 C         -63.0469  -37.0338  -20.2139 C.ar    1  UNL1        0.0706
     23 CL        -61.6896  -36.9875  -21.3306 Cl      1  UNL1       -0.0810
     24 C         -63.3643  -35.8825  -19.4839 C.ar    1  UNL1        0.0084
     25 C         -64.8396  -34.9107  -16.2949 C.3     1  UNL1        0.0047
     26 C         -64.7743  -34.6227  -17.7996 C.3     1  UNL1        0.0224
     27 C         -66.0785  -33.9883  -18.2971 C.3     1  UNL1        0.0047
     28 C         -62.4539  -48.1942  -26.8190 C.3     1  UNL1        0.1535
     29 C         -62.6874  -49.4186  -25.9712 C.2     1  UNL1        0.2443
     30 O         -63.5062  -50.2954  -26.3611 O.2     1  UNL1       -0.2730
     31 N         -61.8952  -49.6299  -24.7905 N.am    1  UNL1       -0.2825
     32 H         -61.1366  -48.9402  -24.5867 H       1  UNL1        0.1549
     33 C         -61.9002  -50.8516  -24.0351 C.ar    1  UNL1        0.0535
     34 C         -63.0909  -51.5473  -23.7712 C.ar    1  UNL1        0.0353
     35 C         -63.0461  -52.7298  -23.0282 C.ar    1  UNL1        0.1002
     36 N         -61.8593  -53.1944  -22.5553 N.ar    1  UNL1       -0.2422
     37 C         -60.6944  -52.5311  -22.7802 C.ar    1  UNL1        0.1002
     38 C         -60.6957  -51.3432  -23.5144 C.ar    1  UNL1        0.0353
     39 C         -63.3534  -48.2183  -28.0696 C.3     1  UNL1        0.0569
     40 C         -63.2577  -46.9346  -28.8464 C.ar    1  UNL1       -0.0017
     41 C         -64.3240  -46.1991  -29.3552 C.ar    1  UNL1        0.0681
     42 N         -63.8863  -45.0308  -29.8773 N.ar    1  UNL1       -0.3523
     43 C         -62.5553  -45.0150  -29.6898 C.ar    1  UNL1        0.0563
     44 C         -61.6687  -43.9904  -30.0189 C.ar    1  UNL1        0.0170
     45 C         -60.3125  -44.1620  -29.6869 C.ar    1  UNL1        0.0015
     46 C         -59.8780  -45.3391  -29.0386 C.ar    1  UNL1        0.0001
     47 C         -60.7951  -46.3560  -28.7175 C.ar    1  UNL1        0.0012
     48 C         -62.1333  -46.1591  -29.0622 C.ar    1  UNL1        0.0131
     49 H         -64.4714  -44.2816  -30.3096 H       1  UNL1        0.1660
@<TRIPOS>BOND
     1    25    26    1
     2    26    27    1
     3    26    18    1
     4    18    19   ar
     5    19    20   ar
     6    20    21   ar
     7    21    12    1
     8    12    13    1
     9    13    14    1
    10    14    15    1
    11    15     5    1
    12     5     6   ar
    13     6     7   ar
    14     7     8   ar
    15     8     1    1
    16     1     2    2
    17     1     3   am
    18     3    28    1
    19    28    39    1
    20    39    40    1
    21    40    41   ar
    22    41    42   ar
    23    42    43   ar
    24    43    44   ar
    25    44    45   ar
    26    45    46   ar
    27    46    47   ar
    28    47    48   ar
    29    28    29    1
    30    29    30    2
    31    29    31   am
    32    31    33    1
    33    33    34   ar
    34    34    35   ar
    35    35    36   ar
    36    36    37   ar
    37    37    38   ar
    38     8     9   ar
    39     9    10    1
    40     9    11   ar
    41    15    16    1
    42    16    17    1
    43    21    22   ar
    44    22    23    1
    45    22    24   ar
    46    24    18   ar
    47    17    12    1
    48    11     5   ar
    49    48    40   ar
    50    38    33   ar
    51    48    43   ar
    52     3     4    1
    53    42    49    1
    54    31    32    1
@<TRIPOS>MOLECULE
*****
 49 54 0 0 0
SMALL
GASTEIGER

@<TRIPOS>ATOM
      1 C         -61.7420  -46.4676  -25.2883 C.2     1  UNL1        0.2483
      2 O         -60.6336  -47.0515  -25.1378 O.2     1  UNL1       -0.2701
      3 N         -62.7607  -47.0711  -26.1018 N.am    1  UNL1       -0.2945
      4 H         -63.7414  -46.7180  -26.0234 H       1  UNL1        0.1501
      5 C         -62.4482  -42.7613  -23.2203 C.ar    1  UNL1        0.0502
      6 C         -62.3875  -43.9747  -22.5182 C.ar    1  UNL1        0.0148
      7 C         -62.1519  -45.1731  -23.1966 C.ar    1  UNL1        0.0080
      8 C         -61.9853  -45.1839  -24.5918 C.ar    1  UNL1        0.0808
      9 C         -62.0330  -43.9638  -25.2946 C.ar    1  UNL1        0.1457
     10 F         -61.8097  -43.9171  -26.6324 F       1  UNL1       -0.2040
     11 C         -62.2670  -42.7664  -24.6112 C.ar    1  UNL1        0.0443
     12 N         -63.4927  -39.4900  -20.8274 N.pl3   1  UNL1       -0.3034
     13 C         -64.4772  -40.0141  -21.7768 C.3     1  UNL1        0.1123
     14 C         -63.7615  -40.6248  -22.9810 C.3     1  UNL1        0.1122
     15 N         -62.6926  -41.5231  -22.5269 N.pl3   1  UNL1       -0.3040
     16 C         -61.7024  -40.9896  -21.5831 C.3     1  UNL1        0.1122
     17 C         -62.4085  -40.3664  -20.3774 C.3     1  UNL1        0.1123
     18 C         -64.3901  -35.9594  -18.6377 C.ar    1  UNL1       -0.0216
     19 C         -65.1584  -37.1271  -18.4739 C.ar    1  UNL1       -0.0030
     20 C         -64.8548  -38.2817  -19.1986 C.ar    1  UNL1        0.0151
     21 C         -63.7823  -38.2918  -20.0965 C.ar    1  UNL1        0.0586
     22 C         -63.0082  -37.1311  -20.2691 C.ar    1  UNL1        0.0706
     23 CL        -61.6543  -37.0999  -21.3905 Cl      1  UNL1       -0.0810
     24 C         -63.3137  -35.9747  -19.5421 C.ar    1  UNL1        0.0084
     25 C         -64.8238  -34.9899  -16.3569 C.3     1  UNL1        0.0047
     26 C         -64.7077  -34.6974  -17.8576 C.3     1  UNL1        0.0224
     27 C         -65.9790  -34.0246  -18.3887 C.3     1  UNL1        0.0047
     28 C         -62.5097  -48.2834  -26.8863 C.3     1  UNL1        0.1535
     29 C         -62.6074  -49.4980  -25.9987 C.2     1  UNL1        0.2443
     30 O         -63.3116  -50.4783  -26.3652 O.2     1  UNL1       -0.2730
     31 N         -61.8107  -49.5743  -24.8047 N.am    1  UNL1       -0.2825
     32 H         -61.1417  -48.7931  -24.6183 H       1  UNL1        0.1549
     33 C         -61.6807  -50.7622  -24.0076 C.ar    1  UNL1        0.0535
     34 C         -62.8036  -51.5005  -23.6008 C.ar    1  UNL1        0.0353
     35 C         -62.6271  -52.6474  -22.8224 C.ar    1  UNL1        0.1002
     36 N         -61.3780  -53.0364  -22.4530 N.ar    1  UNL1       -0.2422
     37 C         -60.2754  -52.3299  -22.8173 C.ar    1  UNL1        0.1002
     38 C         -60.4080  -51.1752  -23.5915 C.ar    1  UNL1        0.0353
     39 C         -63.5137  -48.3781  -28.0510 C.3     1  UNL1        0.0569
     40 C         -63.6888  -47.0540  -28.7413 C.ar    1  UNL1       -0.0017
     41 C         -63.0697  -45.8568  -28.3945 C.ar    1  UNL1        0.0681
     42 N         -63.3448  -44.8996  -29.3096 N.ar    1  UNL1       -0.3523
     43 C         -64.1198  -45.4851  -30.2389 C.ar    1  UNL1        0.0563
     44 C         -64.6172  -44.9096  -31.4074 C.ar    1  UNL1        0.0170
     45 C         -65.3727  -45.7231  -32.2714 C.ar    1  UNL1        0.0015
     46 C         -65.6093  -47.0786  -31.9531 C.ar    1  UNL1        0.0001
     47 C         -65.0940  -47.6328  -30.7677 C.ar    1  UNL1        0.0012
     48 C         -64.3512  -46.8008  -29.9285 C.ar    1  UNL1        0.0131
     49 H         -62.9976  -43.9148  -29.3071 H       1  UNL1        0.1660
@<TRIPOS>BOND
     1    25    26    1
     2    26    27    1
     3    26    18    1
     4    18    19   ar
     5    19    20   ar
     6    20    21   ar
     7    21    12    1
     8    12    13    1
     9    13    14    1
    10    14    15    1
    11    15     5    1
    12     5     6   ar
    13     6     7   ar
    14     7     8   ar
    15     8     1    1
    16     1     2    2
    17     1     3   am
    18     3    28    1
    19    28    39    1
    20    39    40    1
    21    40    41   ar
    22    41    42   ar
    23    42    43   ar
    24    43    44   ar
    25    44    45   ar
    26    45    46   ar
    27    46    47   ar
    28    47    48   ar
    29    28    29    1
    30    29    30    2
    31    29    31   am
    32    31    33    1
    33    33    34   ar
    34    34    35   ar
    35    35    36   ar
    36    36    37   ar
    37    37    38   ar
    38     8     9   ar
    39     9    10    1
    40     9    11   ar
    41    15    16    1
    42    16    17    1
    43    21    22   ar
    44    22    23    1
    45    22    24   ar
    46    24    18   ar
    47    17    12    1
    48    11     5   ar
    49    48    40   ar
    50    38    33   ar
    51    48    43   ar
    52     3     4    1
    53    42    49    1
    54    31    32    1
@<TRIPOS>MOLECULE
*****
 49 54 0 0 0
SMALL
GASTEIGER

@<TRIPOS>ATOM
      1 C         -61.4296  -46.2738  -25.1412 C.2     1  UNL1        0.2483
      2 O         -60.2941  -46.8070  -25.0054 O.2     1  UNL1       -0.2701
      3 N         -62.4234  -46.9119  -25.9590 N.am    1  UNL1       -0.2945
      4 H         -63.4192  -46.6066  -25.8702 H       1  UNL1        0.1501
      5 C         -62.3076  -42.5897  -23.0993 C.ar    1  UNL1        0.0502
      6 C         -62.2790  -42.6442  -24.5012 C.ar    1  UNL1        0.0148
      7 C         -61.9988  -43.8459  -25.1565 C.ar    1  UNL1        0.0080
      8 C         -61.7289  -45.0139  -24.4234 C.ar    1  UNL1        0.0808
      9 C         -61.7709  -44.9617  -23.0161 C.ar    1  UNL1        0.1457
     10 F         -61.5847  -46.0787  -22.2682 F       1  UNL1       -0.2040
     11 C         -62.0538  -43.7572  -22.3644 C.ar    1  UNL1        0.0443
     12 N         -63.4618  -39.3322  -20.7383 N.pl3   1  UNL1       -0.3034
     13 C         -64.4287  -39.8997  -21.6808 C.3     1  UNL1        0.1123
     14 C         -63.6938  -40.4976  -22.8798 C.3     1  UNL1        0.1122
     15 N         -62.5939  -41.3537  -22.4182 N.pl3   1  UNL1       -0.3040
     16 C         -61.6216  -40.7766  -21.4814 C.3     1  UNL1        0.1122
     17 C         -62.3474  -40.1659  -20.2810 C.3     1  UNL1        0.1123
     18 C         -64.4789  -35.8123  -18.5840 C.ar    1  UNL1       -0.0216
     19 C         -65.2210  -36.9975  -18.4251 C.ar    1  UNL1       -0.0030
     20 C         -64.8782  -38.1484  -19.1380 C.ar    1  UNL1        0.0151
     21 C         -63.7919  -38.1373  -20.0192 C.ar    1  UNL1        0.0586
     22 C         -63.0437  -36.9591  -20.1868 C.ar    1  UNL1        0.0706
     23 CL        -61.6736  -36.9012  -21.2872 Cl      1  UNL1       -0.0810
     24 C         -63.3885  -35.8064  -19.4715 C.ar    1  UNL1        0.0084
     25 C         -64.8730  -34.8184  -16.3065 C.3     1  UNL1        0.0047
     26 C         -64.8393  -34.5541  -17.8165 C.3     1  UNL1        0.0224
     27 C         -66.1708  -33.9713  -18.3046 C.3     1  UNL1        0.0047
     28 C         -62.1202  -48.0988  -26.7637 C.3     1  UNL1        0.1535
     29 C         -62.3618  -49.3450  -25.9506 C.2     1  UNL1        0.2443
     30 O         -63.1356  -50.2357  -26.3968 O.2     1  UNL1       -0.2730
     31 N         -61.6237  -49.5577  -24.7356 N.am    1  UNL1       -0.2825
     32 H         -60.8956  -48.8521  -24.4817 H       1  UNL1        0.1549
     33 C         -61.6327  -50.7934  -24.0033 C.ar    1  UNL1        0.0535
     34 C         -62.8335  -51.4325  -23.6555 C.ar    1  UNL1        0.0353
     35 C         -62.7917  -52.6314  -22.9389 C.ar    1  UNL1        0.1002
     36 N         -61.5970  -53.1662  -22.5720 N.ar    1  UNL1       -0.2422
     37 C         -60.4205  -52.5588  -22.8794 C.ar    1  UNL1        0.1002
     38 C         -60.4180  -51.3570  -23.5907 C.ar    1  UNL1        0.0353
     39 C         -62.9813  -48.1067  -28.0413 C.3     1  UNL1        0.0569
     40 C         -63.1237  -46.7276  -28.6227 C.ar    1  UNL1       -0.0017
     41 C         -64.3172  -46.0465  -28.8430 C.ar    1  UNL1        0.0681
     42 N         -64.0711  -44.7793  -29.2464 N.ar    1  UNL1       -0.3523
     43 C         -62.7333  -44.6492  -29.2690 C.ar    1  UNL1        0.0563
     44 C         -62.0019  -43.5024  -29.5756 C.ar    1  UNL1        0.0170
     45 C         -60.5997  -43.5738  -29.4890 C.ar    1  UNL1        0.0015
     46 C         -59.9671  -44.7750  -29.0999 C.ar    1  UNL1        0.0001
     47 C         -60.7304  -45.9163  -28.7951 C.ar    1  UNL1        0.0012
     48 C         -62.1192  -45.8165  -28.8931 C.ar    1  UNL1        0.0131
     49 H         -64.7801  -44.0445  -29.4651 H       1  UNL1        0.1660
@<TRIPOS>BOND
     1    25    26    1
     2    26    27    1
     3    26    18    1
     4    18    19   ar
     5    19    20   ar
     6    20    21   ar
     7    21    12    1
     8    12    13    1
     9    13    14    1
    10    14    15    1
    11    15     5    1
    12     5     6   ar
    13     6     7   ar
    14     7     8   ar
    15     8     1    1
    16     1     2    2
    17     1     3   am
    18     3    28    1
    19    28    39    1
    20    39    40    1
    21    40    41   ar
    22    41    42   ar
    23    42    43   ar
    24    43    44   ar
    25    44    45   ar
    26    45    46   ar
    27    46    47   ar
    28    47    48   ar
    29    28    29    1
    30    29    30    2
    31    29    31   am
    32    31    33    1
    33    33    34   ar
    34    34    35   ar
    35    35    36   ar
    36    36    37   ar
    37    37    38   ar
    38     8     9   ar
    39     9    10    1
    40     9    11   ar
    41    15    16    1
    42    16    17    1
    43    21    22   ar
    44    22    23    1
    45    22    24   ar
    46    24    18   ar
    47    17    12    1
    48    11     5   ar
    49    48    40   ar
    50    38    33   ar
    51    48    43   ar
    52     3     4    1
    53    42    49    1
    54    31    32    1
@<TRIPOS>MOLECULE
*****
 49 54 0 0 0
SMALL
GASTEIGER

@<TRIPOS>ATOM
      1 C         -60.3637  -47.8174  -23.1193 C.2     1  UNL1        0.2483
      2 O         -59.1702  -48.0644  -23.4459 O.2     1  UNL1       -0.2701
      3 N         -61.3430  -48.8680  -23.1505 N.am    1  UNL1       -0.2945
      4 H         -62.2506  -48.7243  -22.6522 H       1  UNL1        0.1501
      5 C         -61.4635  -43.8609  -21.8353 C.ar    1  UNL1        0.0502
      6 C         -62.4249  -44.7388  -22.3588 C.ar    1  UNL1        0.0148
      7 C         -62.0605  -46.0240  -22.7680 C.ar    1  UNL1        0.0080
      8 C         -60.7256  -46.4525  -22.6741 C.ar    1  UNL1        0.0808
      9 C         -59.7632  -45.5755  -22.1360 C.ar    1  UNL1        0.1457
     10 F         -58.4762  -45.9694  -21.9625 F       1  UNL1       -0.2040
     11 C         -60.1328  -44.2907  -21.7258 C.ar    1  UNL1        0.0443
     12 N         -62.9976  -40.2698  -20.3291 N.pl3   1  UNL1       -0.3034
     13 C         -63.6530  -40.8895  -21.4831 C.3     1  UNL1        0.1123
     14 C         -62.6288  -41.6762  -22.2999 C.3     1  UNL1        0.1122
     15 N         -61.8327  -42.5344  -21.4137 N.pl3   1  UNL1       -0.3040
     16 C         -61.1694  -41.9063  -20.2642 C.3     1  UNL1        0.1122
     17 C         -62.1842  -41.1073  -19.4442 C.3     1  UNL1        0.1123
     18 C         -64.2317  -36.4133  -19.0371 C.ar    1  UNL1       -0.0216
     19 C         -63.2526  -36.5622  -20.0370 C.ar    1  UNL1       -0.0030
     20 C         -62.8544  -37.8342  -20.4540 C.ar    1  UNL1        0.0151
     21 C         -63.4245  -38.9766  -19.8827 C.ar    1  UNL1        0.0586
     22 C         -64.4028  -38.8404  -18.8825 C.ar    1  UNL1        0.0706
     23 CL        -65.1416  -40.2502  -18.1355 Cl      1  UNL1       -0.0810
     24 C         -64.8009  -37.5648  -18.4656 C.ar    1  UNL1        0.0084
     25 C         -64.7311  -34.9624  -17.0432 C.3     1  UNL1        0.0047
     26 C         -64.6745  -35.0381  -18.5736 C.3     1  UNL1        0.0224
     27 C         -66.0220  -34.6527  -19.1955 C.3     1  UNL1        0.0047
     28 C         -61.0377  -50.1971  -23.6875 C.3     1  UNL1        0.1535
     29 C         -61.9621  -51.2208  -23.0791 C.2     1  UNL1        0.2443
     30 O         -62.2067  -51.1774  -21.8424 O.2     1  UNL1       -0.2730
     31 N         -62.6426  -52.1605  -23.9277 N.am    1  UNL1       -0.2825
     32 H         -62.5092  -52.0654  -24.9601 H       1  UNL1        0.1549
     33 C         -63.6882  -53.0338  -23.4725 C.ar    1  UNL1        0.0535
     34 C         -63.4395  -54.0542  -22.5406 C.ar    1  UNL1        0.0353
     35 C         -64.4883  -54.8816  -22.1307 C.ar    1  UNL1        0.1002
     36 N         -65.7360  -54.7058  -22.6410 N.ar    1  UNL1       -0.2422
     37 C         -66.0004  -53.7381  -23.5581 C.ar    1  UNL1        0.1002
     38 C         -64.9796  -52.8926  -23.9978 C.ar    1  UNL1        0.0353
     39 C         -61.1673  -50.1908  -25.2227 C.3     1  UNL1        0.0569
     40 C         -62.1674  -49.1705  -25.6907 C.ar    1  UNL1       -0.0017
     41 C         -63.5468  -49.2297  -25.5158 C.ar    1  UNL1        0.0681
     42 N         -64.1265  -48.0824  -25.9363 N.ar    1  UNL1       -0.3523
     43 C         -63.1246  -47.2934  -26.3616 C.ar    1  UNL1        0.0563
     44 C         -63.2239  -45.9881  -26.8415 C.ar    1  UNL1        0.0170
     45 C         -62.0341  -45.3227  -27.1888 C.ar    1  UNL1        0.0015
     46 C         -60.7859  -45.9683  -27.0479 C.ar    1  UNL1        0.0001
     47 C         -60.7159  -47.2854  -26.5598 C.ar    1  UNL1        0.0012
     48 C         -61.9129  -47.9214  -26.2267 C.ar    1  UNL1        0.0131
     49 H         -65.1439  -47.8488  -25.9059 H       1  UNL1        0.1660
@<TRIPOS>BOND
     1    25    26    1
     2    26    27    1
     3    26    18    1
     4    18    19   ar
     5    19    20   ar
     6    20    21   ar
     7    21    12    1
     8    12    13    1
     9    13    14    1
    10    14    15    1
    11    15     5    1
    12     5     6   ar
    13     6     7   ar
    14     7     8   ar
    15     8     1    1
    16     1     2    2
    17     1     3   am
    18     3    28    1
    19    28    39    1
    20    39    40    1
    21    40    41   ar
    22    41    42   ar
    23    42    43   ar
    24    43    44   ar
    25    44    45   ar
    26    45    46   ar
    27    46    47   ar
    28    47    48   ar
    29    28    29    1
    30    29    30    2
    31    29    31   am
    32    31    33    1
    33    33    34   ar
    34    34    35   ar
    35    35    36   ar
    36    36    37   ar
    37    37    38   ar
    38     8     9   ar
    39     9    10    1
    40     9    11   ar
    41    15    16    1
    42    16    17    1
    43    21    22   ar
    44    22    23    1
    45    22    24   ar
    46    24    18   ar
    47    17    12    1
    48    11     5   ar
    49    48    40   ar
    50    38    33   ar
    51    48    43   ar
    52     3     4    1
    53    42    49    1
    54    31    32    1
@<TRIPOS>MOLECULE
*****
 49 54 0 0 0
SMALL
GASTEIGER

@<TRIPOS>ATOM
      1 C         -61.7858  -46.5840  -25.3692 C.2     1  UNL1        0.2483
      2 O         -60.6862  -47.1852  -25.2223 O.2     1  UNL1       -0.2701
      3 N         -62.8088  -47.1616  -26.1960 N.am    1  UNL1       -0.2945
      4 H         -63.7850  -46.7962  -26.1169 H       1  UNL1        0.1501
      5 C         -62.4476  -42.8983  -23.2502 C.ar    1  UNL1        0.0502
      6 C         -62.3212  -44.1120  -22.5572 C.ar    1  UNL1        0.0148
      7 C         -62.1006  -45.3035  -23.2526 C.ar    1  UNL1        0.0080
      8 C         -62.0149  -45.3074  -24.6551 C.ar    1  UNL1        0.0808
      9 C         -62.1285  -44.0868  -25.3495 C.ar    1  UNL1        0.1457
     10 F         -61.9841  -44.0322  -26.6978 F       1  UNL1       -0.2040
     11 C         -62.3472  -42.8963  -24.6493 C.ar    1  UNL1        0.0443
     12 N         -63.4383  -39.6519  -20.8013 N.pl3   1  UNL1       -0.3034
     13 C         -64.4452  -40.1692  -21.7308 C.3     1  UNL1        0.1123
     14 C         -63.7586  -40.7670  -22.9581 C.3     1  UNL1        0.1122
     15 N         -62.6770  -41.6672  -22.5392 N.pl3   1  UNL1       -0.3040
     16 C         -61.6646  -41.1405  -21.6154 C.3     1  UNL1        0.1122
     17 C         -62.3416  -40.5302  -20.3866 C.3     1  UNL1        0.1123
     18 C         -64.2217  -36.0946  -18.6111 C.ar    1  UNL1       -0.0216
     19 C         -63.4099  -36.0724  -19.7605 C.ar    1  UNL1       -0.0030
     20 C         -63.1589  -37.2473  -20.4726 C.ar    1  UNL1        0.0151
     21 C         -63.7120  -38.4612  -20.0521 C.ar    1  UNL1        0.0586
     22 C         -64.5238  -38.4959  -18.9050 C.ar    1  UNL1        0.0706
     23 CL        -65.2352  -40.0013  -18.3399 Cl      1  UNL1       -0.0810
     24 C         -64.7745  -37.3176  -18.1923 C.ar    1  UNL1        0.0084
     25 C         -64.7209  -35.1329  -16.3404 C.3     1  UNL1        0.0047
     26 C         -64.5034  -34.8265  -17.8270 C.3     1  UNL1        0.0224
     27 C         -65.6989  -34.0675  -18.4148 C.3     1  UNL1        0.0047
     28 C         -62.5707  -48.3657  -26.9971 C.3     1  UNL1        0.1535
     29 C         -62.6854  -49.5914  -26.1270 C.2     1  UNL1        0.2443
     30 O         -63.3425  -50.5856  -26.5406 O.2     1  UNL1       -0.2730
     31 N         -61.9540  -49.6595  -24.8914 N.am    1  UNL1       -0.2825
     32 H         -61.3170  -48.8634  -24.6614 H       1  UNL1        0.1549
     33 C         -61.8372  -50.8518  -24.0989 C.ar    1  UNL1        0.0535
     34 C         -62.9683  -51.5782  -23.6934 C.ar    1  UNL1        0.0353
     35 C         -62.8045  -52.7300  -22.9195 C.ar    1  UNL1        0.1002
     36 N         -61.5597  -53.1352  -22.5531 N.ar    1  UNL1       -0.2422
     37 C         -60.4492  -52.4406  -22.9162 C.ar    1  UNL1        0.1002
     38 C         -60.5690  -51.2815  -23.6859 C.ar    1  UNL1        0.0353
     39 C         -63.5729  -48.4315  -28.1654 C.3     1  UNL1        0.0569
     40 C         -63.7158  -47.1002  -28.8491 C.ar    1  UNL1       -0.0017
     41 C         -63.0509  -45.9254  -28.5105 C.ar    1  UNL1        0.0681
     42 N         -63.3101  -44.9568  -29.4182 N.ar    1  UNL1       -0.3523
     43 C         -64.1208  -45.5132  -30.3348 C.ar    1  UNL1        0.0563
     44 C         -64.6195  -44.9179  -31.4928 C.ar    1  UNL1        0.0170
     45 C         -65.4172  -45.7030  -32.3450 C.ar    1  UNL1        0.0015
     46 C         -65.6933  -47.0508  -32.0259 C.ar    1  UNL1        0.0001
     47 C         -65.1757  -47.6256  -30.8513 C.ar    1  UNL1        0.0012
     48 C         -64.3906  -46.8214  -30.0235 C.ar    1  UNL1        0.0131
     49 H         -62.9302  -43.9841  -29.4196 H       1  UNL1        0.1660
@<TRIPOS>BOND
     1    25    26    1
     2    26    27    1
     3    26    18    1
     4    18    19   ar
     5    19    20   ar
     6    20    21   ar
     7    21    12    1
     8    12    13    1
     9    13    14    1
    10    14    15    1
    11    15     5    1
    12     5     6   ar
    13     6     7   ar
    14     7     8   ar
    15     8     1    1
    16     1     2    2
    17     1     3   am
    18     3    28    1
    19    28    39    1
    20    39    40    1
    21    40    41   ar
    22    41    42   ar
    23    42    43   ar
    24    43    44   ar
    25    44    45   ar
    26    45    46   ar
    27    46    47   ar
    28    47    48   ar
    29    28    29    1
    30    29    30    2
    31    29    31   am
    32    31    33    1
    33    33    34   ar
    34    34    35   ar
    35    35    36   ar
    36    36    37   ar
    37    37    38   ar
    38     8     9   ar
    39     9    10    1
    40     9    11   ar
    41    15    16    1
    42    16    17    1
    43    21    22   ar
    44    22    23    1
    45    22    24   ar
    46    24    18   ar
    47    17    12    1
    48    11     5   ar
    49    48    40   ar
    50    38    33   ar
    51    48    43   ar
    52     3     4    1
    53    42    49    1
    54    31    32    1
@<TRIPOS>MOLECULE
*****
 49 54 0 0 0
SMALL
GASTEIGER

@<TRIPOS>ATOM
      1 C         -60.6514  -45.5094  -27.7133 C.2     1  UNL1        0.2483
      2 O         -59.5967  -45.7560  -28.3605 O.2     1  UNL1       -0.2701
      3 N         -61.1797  -44.1736  -27.6940 N.am    1  UNL1       -0.2945
      4 H         -62.1639  -44.0268  -27.3738 H       1  UNL1        0.1501
      5 C         -62.6441  -48.7076  -25.6365 C.ar    1  UNL1        0.0502
      6 C         -61.5954  -48.0007  -25.0287 C.ar    1  UNL1        0.0148
      7 C         -60.9575  -46.9596  -25.7078 C.ar    1  UNL1        0.0080
      8 C         -61.3466  -46.6131  -27.0127 C.ar    1  UNL1        0.0808
      9 C         -62.4085  -47.3142  -27.6175 C.ar    1  UNL1        0.1457
     10 F         -62.8637  -46.9698  -28.8487 F       1  UNL1       -0.2040
     11 C         -63.0455  -48.3542  -26.9333 C.ar    1  UNL1        0.0443
     12 N         -64.2230  -52.1993  -23.9533 N.pl3   1  UNL1       -0.3034
     13 C         -64.6739  -51.7905  -25.2856 C.3     1  UNL1        0.1123
     14 C         -64.6083  -50.2689  -25.4104 C.3     1  UNL1        0.1122
     15 N         -63.3042  -49.7829  -24.9424 N.pl3   1  UNL1       -0.3040
     16 C         -62.8616  -50.1873  -23.6022 C.3     1  UNL1        0.1122
     17 C         -62.9327  -51.7092  -23.4625 C.3     1  UNL1        0.1123
     18 C         -66.1204  -55.4919  -22.0498 C.ar    1  UNL1       -0.0216
     19 C         -66.8685  -54.5479  -22.7775 C.ar    1  UNL1       -0.0030
     20 C         -66.2348  -53.4696  -23.3991 C.ar    1  UNL1        0.0151
     21 C         -64.8478  -53.3149  -23.3060 C.ar    1  UNL1        0.0586
     22 C         -64.0901  -54.2511  -22.5811 C.ar    1  UNL1        0.0706
     23 CL        -62.3451  -54.0915  -22.4359 Cl      1  UNL1       -0.0810
     24 C         -64.7266  -55.3313  -21.9588 C.ar    1  UNL1        0.0084
     25 C         -67.9318  -57.2286  -22.2317 C.3     1  UNL1        0.0047
     26 C         -66.7945  -56.6685  -21.3691 C.3     1  UNL1        0.0224
     27 C         -67.2986  -56.2846  -19.9729 C.3     1  UNL1        0.0047
     28 C         -60.4568  -43.0450  -28.2872 C.3     1  UNL1        0.1535
     29 C         -60.9214  -42.8264  -29.7045 C.2     1  UNL1        0.2443
     30 O         -61.3235  -41.6835  -30.0555 O.2     1  UNL1       -0.2730
     31 N         -60.7948  -43.8859  -30.6677 N.am    1  UNL1       -0.2825
     32 H         -60.3292  -44.7689  -30.3577 H       1  UNL1        0.1549
     33 C         -61.0176  -43.7136  -32.0762 C.ar    1  UNL1        0.0535
     34 C         -59.9750  -43.8494  -33.0068 C.ar    1  UNL1        0.0353
     35 C         -60.2396  -43.6684  -34.3669 C.ar    1  UNL1        0.1002
     36 N         -61.4946  -43.3514  -34.7820 N.ar    1  UNL1       -0.2422
     37 C         -62.5179  -43.1958  -33.9010 C.ar    1  UNL1        0.1002
     38 C         -62.2953  -43.3635  -32.5327 C.ar    1  UNL1        0.0353
     39 C         -60.6716  -41.7751  -27.4417 C.3     1  UNL1        0.0569
     40 C         -61.5649  -42.0390  -26.2616 C.ar    1  UNL1       -0.0017
     41 C         -62.9562  -42.0086  -26.2595 C.ar    1  UNL1        0.0681
     42 N         -63.4366  -42.4293  -25.0672 N.ar    1  UNL1       -0.3523
     43 C         -62.3620  -42.7389  -24.3214 C.ar    1  UNL1        0.0563
     44 C         -62.3540  -43.2643  -23.0299 C.ar    1  UNL1        0.0170
     45 C         -61.1082  -43.5634  -22.4490 C.ar    1  UNL1        0.0015
     46 C         -59.9120  -43.3357  -23.1646 C.ar    1  UNL1        0.0001
     47 C         -59.9504  -42.8057  -24.4667 C.ar    1  UNL1        0.0012
     48 C         -61.2005  -42.5157  -25.0157 C.ar    1  UNL1        0.0131
     49 H         -64.4408  -42.5226  -24.7961 H       1  UNL1        0.1660
@<TRIPOS>BOND
     1    25    26    1
     2    26    27    1
     3    26    18    1
     4    18    19   ar
     5    19    20   ar
     6    20    21   ar
     7    21    12    1
     8    12    13    1
     9    13    14    1
    10    14    15    1
    11    15     5    1
    12     5     6   ar
    13     6     7   ar
    14     7     8   ar
    15     8     1    1
    16     1     2    2
    17     1     3   am
    18     3    28    1
    19    28    39    1
    20    39    40    1
    21    40    41   ar
    22    41    42   ar
    23    42    43   ar
    24    43    44   ar
    25    44    45   ar
    26    45    46   ar
    27    46    47   ar
    28    47    48   ar
    29    28    29    1
    30    29    30    2
    31    29    31   am
    32    31    33    1
    33    33    34   ar
    34    34    35   ar
    35    35    36   ar
    36    36    37   ar
    37    37    38   ar
    38     8     9   ar
    39     9    10    1
    40     9    11   ar
    41    15    16    1
    42    16    17    1
    43    21    22   ar
    44    22    23    1
    45    22    24   ar
    46    24    18   ar
    47    17    12    1
    48    11     5   ar
    49    48    40   ar
    50    38    33   ar
    51    48    43   ar
    52     3     4    1
    53    42    49    1
    54    31    32    1
@<TRIPOS>MOLECULE
*****
 49 54 0 0 0
SMALL
GASTEIGER

@<TRIPOS>ATOM
      1 C         -60.4605  -46.1428  -27.0537 C.2     1  UNL1        0.2483
      2 O         -59.2060  -46.2347  -27.1532 O.2     1  UNL1       -0.2701
      3 N         -61.1341  -44.9872  -27.5774 N.am    1  UNL1       -0.2945
      4 H         -62.1695  -45.0282  -27.7151 H       1  UNL1        0.1501
      5 C         -62.6411  -49.3532  -25.1960 C.ar    1  UNL1        0.0502
      6 C         -61.5364  -48.7710  -24.5557 C.ar    1  UNL1        0.0148
      7 C         -60.8374  -47.7250  -25.1634 C.ar    1  UNL1        0.0080
      8 C         -61.2207  -47.2489  -26.4286 C.ar    1  UNL1        0.0808
      9 C         -62.3380  -47.8247  -27.0650 C.ar    1  UNL1        0.1457
     10 F         -62.7864  -47.3520  -28.2555 F       1  UNL1       -0.2040
     11 C         -63.0360  -48.8701  -26.4523 C.ar    1  UNL1        0.0443
     12 N         -64.6804  -52.7775  -23.9180 N.pl3   1  UNL1       -0.3034
     13 C         -65.3731  -51.8268  -24.7908 C.3     1  UNL1        0.1123
     14 C         -64.8324  -50.4173  -24.5540 C.3     1  UNL1        0.1122
     15 N         -63.3644  -50.4328  -24.5757 N.pl3   1  UNL1       -0.3040
     16 C         -62.6748  -51.3806  -23.6914 C.3     1  UNL1        0.1122
     17 C         -63.2156  -52.7945  -23.9130 C.3     1  UNL1        0.1123
     18 C         -66.8015  -56.0501  -22.2280 C.ar    1  UNL1       -0.0216
     19 C         -65.9904  -55.2235  -21.4285 C.ar    1  UNL1       -0.0030
     20 C         -65.2976  -54.1508  -21.9941 C.ar    1  UNL1        0.0151
     21 C         -65.4019  -53.8845  -23.3633 C.ar    1  UNL1        0.0586
     22 C         -66.2085  -54.7038  -24.1722 C.ar    1  UNL1        0.0706
     23 CL        -66.3639  -54.4065  -25.8982 Cl      1  UNL1       -0.0810
     24 C         -66.9022  -55.7785  -23.6039 C.ar    1  UNL1        0.0084
     25 C         -69.0212  -57.2269  -22.0930 C.3     1  UNL1        0.0047
     26 C         -67.5601  -57.2191  -21.6280 C.3     1  UNL1        0.0224
     27 C         -67.4680  -57.2104  -20.0975 C.3     1  UNL1        0.0047
     28 C         -60.3994  -43.8329  -28.1029 C.3     1  UNL1        0.1535
     29 C         -60.2948  -43.9315  -29.6035 C.2     1  UNL1        0.2443
     30 O         -59.6048  -44.8540  -30.1174 O.2     1  UNL1       -0.2730
     31 N         -61.0704  -43.0488  -30.4317 N.am    1  UNL1       -0.2825
     32 H         -61.7299  -42.3928  -29.9551 H       1  UNL1        0.1549
     33 C         -61.1949  -43.1955  -31.8551 C.ar    1  UNL1        0.0535
     34 C         -62.4270  -43.0241  -32.5063 C.ar    1  UNL1        0.0353
     35 C         -62.4995  -43.1812  -33.8928 C.ar    1  UNL1        0.1002
     36 N         -61.3871  -43.5094  -34.6019 N.ar    1  UNL1       -0.2422
     37 C         -60.1860  -43.6993  -33.9946 C.ar    1  UNL1        0.1002
     38 C         -60.0710  -43.5564  -32.6103 C.ar    1  UNL1        0.0353
     39 C         -61.1021  -42.5253  -27.6908 C.3     1  UNL1        0.0569
     40 C         -61.4930  -42.5394  -26.2391 C.ar    1  UNL1       -0.0017
     41 C         -60.6983  -42.9599  -25.1768 C.ar    1  UNL1        0.0681
     42 N         -61.3120  -42.7076  -23.9983 N.ar    1  UNL1       -0.3523
     43 C         -62.4804  -42.1185  -24.3058 C.ar    1  UNL1        0.0563
     44 C         -63.4384  -41.6297  -23.4185 C.ar    1  UNL1        0.0170
     45 C         -64.5748  -41.0003  -23.9584 C.ar    1  UNL1        0.0015
     46 C         -64.7253  -40.8725  -25.3568 C.ar    1  UNL1        0.0001
     47 C         -63.7420  -41.3741  -26.2283 C.ar    1  UNL1        0.0012
     48 C         -62.6273  -41.9965  -25.6639 C.ar    1  UNL1        0.0131
     49 H         -60.9366  -42.9041  -23.0438 H       1  UNL1        0.1660
@<TRIPOS>BOND
     1    25    26    1
     2    26    27    1
     3    26    18    1
     4    18    19   ar
     5    19    20   ar
     6    20    21   ar
     7    21    12    1
     8    12    13    1
     9    13    14    1
    10    14    15    1
    11    15     5    1
    12     5     6   ar
    13     6     7   ar
    14     7     8   ar
    15     8     1    1
    16     1     2    2
    17     1     3   am
    18     3    28    1
    19    28    39    1
    20    39    40    1
    21    40    41   ar
    22    41    42   ar
    23    42    43   ar
    24    43    44   ar
    25    44    45   ar
    26    45    46   ar
    27    46    47   ar
    28    47    48   ar
    29    28    29    1
    30    29    30    2
    31    29    31   am
    32    31    33    1
    33    33    34   ar
    34    34    35   ar
    35    35    36   ar
    36    36    37   ar
    37    37    38   ar
    38     8     9   ar
    39     9    10    1
    40     9    11   ar
    41    15    16    1
    42    16    17    1
    43    21    22   ar
    44    22    23    1
    45    22    24   ar
    46    24    18   ar
    47    17    12    1
    48    11     5   ar
    49    48    40   ar
    50    38    33   ar
    51    48    43   ar
    52     3     4    1
    53    42    49    1
    54    31    32    1
