@<TRIPOS>MOLECULE
*****
 47 52 0 0 0
SMALL
GASTEIGER

@<TRIPOS>ATOM
      1 C          12.4560   80.5958   25.4425 C.ar    1  UNL1        0.0702
      2 C          11.5930   81.6359   25.0643 C.ar    1  UNL1        0.0191
      3 C          12.1047   82.7926   24.4739 C.ar    1  UNL1        0.0356
      4 C          13.4906   82.9171   24.2737 C.ar    1  UNL1        0.1318
      5 N          14.3073   81.8985   24.6641 N.ar    1  UNL1       -0.2279
      6 C          13.8313   80.7634   25.2404 C.ar    1  UNL1        0.1149
      7 N          14.0592   84.0978   23.6654 N.pl3   1  UNL1       -0.2932
      8 C          13.5875   85.4290   24.0767 C.3     1  UNL1        0.0923
      9 C          14.7363   86.4399   24.0065 C.3     1  UNL1        0.0252
     10 C          15.3940   86.5084   22.6011 C.3     1  UNL1        0.0472
     11 C          15.0853   85.2657   21.7319 C.3     1  UNL1        0.0252
     12 C          15.0321   83.9809   22.5654 C.3     1  UNL1        0.0923
     13 C          14.9886   87.7962   21.8651 C.3     1  UNL1        0.2054
     14 O          13.5954   87.7666   21.5607 O.3     1  UNL1       -0.4755
     15 C          13.0436   88.1459   20.3283 C.ar    1  UNL1        0.1388
     16 C          11.7332   88.6449   20.2104 C.ar    1  UNL1        0.0369
     17 C          11.2308   89.0081   18.9593 C.ar    1  UNL1        0.0033
     18 C          12.0244   88.8788   17.8174 C.ar    1  UNL1        0.0066
     19 C          13.3361   88.3824   17.9160 C.ar    1  UNL1        0.0785
     20 C          13.8348   88.0188   19.1797 C.ar    1  UNL1        0.0433
     21 C          14.1824   88.2427   16.7103 C.2     1  UNL1        0.3381
     22 O          14.8683   89.2159   16.2951 O.2     1  UNL1       -0.2451
     23 O          14.2295   87.0330   16.0219 O.3     1  UNL1       -0.4771
     24 H          14.8055   86.9268   15.1954 H       1  UNL1        0.2954
     25 C          11.1684   78.4131   25.4080 C.2     1  UNL1        0.2839
     26 O          11.2459   78.2803   24.1569 O.2     1  UNL1       -0.2665
     27 N          11.9687   79.4001   26.0755 N.am    1  UNL1       -0.2766
     28 H          12.3046   79.1830   27.0404 H       1  UNL1        0.1553
     29 C           8.0455   77.7468   24.8919 C.3     1  UNL1        0.0345
     30 C           8.9563   77.2025   25.9506 C.ar    1  UNL1        0.0202
     31 C          10.3107   77.4861   26.1671 C.ar    1  UNL1        0.1946
     32 O          10.7643   76.7751   27.1847 O.2     1  UNL1       -0.4492
     33 C           9.7696   76.0618   27.6532 C.ar    1  UNL1        0.1452
     34 C           9.7942   75.1786   28.7283 C.ar    1  UNL1        0.0375
     35 C           8.6004   74.5158   29.0643 C.ar    1  UNL1        0.0032
     36 C           7.4143   74.7397   28.3191 C.ar    1  UNL1        0.0014
     37 C           7.4258   75.6524   27.2404 C.ar    1  UNL1        0.0029
     38 C           8.6276   76.2910   26.9338 C.ar    1  UNL1        0.0337
     39 C           6.1601   74.0531   28.6990 C.ar    1  UNL1        0.0129
     40 C           5.7464   72.9390   27.9477 C.ar    1  UNL1        0.0012
     41 C           4.5950   72.2326   28.3005 C.ar    1  UNL1        0.0001
     42 C           3.8422   72.6295   29.4053 C.ar    1  UNL1        0.0013
     43 C           4.2317   73.7415   30.1545 C.ar    1  UNL1        0.0141
     44 C           5.3817   74.4690   29.8081 C.ar    1  UNL1        0.0415
     45 N           5.7131   75.6431   30.5621 N.pl3   1  UNL1       -0.3570
     46 H           6.4550   76.3081   30.2529 H       1  UNL1        0.1424
     47 H           5.1613   75.9008   31.4107 H       1  UNL1        0.1424
@<TRIPOS>BOND
     1    29    30    1
     2    30    31   ar
     3    31    25    1
     4    25    26    2
     5    25    27   am
     6    27     1    1
     7     1     2   ar
     8     2     3   ar
     9     3     4   ar
    10     4     7    1
    11     7     8    1
    12     8     9    1
    13     9    10    1
    14    10    13    1
    15    13    14    1
    16    14    15    1
    17    15    16   ar
    18    16    17   ar
    19    17    18   ar
    20    18    19   ar
    21    19    21    1
    22    21    22    2
    23    21    23    1
    24    19    20   ar
    25    10    11    1
    26    11    12    1
    27     4     5   ar
    28     5     6   ar
    29    31    32   ar
    30    32    33   ar
    31    33    34   ar
    32    34    35   ar
    33    35    36   ar
    34    36    39    1
    35    39    40   ar
    36    40    41   ar
    37    41    42   ar
    38    42    43   ar
    39    43    44   ar
    40    44    45    1
    41    36    37   ar
    42    37    38   ar
    43    38    30   ar
    44     6     1   ar
    45    38    33   ar
    46    12     7    1
    47    44    39   ar
    48    20    15   ar
    49    27    28    1
    50    23    24    1
    51    45    46    1
    52    45    47    1
@<TRIPOS>MOLECULE
*****
 47 52 0 0 0
SMALL
GASTEIGER

@<TRIPOS>ATOM
      1 C          12.3735   80.5802   25.4742 C.ar    1  UNL1        0.0702
      2 C          11.5077   81.6167   25.0926 C.ar    1  UNL1        0.0191
      3 C          12.0147   82.7670   24.4861 C.ar    1  UNL1        0.0356
      4 C          13.3988   82.8890   24.2728 C.ar    1  UNL1        0.1318
      5 N          14.2186   81.8740   24.6667 N.ar    1  UNL1       -0.2279
      6 C          13.7471   80.7452   25.2586 C.ar    1  UNL1        0.1149
      7 N          13.9626   84.0631   23.6475 N.pl3   1  UNL1       -0.2932
      8 C          13.2769   85.3581   23.7766 C.3     1  UNL1        0.0923
      9 C          14.3022   86.4955   23.8151 C.3     1  UNL1        0.0252
     10 C          15.2432   86.5013   22.5793 C.3     1  UNL1        0.0472
     11 C          15.2638   85.1454   21.8335 C.3     1  UNL1        0.0252
     12 C          15.1609   83.9584   22.7972 C.3     1  UNL1        0.0923
     13 C          14.8793   87.6425   21.6150 C.3     1  UNL1        0.2054
     14 O          13.8587   87.2144   20.7151 O.3     1  UNL1       -0.4755
     15 C          14.0110   87.1310   19.3234 C.ar    1  UNL1        0.1388
     16 C          13.7594   88.2215   18.4705 C.ar    1  UNL1        0.0369
     17 C          13.9256   88.0860   17.0908 C.ar    1  UNL1        0.0033
     18 C          14.3424   86.8686   16.5481 C.ar    1  UNL1        0.0066
     19 C          14.5988   85.7682   17.3849 C.ar    1  UNL1        0.0785
     20 C          14.4290   85.9126   18.7734 C.ar    1  UNL1        0.0433
     21 C          15.0406   84.4753   16.8167 C.2     1  UNL1        0.3381
     22 O          14.2623   83.4833   16.8052 O.2     1  UNL1       -0.2451
     23 O          16.3222   84.3418   16.2885 O.3     1  UNL1       -0.4771
     24 H          16.6346   83.4612   15.8972 H       1  UNL1        0.2954
     25 C          11.1259   78.3741   25.4601 C.2     1  UNL1        0.2839
     26 O          11.2379   78.2130   24.2150 O.2     1  UNL1       -0.2665
     27 N          11.8913   79.3913   26.1235 N.am    1  UNL1       -0.2766
     28 H          12.2059   79.2034   27.1016 H       1  UNL1        0.1553
     29 C           8.0109   77.6891   24.9215 C.3     1  UNL1        0.0345
     30 C           8.9143   77.1584   25.9934 C.ar    1  UNL1        0.0202
     31 C          10.2654   77.4501   26.2197 C.ar    1  UNL1        0.1946
     32 O          10.7129   76.7501   27.2476 O.2     1  UNL1       -0.4492
     33 C           9.7171   76.0365   27.7134 C.ar    1  UNL1        0.1452
     34 C           9.7358   75.1630   28.7965 C.ar    1  UNL1        0.0375
     35 C           8.5420   74.4978   29.1275 C.ar    1  UNL1        0.0032
     36 C           7.3617   74.7097   28.3695 C.ar    1  UNL1        0.0014
     37 C           7.3790   75.6129   27.2829 C.ar    1  UNL1        0.0029
     38 C           8.5807   76.2542   26.9816 C.ar    1  UNL1        0.0337
     39 C           6.1072   74.0209   28.7441 C.ar    1  UNL1        0.0129
     40 C           5.7014   72.9028   27.9943 C.ar    1  UNL1        0.0012
     41 C           4.5499   72.1943   28.3425 C.ar    1  UNL1        0.0001
     42 C           3.7890   72.5931   29.4411 C.ar    1  UNL1        0.0013
     43 C           4.1706   73.7089   30.1886 C.ar    1  UNL1        0.0141
     44 C           5.3206   74.4385   29.8468 C.ar    1  UNL1        0.0415
     45 N           5.6439   75.6163   30.5985 N.pl3   1  UNL1       -0.3570
     46 H           6.3857   76.2823   30.2915 H       1  UNL1        0.1424
     47 H           5.0860   75.8755   31.4426 H       1  UNL1        0.1424
@<TRIPOS>BOND
     1    29    30    1
     2    30    31   ar
     3    31    25    1
     4    25    26    2
     5    25    27   am
     6    27     1    1
     7     1     2   ar
     8     2     3   ar
     9     3     4   ar
    10     4     7    1
    11     7     8    1
    12     8     9    1
    13     9    10    1
    14    10    13    1
    15    13    14    1
    16    14    15    1
    17    15    16   ar
    18    16    17   ar
    19    17    18   ar
    20    18    19   ar
    21    19    21    1
    22    21    22    2
    23    21    23    1
    24    19    20   ar
    25    10    11    1
    26    11    12    1
    27     4     5   ar
    28     5     6   ar
    29    31    32   ar
    30    32    33   ar
    31    33    34   ar
    32    34    35   ar
    33    35    36   ar
    34    36    39    1
    35    39    40   ar
    36    40    41   ar
    37    41    42   ar
    38    42    43   ar
    39    43    44   ar
    40    44    45    1
    41    36    37   ar
    42    37    38   ar
    43    38    30   ar
    44     6     1   ar
    45    38    33   ar
    46    12     7    1
    47    44    39   ar
    48    20    15   ar
    49    27    28    1
    50    23    24    1
    51    45    46    1
    52    45    47    1
@<TRIPOS>MOLECULE
*****
 47 52 0 0 0
SMALL
GASTEIGER

@<TRIPOS>ATOM
      1 C          11.8548   81.5422   25.6083 C.ar    1  UNL1        0.0702
      2 C          12.9002   82.1533   26.3177 C.ar    1  UNL1        0.0191
      3 C          13.6696   83.1492   25.7142 C.ar    1  UNL1        0.0356
      4 C          13.4022   83.5268   24.3867 C.ar    1  UNL1        0.1318
      5 N          12.3911   82.9066   23.7158 N.ar    1  UNL1       -0.2279
      6 C          11.6290   81.9349   24.2834 C.ar    1  UNL1        0.1149
      7 N          14.1752   84.5537   23.7269 N.pl3   1  UNL1       -0.2932
      8 C          13.9997   85.9614   24.1159 C.3     1  UNL1        0.0923
      9 C          15.3262   86.7150   23.9793 C.3     1  UNL1        0.0252
     10 C          15.9303   86.6186   22.5516 C.3     1  UNL1        0.0472
     11 C          15.3428   85.4470   21.7284 C.3     1  UNL1        0.0252
     12 C          15.0615   84.2178   22.5992 C.3     1  UNL1        0.0923
     13 C          15.7672   87.9464   21.7933 C.3     1  UNL1        0.2054
     14 O          14.4119   88.3858   21.8644 O.3     1  UNL1       -0.4755
     15 C          13.5417   88.4569   20.7669 C.ar    1  UNL1        0.1388
     16 C          12.1449   88.3570   20.9042 C.ar    1  UNL1        0.0369
     17 C          11.3219   88.4335   19.7789 C.ar    1  UNL1        0.0033
     18 C          11.8788   88.6095   18.5103 C.ar    1  UNL1        0.0066
     19 C          13.2723   88.7117   18.3537 C.ar    1  UNL1        0.0785
     20 C          14.0943   88.6337   19.4921 C.ar    1  UNL1        0.0433
     21 C          13.8690   88.8982   17.0126 C.2     1  UNL1        0.3381
     22 O          14.9654   89.5069   16.8803 O.2     1  UNL1       -0.2451
     23 O          13.2243   88.4025   15.8821 O.3     1  UNL1       -0.4771
     24 H          13.6241   88.5248   14.9595 H       1  UNL1        0.2954
     25 C          10.7782   79.2490   25.5336 C.2     1  UNL1        0.2839
     26 O          11.5750   78.8015   24.6656 O.2     1  UNL1       -0.2665
     27 N          11.0566   80.4960   26.1879 N.am    1  UNL1       -0.2766
     28 H          10.7529   80.6026   27.1815 H       1  UNL1        0.1553
     29 C          10.2165   77.8291   28.3852 C.3     1  UNL1        0.0345
     30 C           9.3725   77.8083   27.1467 C.ar    1  UNL1        0.0202
     31 C           9.6137   78.4309   25.9154 C.ar    1  UNL1        0.1946
     32 O           8.6106   78.1978   25.0870 O.2     1  UNL1       -0.4492
     33 C           7.7421   77.4385   25.7090 C.ar    1  UNL1        0.1452
     34 C           6.5417   76.9419   25.2102 C.ar    1  UNL1        0.0375
     35 C           5.7592   76.1363   26.0563 C.ar    1  UNL1        0.0032
     36 C           6.1837   75.8512   27.3795 C.ar    1  UNL1        0.0014
     37 C           7.4144   76.3647   27.8470 C.ar    1  UNL1        0.0029
     38 C           8.1643   77.1613   26.9815 C.ar    1  UNL1        0.0337
     39 C           5.3614   74.9827   28.2503 C.ar    1  UNL1        0.0129
     40 C           5.2952   73.6079   27.9630 C.ar    1  UNL1        0.0012
     41 C           4.5700   72.7446   28.7864 C.ar    1  UNL1        0.0001
     42 C           3.9017   73.2420   29.9048 C.ar    1  UNL1        0.0013
     43 C           3.9464   74.6065   30.1972 C.ar    1  UNL1        0.0141
     44 C           4.6631   75.4903   29.3745 C.ar    1  UNL1        0.0415
     45 N           4.6319   76.8933   29.6703 N.pl3   1  UNL1       -0.3570
     46 H           5.0064   77.6069   29.0079 H       1  UNL1        0.1424
     47 H           4.1606   77.2419   30.5348 H       1  UNL1        0.1424
@<TRIPOS>BOND
     1    29    30    1
     2    30    31   ar
     3    31    25    1
     4    25    26    2
     5    25    27   am
     6    27     1    1
     7     1     2   ar
     8     2     3   ar
     9     3     4   ar
    10     4     7    1
    11     7     8    1
    12     8     9    1
    13     9    10    1
    14    10    13    1
    15    13    14    1
    16    14    15    1
    17    15    16   ar
    18    16    17   ar
    19    17    18   ar
    20    18    19   ar
    21    19    21    1
    22    21    22    2
    23    21    23    1
    24    19    20   ar
    25    10    11    1
    26    11    12    1
    27     4     5   ar
    28     5     6   ar
    29    31    32   ar
    30    32    33   ar
    31    33    34   ar
    32    34    35   ar
    33    35    36   ar
    34    36    39    1
    35    39    40   ar
    36    40    41   ar
    37    41    42   ar
    38    42    43   ar
    39    43    44   ar
    40    44    45    1
    41    36    37   ar
    42    37    38   ar
    43    38    30   ar
    44     6     1   ar
    45    38    33   ar
    46    12     7    1
    47    44    39   ar
    48    20    15   ar
    49    27    28    1
    50    23    24    1
    51    45    46    1
    52    45    47    1
@<TRIPOS>MOLECULE
*****
 47 52 0 0 0
SMALL
GASTEIGER

@<TRIPOS>ATOM
      1 C          11.7363   80.7855   25.2041 C.ar    1  UNL1        0.0702
      2 C          13.1222   80.9298   25.0365 C.ar    1  UNL1        0.0191
      3 C          13.6657   82.1787   24.7314 C.ar    1  UNL1        0.0356
      4 C          12.8167   83.2886   24.5778 C.ar    1  UNL1        0.1318
      5 N          11.4734   83.1173   24.7311 N.ar    1  UNL1       -0.2279
      6 C          10.9223   81.9111   25.0285 C.ar    1  UNL1        0.1149
      7 N          13.3403   84.5978   24.2629 N.pl3   1  UNL1       -0.2932
      8 C          12.8711   85.3003   23.0587 C.3     1  UNL1        0.0923
      9 C          12.8485   86.8118   23.3057 C.3     1  UNL1        0.0252
     10 C          14.2262   87.3698   23.7563 C.3     1  UNL1        0.0472
     11 C          15.1723   86.2704   24.2962 C.3     1  UNL1        0.0252
     12 C          14.4134   85.1929   25.0780 C.3     1  UNL1        0.0923
     13 C          14.9023   88.1532   22.6189 C.3     1  UNL1        0.2054
     14 O          15.5622   87.2526   21.7310 O.3     1  UNL1       -0.4755
     15 C          15.0091   86.7661   20.5376 C.ar    1  UNL1        0.1388
     16 C          14.0203   87.4678   19.8235 C.ar    1  UNL1        0.0369
     17 C          13.5014   86.9392   18.6400 C.ar    1  UNL1        0.0033
     18 C          13.9596   85.7115   18.1570 C.ar    1  UNL1        0.0066
     19 C          14.9473   84.9963   18.8569 C.ar    1  UNL1        0.0785
     20 C          15.4649   85.5355   20.0481 C.ar    1  UNL1        0.0433
     21 C          15.4372   83.6950   18.3510 C.2     1  UNL1        0.3381
     22 O          15.2625   83.3718   17.1448 O.2     1  UNL1       -0.2451
     23 O          16.0971   82.8137   19.2037 O.3     1  UNL1       -0.4771
     24 H          16.4365   81.9203   18.8676 H       1  UNL1        0.2954
     25 C          10.1719   78.8709   24.6468 C.2     1  UNL1        0.2839
     26 O          10.1494   79.1267   23.4128 O.2     1  UNL1       -0.2665
     27 N          11.1375   79.5108   25.4945 N.am    1  UNL1       -0.2766
     28 H          11.5039   78.9699   26.3095 H       1  UNL1        0.1553
     29 C           8.4441   79.0008   27.3783 C.3     1  UNL1        0.0345
     30 C           8.5078   77.9005   26.3623 C.ar    1  UNL1        0.0202
     31 C           9.2504   77.8500   25.1758 C.ar    1  UNL1        0.1946
     32 O           9.0069   76.7182   24.5381 O.2     1  UNL1       -0.4492
     33 C           8.1623   76.0227   25.2596 C.ar    1  UNL1        0.1452
     34 C           7.6409   74.7645   24.9739 C.ar    1  UNL1        0.0375
     35 C           6.7454   74.1968   25.8974 C.ar    1  UNL1        0.0032
     36 C           6.3830   74.8961   27.0773 C.ar    1  UNL1        0.0014
     37 C           6.9419   76.1675   27.3383 C.ar    1  UNL1        0.0029
     38 C           7.8254   76.7012   26.4000 C.ar    1  UNL1        0.0337
     39 C           5.4581   74.2760   28.0513 C.ar    1  UNL1        0.0129
     40 C           5.1743   72.9040   27.9333 C.ar    1  UNL1        0.0012
     41 C           4.3450   72.2683   28.8592 C.ar    1  UNL1        0.0001
     42 C           3.7881   72.9932   29.9124 C.ar    1  UNL1        0.0013
     43 C           4.0491   74.3592   30.0367 C.ar    1  UNL1        0.0141
     44 C           4.8733   75.0163   29.1091 C.ar    1  UNL1        0.0415
     45 N           5.0653   76.4323   29.2325 N.pl3   1  UNL1       -0.3570
     46 H           5.5290   76.9948   28.4865 H       1  UNL1        0.1424
     47 H           4.6741   76.9503   30.0508 H       1  UNL1        0.1424
@<TRIPOS>BOND
     1    29    30    1
     2    30    31   ar
     3    31    25    1
     4    25    26    2
     5    25    27   am
     6    27     1    1
     7     1     2   ar
     8     2     3   ar
     9     3     4   ar
    10     4     7    1
    11     7     8    1
    12     8     9    1
    13     9    10    1
    14    10    13    1
    15    13    14    1
    16    14    15    1
    17    15    16   ar
    18    16    17   ar
    19    17    18   ar
    20    18    19   ar
    21    19    21    1
    22    21    22    2
    23    21    23    1
    24    19    20   ar
    25    10    11    1
    26    11    12    1
    27     4     5   ar
    28     5     6   ar
    29    31    32   ar
    30    32    33   ar
    31    33    34   ar
    32    34    35   ar
    33    35    36   ar
    34    36    39    1
    35    39    40   ar
    36    40    41   ar
    37    41    42   ar
    38    42    43   ar
    39    43    44   ar
    40    44    45    1
    41    36    37   ar
    42    37    38   ar
    43    38    30   ar
    44     6     1   ar
    45    38    33   ar
    46    12     7    1
    47    44    39   ar
    48    20    15   ar
    49    27    28    1
    50    23    24    1
    51    45    46    1
    52    45    47    1
@<TRIPOS>MOLECULE
*****
 47 52 0 0 0
SMALL
GASTEIGER

@<TRIPOS>ATOM
      1 C          12.8935   81.9584   25.6964 C.ar    1  UNL1        0.0702
      2 C          13.6772   82.8781   26.4102 C.ar    1  UNL1        0.0191
      3 C          14.0415   84.0921   25.8257 C.ar    1  UNL1        0.0356
      4 C          13.6321   84.3829   24.5127 C.ar    1  UNL1        0.1318
      5 N          12.8844   83.4657   23.8367 N.ar    1  UNL1       -0.2279
      6 C          12.5179   82.2778   24.3859 C.ar    1  UNL1        0.1149
      7 N          13.9876   85.6285   23.8728 N.pl3   1  UNL1       -0.2932
      8 C          12.9551   86.4108   23.1758 C.3     1  UNL1        0.0923
      9 C          13.2531   87.9079   23.3029 C.3     1  UNL1        0.0252
     10 C          14.6656   88.2881   22.7807 C.3     1  UNL1        0.0472
     11 C          15.6176   87.0718   22.6830 C.3     1  UNL1        0.0252
     12 C          15.3913   86.0726   23.8226 C.3     1  UNL1        0.0923
     13 C          14.5762   89.0137   21.4279 C.3     1  UNL1        0.2054
     14 O          15.1415   88.2020   20.4002 O.3     1  UNL1       -0.4755
     15 C          14.4925   87.1120   19.8021 C.ar    1  UNL1        0.1388
     16 C          13.0959   87.0632   19.6378 C.ar    1  UNL1        0.0369
     17 C          12.4984   85.9539   19.0361 C.ar    1  UNL1        0.0033
     18 C          13.2821   84.8860   18.5935 C.ar    1  UNL1        0.0066
     19 C          14.6791   84.9173   18.7490 C.ar    1  UNL1        0.0785
     20 C          15.2732   86.0381   19.3559 C.ar    1  UNL1        0.0433
     21 C          15.5154   83.7892   18.2824 C.2     1  UNL1        0.3381
     22 O          15.8168   83.6791   17.0630 O.2     1  UNL1       -0.2451
     23 O          15.9782   82.8372   19.1873 O.3     1  UNL1       -0.4771
     24 H          16.5513   82.0610   18.8783 H       1  UNL1        0.2954
     25 C          11.9418   79.6183   25.4921 C.2     1  UNL1        0.2839
     26 O          12.1666   79.5352   24.2547 O.2     1  UNL1       -0.2665
     27 N          12.5193   80.6877   26.2559 N.am    1  UNL1       -0.2766
     28 H          12.7809   80.4912   27.2478 H       1  UNL1        0.1553
     29 C           8.7234   79.2955   25.5203 C.3     1  UNL1        0.0345
     30 C           9.7576   78.4207   26.1620 C.ar    1  UNL1        0.0202
     31 C          11.1514   78.5578   26.1415 C.ar    1  UNL1        0.1946
     32 O          11.7134   77.5596   26.8007 O.2     1  UNL1       -0.4492
     33 C          10.7566   76.7946   27.2663 C.ar    1  UNL1        0.1452
     34 C          10.8926   75.6378   28.0278 C.ar    1  UNL1        0.0375
     35 C           9.7214   74.9699   28.4271 C.ar    1  UNL1        0.0032
     36 C           8.4447   75.4622   28.0530 C.ar    1  UNL1        0.0014
     37 C           8.3463   76.6463   27.2882 C.ar    1  UNL1        0.0029
     38 C           9.5284   77.2821   26.9081 C.ar    1  UNL1        0.0337
     39 C           7.2206   74.7621   28.5005 C.ar    1  UNL1        0.0129
     40 C           6.8645   74.8271   29.8592 C.ar    1  UNL1        0.0012
     41 C           5.6924   74.2215   30.3157 C.ar    1  UNL1        0.0001
     42 C           4.8626   73.5431   29.4235 C.ar    1  UNL1        0.0013
     43 C           5.2080   73.4578   28.0733 C.ar    1  UNL1        0.0141
     44 C           6.3879   74.0530   27.5989 C.ar    1  UNL1        0.0415
     45 N           6.7416   73.8884   26.2188 N.pl3   1  UNL1       -0.3570
     46 H           7.6773   74.1660   25.8505 H       1  UNL1        0.1424
     47 H           6.0877   73.4128   25.5576 H       1  UNL1        0.1424
@<TRIPOS>BOND
     1    29    30    1
     2    30    31   ar
     3    31    25    1
     4    25    26    2
     5    25    27   am
     6    27     1    1
     7     1     2   ar
     8     2     3   ar
     9     3     4   ar
    10     4     7    1
    11     7     8    1
    12     8     9    1
    13     9    10    1
    14    10    13    1
    15    13    14    1
    16    14    15    1
    17    15    16   ar
    18    16    17   ar
    19    17    18   ar
    20    18    19   ar
    21    19    21    1
    22    21    22    2
    23    21    23    1
    24    19    20   ar
    25    10    11    1
    26    11    12    1
    27     4     5   ar
    28     5     6   ar
    29    31    32   ar
    30    32    33   ar
    31    33    34   ar
    32    34    35   ar
    33    35    36   ar
    34    36    39    1
    35    39    40   ar
    36    40    41   ar
    37    41    42   ar
    38    42    43   ar
    39    43    44   ar
    40    44    45    1
    41    36    37   ar
    42    37    38   ar
    43    38    30   ar
    44     6     1   ar
    45    38    33   ar
    46    12     7    1
    47    44    39   ar
    48    20    15   ar
    49    27    28    1
    50    23    24    1
    51    45    46    1
    52    45    47    1
@<TRIPOS>MOLECULE
*****
 47 52 0 0 0
SMALL
GASTEIGER

@<TRIPOS>ATOM
      1 C          11.9459   80.5797   24.3228 C.ar    1  UNL1        0.0702
      2 C          10.6413   80.8315   23.8708 C.ar    1  UNL1        0.0191
      3 C           9.6854   79.8144   23.8846 C.ar    1  UNL1        0.0356
      4 C          10.0399   78.5323   24.3392 C.ar    1  UNL1        0.1318
      5 N          11.3176   78.3112   24.7583 N.ar    1  UNL1       -0.2279
      6 C          12.2644   79.2862   24.7540 C.ar    1  UNL1        0.1149
      7 N           9.0795   77.4533   24.3698 N.pl3   1  UNL1       -0.2932
      8 C           8.2451   77.1864   23.1882 C.3     1  UNL1        0.0923
      9 C           7.9600   75.6858   23.0727 C.3     1  UNL1        0.0252
     10 C           7.2967   75.0981   24.3484 C.3     1  UNL1        0.0472
     11 C           7.4833   75.9998   25.5924 C.3     1  UNL1        0.0252
     12 C           8.8547   76.6835   25.6055 C.3     1  UNL1        0.0923
     13 C           5.8055   74.8082   24.1106 C.3     1  UNL1        0.2054
     14 O           5.2207   75.8577   23.3416 O.3     1  UNL1       -0.4755
     15 C           4.1437   76.6488   23.7673 C.ar    1  UNL1        0.1388
     16 C           3.7769   76.7577   25.1214 C.ar    1  UNL1        0.0369
     17 C           2.6954   77.5588   25.4930 C.ar    1  UNL1        0.0033
     18 C           1.9709   78.2569   24.5244 C.ar    1  UNL1        0.0066
     19 C           2.3231   78.1605   23.1667 C.ar    1  UNL1        0.0785
     20 C           3.4136   77.3516   22.8005 C.ar    1  UNL1        0.0433
     21 C           1.5598   78.8973   22.1352 C.2     1  UNL1        0.3381
     22 O           2.1557   79.6390   21.3077 O.2     1  UNL1       -0.2451
     23 O           0.1739   78.7784   22.0686 O.3     1  UNL1       -0.4771
     24 H          -0.3582   79.2785   21.3665 H       1  UNL1        0.2954
     25 C          12.8747   82.8304   25.0263 C.2     1  UNL1        0.2839
     26 O          12.1696   82.8993   26.0688 O.2     1  UNL1       -0.2665
     27 N          12.9639   81.5950   24.3008 N.am    1  UNL1       -0.2766
     28 H          13.8648   81.3774   23.8193 H       1  UNL1        0.1553
     29 C          15.2273   82.9678   22.8105 C.3     1  UNL1        0.0345
     30 C          14.6859   84.0696   23.6706 C.ar    1  UNL1        0.0202
     31 C          13.6612   84.0097   24.6236 C.ar    1  UNL1        0.1946
     32 O          13.4580   85.2072   25.1447 O.2     1  UNL1       -0.4492
     33 C          14.3119   86.0359   24.5954 C.ar    1  UNL1        0.1452
     34 C          14.4591   87.3951   24.8554 C.ar    1  UNL1        0.0375
     35 C          15.4505   88.0979   24.1481 C.ar    1  UNL1        0.0032
     36 C          16.2651   87.4358   23.1939 C.ar    1  UNL1        0.0014
     37 C          16.0932   86.0520   22.9650 C.ar    1  UNL1        0.0029
     38 C          15.0994   85.3866   23.6830 C.ar    1  UNL1        0.0337
     39 C          17.3199   88.1832   22.4745 C.ar    1  UNL1        0.0129
     40 C          18.5610   88.3757   23.1066 C.ar    1  UNL1        0.0012
     41 C          19.6001   89.0333   22.4456 C.ar    1  UNL1        0.0001
     42 C          19.4135   89.5076   21.1475 C.ar    1  UNL1        0.0013
     43 C          18.1831   89.3364   20.5101 C.ar    1  UNL1        0.0141
     44 C          17.1244   88.6857   21.1637 C.ar    1  UNL1        0.0415
     45 N          15.8562   88.5867   20.5013 N.pl3   1  UNL1       -0.3570
     46 H          14.9971   88.2629   20.9965 H       1  UNL1        0.1424
     47 H          15.7475   88.9108   19.5143 H       1  UNL1        0.1424
@<TRIPOS>BOND
     1    29    30    1
     2    30    31   ar
     3    31    25    1
     4    25    26    2
     5    25    27   am
     6    27     1    1
     7     1     2   ar
     8     2     3   ar
     9     3     4   ar
    10     4     7    1
    11     7     8    1
    12     8     9    1
    13     9    10    1
    14    10    13    1
    15    13    14    1
    16    14    15    1
    17    15    16   ar
    18    16    17   ar
    19    17    18   ar
    20    18    19   ar
    21    19    21    1
    22    21    22    2
    23    21    23    1
    24    19    20   ar
    25    10    11    1
    26    11    12    1
    27     4     5   ar
    28     5     6   ar
    29    31    32   ar
    30    32    33   ar
    31    33    34   ar
    32    34    35   ar
    33    35    36   ar
    34    36    39    1
    35    39    40   ar
    36    40    41   ar
    37    41    42   ar
    38    42    43   ar
    39    43    44   ar
    40    44    45    1
    41    36    37   ar
    42    37    38   ar
    43    38    30   ar
    44     6     1   ar
    45    38    33   ar
    46    12     7    1
    47    44    39   ar
    48    20    15   ar
    49    27    28    1
    50    23    24    1
    51    45    46    1
    52    45    47    1
@<TRIPOS>MOLECULE
*****
 47 52 0 0 0
SMALL
GASTEIGER

@<TRIPOS>ATOM
      1 C          12.3193   80.5377   24.5310 C.ar    1  UNL1        0.0702
      2 C          12.6865   79.2435   24.9307 C.ar    1  UNL1        0.0191
      3 C          11.7675   78.1962   24.8477 C.ar    1  UNL1        0.0356
      4 C          10.4672   78.4470   24.3759 C.ar    1  UNL1        0.1318
      5 N          10.1325   79.7160   24.0087 N.ar    1  UNL1       -0.2279
      6 C          11.0107   80.7506   24.0807 C.ar    1  UNL1        0.1149
      7 N           9.4874   77.3902   24.2743 N.pl3   1  UNL1       -0.2932
      8 C           9.7298   76.1043   24.9463 C.3     1  UNL1        0.0923
      9 C           8.4047   75.4995   25.4203 C.3     1  UNL1        0.0252
     10 C           7.3761   75.3242   24.2697 C.3     1  UNL1        0.0472
     11 C           7.7071   76.1906   23.0307 C.3     1  UNL1        0.0252
     12 C           8.2970   77.5498   23.4215 C.3     1  UNL1        0.0923
     13 C           7.2395   73.8449   23.8732 C.3     1  UNL1        0.2054
     14 O           7.7405   73.6451   22.5527 O.3     1  UNL1       -0.4755
     15 C           9.0822   73.3769   22.2446 C.ar    1  UNL1        0.1388
     16 C           9.6374   72.0884   22.3508 C.ar    1  UNL1        0.0369
     17 C          10.9799   71.8744   22.0324 C.ar    1  UNL1        0.0033
     18 C          11.7804   72.9367   21.6066 C.ar    1  UNL1        0.0066
     19 C          11.2428   74.2310   21.4943 C.ar    1  UNL1        0.0785
     20 C           9.8898   74.4383   21.8168 C.ar    1  UNL1        0.0433
     21 C          12.0851   75.3612   21.0439 C.2     1  UNL1        0.3381
     22 O          12.4013   76.2814   21.8459 O.2     1  UNL1       -0.2451
     23 O          12.5373   75.4191   19.7280 O.3     1  UNL1       -0.4771
     24 H          13.1143   76.1883   19.4095 H       1  UNL1        0.2954
     25 C          12.8235   82.9911   24.9182 C.2     1  UNL1        0.2839
     26 O          11.7646   83.2011   25.5688 O.2     1  UNL1       -0.2665
     27 N          13.2304   81.6462   24.6249 N.am    1  UNL1       -0.2766
     28 H          14.2547   81.4453   24.5857 H       1  UNL1        0.1553
     29 C          14.9636   83.1635   22.4988 C.3     1  UNL1        0.0345
     30 C          14.5986   84.2153   23.5025 C.ar    1  UNL1        0.0202
     31 C          13.6653   84.1412   24.5443 C.ar    1  UNL1        0.1946
     32 O          13.6124   85.2952   25.1865 O.2     1  UNL1       -0.4492
     33 C          14.4782   86.1064   24.6297 C.ar    1  UNL1        0.1452
     34 C          14.7623   87.4195   24.9923 C.ar    1  UNL1        0.0375
     35 C          15.7393   88.1106   24.2540 C.ar    1  UNL1        0.0032
     36 C          16.4035   87.4838   23.1685 C.ar    1  UNL1        0.0014
     37 C          16.0957   86.1451   22.8370 C.ar    1  UNL1        0.0029
     38 C          15.1204   85.4902   23.5894 C.ar    1  UNL1        0.0337
     39 C          17.4460   88.2155   22.4158 C.ar    1  UNL1        0.0129
     40 C          18.7218   88.3533   22.9905 C.ar    1  UNL1        0.0012
     41 C          19.7485   88.9943   22.2948 C.ar    1  UNL1        0.0001
     42 C          19.5148   89.5064   21.0189 C.ar    1  UNL1        0.0013
     43 C          18.2502   89.3896   20.4388 C.ar    1  UNL1        0.0141
     44 C          17.2037   88.7563   21.1283 C.ar    1  UNL1        0.0415
     45 N          15.9025   88.7134   20.5268 N.pl3   1  UNL1       -0.3570
     46 H          15.0583   88.4044   21.0559 H       1  UNL1        0.1424
     47 H          15.7568   89.0652   19.5542 H       1  UNL1        0.1424
@<TRIPOS>BOND
     1    29    30    1
     2    30    31   ar
     3    31    25    1
     4    25    26    2
     5    25    27   am
     6    27     1    1
     7     1     2   ar
     8     2     3   ar
     9     3     4   ar
    10     4     7    1
    11     7     8    1
    12     8     9    1
    13     9    10    1
    14    10    13    1
    15    13    14    1
    16    14    15    1
    17    15    16   ar
    18    16    17   ar
    19    17    18   ar
    20    18    19   ar
    21    19    21    1
    22    21    22    2
    23    21    23    1
    24    19    20   ar
    25    10    11    1
    26    11    12    1
    27     4     5   ar
    28     5     6   ar
    29    31    32   ar
    30    32    33   ar
    31    33    34   ar
    32    34    35   ar
    33    35    36   ar
    34    36    39    1
    35    39    40   ar
    36    40    41   ar
    37    41    42   ar
    38    42    43   ar
    39    43    44   ar
    40    44    45    1
    41    36    37   ar
    42    37    38   ar
    43    38    30   ar
    44     6     1   ar
    45    38    33   ar
    46    12     7    1
    47    44    39   ar
    48    20    15   ar
    49    27    28    1
    50    23    24    1
    51    45    46    1
    52    45    47    1
@<TRIPOS>MOLECULE
*****
 47 52 0 0 0
SMALL
GASTEIGER

@<TRIPOS>ATOM
      1 C          11.7245   80.4684   24.3470 C.ar    1  UNL1        0.0702
      2 C          10.4515   80.5981   23.7705 C.ar    1  UNL1        0.0191
      3 C           9.5030   79.5864   23.9292 C.ar    1  UNL1        0.0356
      4 C           9.8340   78.4300   24.6567 C.ar    1  UNL1        0.1318
      5 N          11.0822   78.3232   25.1931 N.ar    1  UNL1       -0.2279
      6 C          12.0213   79.2954   25.0516 C.ar    1  UNL1        0.1149
      7 N           8.8802   77.3610   24.8441 N.pl3   1  UNL1       -0.2932
      8 C           8.9362   76.1738   23.9774 C.3     1  UNL1        0.0923
      9 C           8.5030   74.9299   24.7593 C.3     1  UNL1        0.0252
     10 C           7.0906   75.0750   25.3890 C.3     1  UNL1        0.0472
     11 C           6.6282   76.5482   25.4945 C.3     1  UNL1        0.0252
     12 C           7.7893   77.4921   25.8253 C.3     1  UNL1        0.0923
     13 C           6.0554   74.2380   24.6193 C.3     1  UNL1        0.2054
     14 O           5.5212   74.9976   23.5365 O.3     1  UNL1       -0.4755
     15 C           5.6022   74.6227   22.1875 C.ar    1  UNL1        0.1388
     16 C           6.6457   73.8211   21.6889 C.ar    1  UNL1        0.0369
     17 C           6.6806   73.4762   20.3363 C.ar    1  UNL1        0.0033
     18 C           5.6811   73.9239   19.4697 C.ar    1  UNL1        0.0066
     19 C           4.6305   74.7254   19.9501 C.ar    1  UNL1        0.0785
     20 C           4.6025   75.0684   21.3137 C.ar    1  UNL1        0.0433
     21 C           3.5683   75.2033   19.0376 C.2     1  UNL1        0.3381
     22 O           2.3543   75.1071   19.3645 O.2     1  UNL1       -0.2451
     23 O           3.9001   75.7649   17.8071 O.3     1  UNL1       -0.4771
     24 H           3.1807   76.0951   17.1749 H       1  UNL1        0.2954
     25 C          12.8328   82.6498   25.0078 C.2     1  UNL1        0.2839
     26 O          12.3719   82.6356   26.1808 O.2     1  UNL1       -0.2665
     27 N          12.7355   81.4779   24.1846 N.am    1  UNL1       -0.2766
     28 H          13.5058   81.2968   23.5028 H       1  UNL1        0.1553
     29 C          15.4476   82.7880   23.1087 C.3     1  UNL1        0.0345
     30 C          14.6762   83.9167   23.7231 C.ar    1  UNL1        0.0202
     31 C          13.5390   83.8549   24.5385 C.ar    1  UNL1        0.1946
     32 O          13.1384   85.0756   24.8486 O.2     1  UNL1       -0.4492
     33 C          13.9689   85.9252   24.2954 C.ar    1  UNL1        0.1452
     34 C          13.9330   87.3143   24.3696 C.ar    1  UNL1        0.0375
     35 C          14.9345   88.0365   23.6969 C.ar    1  UNL1        0.0032
     36 C          15.9415   87.3619   22.9599 C.ar    1  UNL1        0.0014
     37 C          15.9514   85.9495   22.9167 C.ar    1  UNL1        0.0029
     38 C          14.9420   85.2651   23.5940 C.ar    1  UNL1        0.0337
     39 C          17.0025   88.1342   22.2769 C.ar    1  UNL1        0.0129
     40 C          18.2343   88.3131   22.9309 C.ar    1  UNL1        0.0012
     41 C          19.2791   88.9939   22.3033 C.ar    1  UNL1        0.0001
     42 C          19.1076   89.5053   21.0172 C.ar    1  UNL1        0.0013
     43 C          17.8866   89.3478   20.3587 C.ar    1  UNL1        0.0141
     44 C          16.8222   88.6741   20.9788 C.ar    1  UNL1        0.0415
     45 N          15.5633   88.5894   20.2969 N.pl3   1  UNL1       -0.3570
     46 H          14.6991   88.2478   20.7709 H       1  UNL1        0.1424
     47 H          15.4663   88.9418   19.3185 H       1  UNL1        0.1424
@<TRIPOS>BOND
     1    29    30    1
     2    30    31   ar
     3    31    25    1
     4    25    26    2
     5    25    27   am
     6    27     1    1
     7     1     2   ar
     8     2     3   ar
     9     3     4   ar
    10     4     7    1
    11     7     8    1
    12     8     9    1
    13     9    10    1
    14    10    13    1
    15    13    14    1
    16    14    15    1
    17    15    16   ar
    18    16    17   ar
    19    17    18   ar
    20    18    19   ar
    21    19    21    1
    22    21    22    2
    23    21    23    1
    24    19    20   ar
    25    10    11    1
    26    11    12    1
    27     4     5   ar
    28     5     6   ar
    29    31    32   ar
    30    32    33   ar
    31    33    34   ar
    32    34    35   ar
    33    35    36   ar
    34    36    39    1
    35    39    40   ar
    36    40    41   ar
    37    41    42   ar
    38    42    43   ar
    39    43    44   ar
    40    44    45    1
    41    36    37   ar
    42    37    38   ar
    43    38    30   ar
    44     6     1   ar
    45    38    33   ar
    46    12     7    1
    47    44    39   ar
    48    20    15   ar
    49    27    28    1
    50    23    24    1
    51    45    46    1
    52    45    47    1
@<TRIPOS>MOLECULE
*****
 47 52 0 0 0
SMALL
GASTEIGER

@<TRIPOS>ATOM
      1 C          11.1790   79.5633   23.8881 C.ar    1  UNL1        0.0702
      2 C          11.3630   78.2234   24.2628 C.ar    1  UNL1        0.0191
      3 C          10.4246   77.2572   23.8966 C.ar    1  UNL1        0.0356
      4 C           9.2863   77.6351   23.1634 C.ar    1  UNL1        0.1318
      5 N           9.1248   78.9455   22.8256 N.ar    1  UNL1       -0.2279
      6 C          10.0253   79.9029   23.1710 C.ar    1  UNL1        0.1149
      7 N           8.2926   76.6652   22.7647 N.pl3   1  UNL1       -0.2932
      8 C           7.1282   77.0965   21.9759 C.3     1  UNL1        0.0923
      9 C           6.6998   75.9820   21.0164 C.3     1  UNL1        0.0252
     10 C           6.3959   74.6437   21.7439 C.3     1  UNL1        0.0472
     11 C           7.0138   74.5765   23.1613 C.3     1  UNL1        0.0252
     12 C           8.3794   75.2688   23.2257 C.3     1  UNL1        0.0923
     13 C           4.8822   74.3792   21.8017 C.3     1  UNL1        0.2054
     14 O           4.1665   75.6032   21.6458 O.3     1  UNL1       -0.4755
     15 C           3.5861   76.3234   22.7000 C.ar    1  UNL1        0.1388
     16 C           2.4673   77.1571   22.5177 C.ar    1  UNL1        0.0369
     17 C           1.9274   77.8535   23.6008 C.ar    1  UNL1        0.0033
     18 C           2.4933   77.7277   24.8713 C.ar    1  UNL1        0.0066
     19 C           3.6112   76.8990   25.0725 C.ar    1  UNL1        0.0785
     20 C           4.1491   76.2009   23.9765 C.ar    1  UNL1        0.0433
     21 C           4.2160   76.7610   26.4159 C.2     1  UNL1        0.3381
     22 O           5.3136   76.1582   26.5635 O.2     1  UNL1       -0.2451
     23 O           3.5775   77.2966   27.5316 O.3     1  UNL1       -0.4771
     24 H           3.9828   77.2077   28.4557 H       1  UNL1        0.2954
     25 C          11.7373   81.7907   24.9606 C.2     1  UNL1        0.2839
     26 O          10.7069   81.8042   25.6864 O.2     1  UNL1       -0.2665
     27 N          12.1110   80.5904   24.2677 N.am    1  UNL1       -0.2766
     28 H          13.1296   80.4052   24.1297 H       1  UNL1        0.1553
     29 C          13.8143   82.8394   27.2076 C.3     1  UNL1        0.0345
     30 C          13.4770   83.4564   25.8839 C.ar    1  UNL1        0.0202
     31 C          12.5833   82.9960   24.9086 C.ar    1  UNL1        0.1946
     32 O          12.5942   83.8084   23.8661 O.2     1  UNL1       -0.4492
     33 C          13.4316   84.7832   24.1234 C.ar    1  UNL1        0.1452
     34 C          13.7463   85.8661   23.3081 C.ar    1  UNL1        0.0375
     35 C          14.6768   86.8045   23.7885 C.ar    1  UNL1        0.0032
     36 C          15.2783   86.6397   25.0626 C.ar    1  UNL1        0.0014
     37 C          14.9253   85.5326   25.8667 C.ar    1  UNL1        0.0029
     38 C          14.0003   84.6205   25.3582 C.ar    1  UNL1        0.0337
     39 C          16.2378   87.6476   25.5647 C.ar    1  UNL1        0.0129
     40 C          15.9518   88.3087   26.7722 C.ar    1  UNL1        0.0012
     41 C          16.8524   89.2320   27.3068 C.ar    1  UNL1        0.0001
     42 C          18.0476   89.5077   26.6432 C.ar    1  UNL1        0.0013
     43 C          18.3412   88.8697   25.4364 C.ar    1  UNL1        0.0141
     44 C          17.4425   87.9456   24.8798 C.ar    1  UNL1        0.0415
     45 N          17.7490   87.3599   23.6070 N.pl3   1  UNL1       -0.3570
     46 H          17.0503   86.7980   23.0739 H       1  UNL1        0.1424
     47 H          18.6671   87.5469   23.1454 H       1  UNL1        0.1424
@<TRIPOS>BOND
     1    29    30    1
     2    30    31   ar
     3    31    25    1
     4    25    26    2
     5    25    27   am
     6    27     1    1
     7     1     2   ar
     8     2     3   ar
     9     3     4   ar
    10     4     7    1
    11     7     8    1
    12     8     9    1
    13     9    10    1
    14    10    13    1
    15    13    14    1
    16    14    15    1
    17    15    16   ar
    18    16    17   ar
    19    17    18   ar
    20    18    19   ar
    21    19    21    1
    22    21    22    2
    23    21    23    1
    24    19    20   ar
    25    10    11    1
    26    11    12    1
    27     4     5   ar
    28     5     6   ar
    29    31    32   ar
    30    32    33   ar
    31    33    34   ar
    32    34    35   ar
    33    35    36   ar
    34    36    39    1
    35    39    40   ar
    36    40    41   ar
    37    41    42   ar
    38    42    43   ar
    39    43    44   ar
    40    44    45    1
    41    36    37   ar
    42    37    38   ar
    43    38    30   ar
    44     6     1   ar
    45    38    33   ar
    46    12     7    1
    47    44    39   ar
    48    20    15   ar
    49    27    28    1
    50    23    24    1
    51    45    46    1
    52    45    47    1
