@<TRIPOS>MOLECULE
*****
 40 44 0 0 0
SMALL
GASTEIGER

@<TRIPOS>ATOM
      1 C          49.2937    7.1098  -31.4871 C.3     1  UNL1        0.0328
      2 C          50.0183    7.8148  -30.3666 C.ar    1  UNL1       -0.0029
      3 C          51.4301    7.7786  -30.2933 C.ar    1  UNL1        0.0285
      4 I          52.6411    6.8073  -31.7442 I       1  UNL1       -0.0428
      5 C          52.0955    8.4055  -29.2353 C.ar    1  UNL1        0.0202
      6 C          51.3873    9.1164  -28.2621 C.ar    1  UNL1        0.0522
      7 C          49.9907    9.1926  -28.3561 C.ar    1  UNL1        0.0291
      8 C          49.2960    8.5431  -29.3899 C.ar    1  UNL1        0.0481
      9 N          52.0964    9.7063  -27.1574 N.am    1  UNL1       -0.2803
     10 C          52.4386   11.0989  -27.0912 C.2     1  UNL1        0.2495
     11 O          52.8622   11.6799  -28.1278 O.2     1  UNL1       -0.2698
     12 H          52.3842    9.0909  -26.3632 H       1  UNL1        0.1552
     13 C          52.3090   11.8572  -25.8227 C.ar    1  UNL1        0.0537
     14 C          51.1930   12.6796  -25.5824 C.ar    1  UNL1        0.0042
     15 C          51.1000   13.4238  -24.4027 C.ar    1  UNL1       -0.0028
     16 C          52.1229   13.3659  -23.4453 C.ar    1  UNL1       -0.0061
     17 C          53.2393   12.5521  -23.6819 C.ar    1  UNL1       -0.0028
     18 C          53.3314   11.8029  -24.8578 C.ar    1  UNL1        0.0042
     19 C          52.0612   14.2122  -22.2013 C.3     1  UNL1        0.0992
     20 N          51.4560   13.4438  -21.0956 N.3     1  UNL1       -0.2665
     21 C          50.0642   13.8777  -20.8543 C.3     1  UNL1        0.0899
     22 C          49.5256   13.3864  -19.4901 C.3     1  UNL1        0.0897
     23 N          50.2926   12.2448  -18.9528 N.3     1  UNL1       -0.2691
     24 C          50.0550   11.0101  -19.7216 C.3     1  UNL1        0.0897
     25 C          51.7368   12.5508  -18.8137 C.3     1  UNL1        0.0897
     26 C          52.2490   13.5583  -19.8605 C.3     1  UNL1        0.0899
     27 N          47.8620    8.6586  -29.4634 N.pl3   1  UNL1       -0.2827
     28 H          47.2843    7.7881  -29.4467 H       1  UNL1        0.1551
     29 C          47.1785    9.9175  -29.5508 C.ar    1  UNL1        0.2207
     30 N          46.8522   10.4264  -30.7673 N.ar    1  UNL1       -0.2120
     31 C          46.2155   11.6207  -30.8754 C.ar    1  UNL1        0.1034
     32 C          45.8856   12.3449  -29.7294 C.ar    1  UNL1        0.0400
     33 C          46.2078   11.8047  -28.4734 C.ar    1  UNL1        0.0872
     34 N          46.8438   10.6032  -28.4247 N.ar    1  UNL1       -0.2135
     35 C          45.9037   12.5123  -27.2007 C.ar    1  UNL1        0.0370
     36 C          45.2895   11.8199  -26.1407 C.ar    1  UNL1        0.0046
     37 C          44.9803   12.4811  -24.9520 C.ar    1  UNL1        0.0207
     38 C          45.2882   13.8342  -24.8220 C.ar    1  UNL1        0.0989
     39 N          45.8749   14.4992  -25.8506 N.ar    1  UNL1       -0.2423
     40 C          46.1838   13.8813  -27.0220 C.ar    1  UNL1        0.1003
@<TRIPOS>BOND
     1     1     2    1
     2     2     3   ar
     3     3     4    1
     4     3     5   ar
     5     5     6   ar
     6     6     9    1
     7     9    10   am
     8    10    11    2
     9    10    13    1
    10    13    14   ar
    11    14    15   ar
    12    15    16   ar
    13    16    19    1
    14    19    20    1
    15    20    21    1
    16    21    22    1
    17    22    23    1
    18    23    24    1
    19    23    25    1
    20    25    26    1
    21    16    17   ar
    22    17    18   ar
    23     6     7   ar
    24     7     8   ar
    25     8    27    1
    26    27    29    1
    27    29    30   ar
    28    30    31   ar
    29    31    32   ar
    30    32    33   ar
    31    33    35    1
    32    35    36   ar
    33    36    37   ar
    34    37    38   ar
    35    38    39   ar
    36    39    40   ar
    37    33    34   ar
    38     8     2   ar
    39    34    29   ar
    40    18    13   ar
    41    40    35   ar
    42    26    20    1
    43     9    12    1
    44    27    28    1
@<TRIPOS>MOLECULE
*****
 40 44 0 0 0
SMALL
GASTEIGER

@<TRIPOS>ATOM
      1 C          50.2977    7.3612  -31.0354 C.3     1  UNL1        0.0328
      2 C          50.6867    8.1366  -29.8005 C.ar    1  UNL1       -0.0029
      3 C          52.0459    8.2548  -29.4287 C.ar    1  UNL1        0.0285
      4 I          53.6357    7.4280  -30.5705 I       1  UNL1       -0.0428
      5 C          52.3992    8.9464  -28.2658 C.ar    1  UNL1        0.0202
      6 C          51.4275    9.5716  -27.4790 C.ar    1  UNL1        0.0522
      7 C          50.0830    9.4949  -27.8686 C.ar    1  UNL1        0.0291
      8 C          49.6986    8.7775  -29.0135 C.ar    1  UNL1        0.0481
      9 N          51.8172   10.2310  -26.2606 N.am    1  UNL1       -0.2803
     10 C          51.9472   11.6555  -26.1397 C.2     1  UNL1        0.2495
     11 O          52.4846   12.3076  -27.0765 O.2     1  UNL1       -0.2698
     12 H          52.0230    9.6453  -25.4199 H       1  UNL1        0.1552
     13 C          51.4674   12.3656  -24.9287 C.ar    1  UNL1        0.0537
     14 C          52.3677   12.7861  -23.9326 C.ar    1  UNL1        0.0042
     15 C          51.9023   13.4163  -22.7748 C.ar    1  UNL1       -0.0028
     16 C          50.5293   13.6313  -22.5876 C.ar    1  UNL1       -0.0061
     17 C          49.6276   13.2097  -23.5746 C.ar    1  UNL1       -0.0028
     18 C          50.0914   12.5849  -24.7352 C.ar    1  UNL1        0.0042
     19 C          50.0140   14.2518  -21.3161 C.3     1  UNL1        0.0992
     20 N          50.1945   13.3177  -20.1874 N.3     1  UNL1       -0.2665
     21 C          51.5239   13.4940  -19.5668 C.3     1  UNL1        0.0899
     22 C          51.9041   12.3080  -18.6495 C.3     1  UNL1        0.0897
     23 N          50.7309   11.5201  -18.2217 N.3     1  UNL1       -0.2691
     24 C          49.8911   12.2584  -17.2617 C.3     1  UNL1        0.0897
     25 C          49.9489   11.0034  -19.3707 C.3     1  UNL1        0.0897
     26 C          50.0076   11.9193  -20.6079 C.3     1  UNL1        0.0899
     27 N          48.3093    8.7356  -29.3918 N.pl3   1  UNL1       -0.2827
     28 H          47.8716    7.8106  -29.6027 H       1  UNL1        0.1551
     29 C          47.4853    9.9067  -29.4872 C.ar    1  UNL1        0.2207
     30 N          47.0704   10.3439  -30.7046 N.ar    1  UNL1       -0.2120
     31 C          46.2996   11.4556  -30.8206 C.ar    1  UNL1        0.1034
     32 C          45.9209   12.1674  -29.6819 C.ar    1  UNL1        0.0400
     33 C          46.3364   11.6997  -28.4242 C.ar    1  UNL1        0.0872
     34 N          47.1057   10.5792  -28.3674 N.ar    1  UNL1       -0.2135
     35 C          45.9887   12.4012  -27.1594 C.ar    1  UNL1        0.0370
     36 C          46.3052   13.7632  -27.0009 C.ar    1  UNL1        0.0046
     37 C          46.0031   14.4232  -25.8097 C.ar    1  UNL1        0.0207
     38 C          45.3817   13.7221  -24.7779 C.ar    1  UNL1        0.0989
     39 N          45.0845   12.4060  -24.9337 N.ar    1  UNL1       -0.2423
     40 C          45.3709   11.7362  -26.0820 C.ar    1  UNL1        0.1003
@<TRIPOS>BOND
     1     1     2    1
     2     2     3   ar
     3     3     4    1
     4     3     5   ar
     5     5     6   ar
     6     6     9    1
     7     9    10   am
     8    10    11    2
     9    10    13    1
    10    13    14   ar
    11    14    15   ar
    12    15    16   ar
    13    16    19    1
    14    19    20    1
    15    20    21    1
    16    21    22    1
    17    22    23    1
    18    23    24    1
    19    23    25    1
    20    25    26    1
    21    16    17   ar
    22    17    18   ar
    23     6     7   ar
    24     7     8   ar
    25     8    27    1
    26    27    29    1
    27    29    30   ar
    28    30    31   ar
    29    31    32   ar
    30    32    33   ar
    31    33    35    1
    32    35    36   ar
    33    36    37   ar
    34    37    38   ar
    35    38    39   ar
    36    39    40   ar
    37    33    34   ar
    38     8     2   ar
    39    34    29   ar
    40    18    13   ar
    41    40    35   ar
    42    26    20    1
    43     9    12    1
    44    27    28    1
@<TRIPOS>MOLECULE
*****
 40 44 0 0 0
SMALL
GASTEIGER

@<TRIPOS>ATOM
      1 C          50.5550    7.6601  -31.4083 C.3     1  UNL1        0.0328
      2 C          50.6505    8.1874  -29.9975 C.ar    1  UNL1       -0.0029
      3 C          51.8889    8.1836  -29.3148 C.ar    1  UNL1        0.0285
      4 I          53.6988    7.5105  -30.2014 I       1  UNL1       -0.0428
      5 C          51.9663    8.6429  -27.9963 C.ar    1  UNL1        0.0202
      6 C          50.8395    9.1563  -27.3474 C.ar    1  UNL1        0.0522
      7 C          49.6196    9.2035  -28.0363 C.ar    1  UNL1        0.0291
      8 C          49.5078    8.7169  -29.3494 C.ar    1  UNL1        0.0481
      9 N          50.9398    9.5725  -25.9734 N.am    1  UNL1       -0.2803
     10 C          49.9894   10.4420  -25.3398 C.2     1  UNL1        0.2495
     11 O          49.5456   11.4379  -25.9745 O.2     1  UNL1       -0.2698
     12 H          51.7484    9.2311  -25.4062 H       1  UNL1        0.1552
     13 C          49.5315   10.1898  -23.9514 C.ar    1  UNL1        0.0537
     14 C          48.4749   10.9318  -23.3922 C.ar    1  UNL1        0.0042
     15 C          48.0786   10.7169  -22.0690 C.ar    1  UNL1       -0.0028
     16 C          48.7348    9.7627  -21.2783 C.ar    1  UNL1       -0.0061
     17 C          49.7914    9.0243  -21.8288 C.ar    1  UNL1       -0.0028
     18 C          50.1852    9.2335  -23.1530 C.ar    1  UNL1        0.0042
     19 C          48.3567    9.5691  -19.8336 C.3     1  UNL1        0.0992
     20 N          48.9511   10.6379  -19.0069 N.3     1  UNL1       -0.2665
     21 C          47.9386   11.6553  -18.6558 C.3     1  UNL1        0.0899
     22 C          48.5784   12.9611  -18.1287 C.3     1  UNL1        0.0897
     23 N          49.9622   12.7652  -17.6522 N.3     1  UNL1       -0.2691
     24 C          50.0092   11.9948  -16.3968 C.3     1  UNL1        0.0897
     25 C          50.8428   12.1901  -18.6975 C.3     1  UNL1        0.0897
     26 C          50.0975   11.2687  -19.6817 C.3     1  UNL1        0.0899
     27 N          48.2414    8.7981  -30.0311 N.pl3   1  UNL1       -0.2827
     28 H          47.8996    7.9652  -30.5613 H       1  UNL1        0.1551
     29 C          47.4135    9.9702  -30.0137 C.ar    1  UNL1        0.2207
     30 N          46.9094   10.4590  -31.1766 N.ar    1  UNL1       -0.2120
     31 C          46.1329   11.5728  -31.1863 C.ar    1  UNL1        0.1034
     32 C          45.8405   12.2332  -29.9926 C.ar    1  UNL1        0.0400
     33 C          46.3482   11.7122  -28.7910 C.ar    1  UNL1        0.0872
     34 N          47.1187   10.5923  -28.8405 N.ar    1  UNL1       -0.2135
     35 C          46.0961   12.3570  -27.4743 C.ar    1  UNL1        0.0370
     36 C          45.4511   11.6377  -26.4512 C.ar    1  UNL1        0.0046
     37 C          45.1906   12.2417  -25.2211 C.ar    1  UNL1        0.0207
     38 C          45.5779   13.5643  -25.0129 C.ar    1  UNL1        0.0989
     39 N          46.1940   14.2560  -26.0061 N.ar    1  UNL1       -0.2423
     40 C          46.4570   13.6941  -27.2162 C.ar    1  UNL1        0.1003
@<TRIPOS>BOND
     1     1     2    1
     2     2     3   ar
     3     3     4    1
     4     3     5   ar
     5     5     6   ar
     6     6     9    1
     7     9    10   am
     8    10    11    2
     9    10    13    1
    10    13    14   ar
    11    14    15   ar
    12    15    16   ar
    13    16    19    1
    14    19    20    1
    15    20    21    1
    16    21    22    1
    17    22    23    1
    18    23    24    1
    19    23    25    1
    20    25    26    1
    21    16    17   ar
    22    17    18   ar
    23     6     7   ar
    24     7     8   ar
    25     8    27    1
    26    27    29    1
    27    29    30   ar
    28    30    31   ar
    29    31    32   ar
    30    32    33   ar
    31    33    35    1
    32    35    36   ar
    33    36    37   ar
    34    37    38   ar
    35    38    39   ar
    36    39    40   ar
    37    33    34   ar
    38     8     2   ar
    39    34    29   ar
    40    18    13   ar
    41    40    35   ar
    42    26    20    1
    43     9    12    1
    44    27    28    1
@<TRIPOS>MOLECULE
*****
 40 44 0 0 0
SMALL
GASTEIGER

@<TRIPOS>ATOM
      1 C          45.8660   13.1421  -29.9622 C.3     1  UNL1        0.0328
      2 C          46.1539   13.1834  -28.4813 C.ar    1  UNL1       -0.0029
      3 C          46.0375   14.3962  -27.7635 C.ar    1  UNL1        0.0285
      4 I          45.4057   16.2166  -28.6590 I       1  UNL1       -0.0428
      5 C          46.3368   14.4367  -26.3982 C.ar    1  UNL1        0.0202
      6 C          46.7078   13.2780  -25.7097 C.ar    1  UNL1        0.0522
      7 C          46.7808   12.0648  -26.4083 C.ar    1  UNL1        0.0291
      8 C          46.5183   12.0038  -27.7870 C.ar    1  UNL1        0.0481
      9 N          47.0601   13.3620  -24.3169 N.am    1  UNL1       -0.2803
     10 C          46.5197   12.4918  -23.3112 C.2     1  UNL1        0.2495
     11 O          45.2931   12.1984  -23.3437 O.2     1  UNL1       -0.2698
     12 H          47.7396   14.0974  -24.0174 H       1  UNL1        0.1552
     13 C          47.3801   11.9429  -22.2345 C.ar    1  UNL1        0.0537
     14 C          48.5768   12.5851  -21.8667 C.ar    1  UNL1        0.0042
     15 C          49.4027   12.0375  -20.8807 C.ar    1  UNL1       -0.0028
     16 C          49.0523   10.8353  -20.2496 C.ar    1  UNL1       -0.0061
     17 C          47.8638   10.1888  -20.6158 C.ar    1  UNL1       -0.0028
     18 C          47.0340   10.7375  -21.5970 C.ar    1  UNL1        0.0042
     19 C          49.9665   10.2056  -19.2322 C.3     1  UNL1        0.0992
     20 N          49.9409   10.9838  -17.9780 N.3     1  UNL1       -0.2665
     21 C          48.6270   11.6330  -17.7891 C.3     1  UNL1        0.0899
     22 C          48.6718   12.7443  -16.7141 C.3     1  UNL1        0.0897
     23 N          49.8271   12.6103  -15.8044 N.3     1  UNL1       -0.2691
     24 C          49.6847   11.4568  -14.8984 C.3     1  UNL1        0.0897
     25 C          51.1193   12.5972  -16.5317 C.3     1  UNL1        0.0897
     26 C          51.0172   11.9876  -17.9428 C.3     1  UNL1        0.0899
     27 N          46.5865   10.7359  -28.4672 N.pl3   1  UNL1       -0.2827
     28 H          45.7155   10.3422  -28.8891 H       1  UNL1        0.1551
     29 C          47.8001    9.9821  -28.6043 C.ar    1  UNL1        0.2207
     30 N          48.7799   10.1031  -27.6712 N.ar    1  UNL1       -0.2120
     31 C          49.9410    9.4086  -27.7854 C.ar    1  UNL1        0.1034
     32 C          50.1430    8.5553  -28.8707 C.ar    1  UNL1        0.0400
     33 C          49.1186    8.4191  -29.8221 C.ar    1  UNL1        0.0872
     34 N          47.9755    9.1375  -29.6560 N.ar    1  UNL1       -0.2135
     35 C          49.2521    7.5410  -31.0153 C.ar    1  UNL1        0.0370
     36 C          48.1012    7.0759  -31.6783 C.ar    1  UNL1        0.0046
     37 C          48.2166    6.2339  -32.7845 C.ar    1  UNL1        0.0207
     38 C          49.4831    5.8593  -33.2297 C.ar    1  UNL1        0.0989
     39 N          50.5903    6.3056  -32.5821 N.ar    1  UNL1       -0.2423
     40 C          50.5078    7.1239  -31.4990 C.ar    1  UNL1        0.1003
@<TRIPOS>BOND
     1     1     2    1
     2     2     3   ar
     3     3     4    1
     4     3     5   ar
     5     5     6   ar
     6     6     9    1
     7     9    10   am
     8    10    11    2
     9    10    13    1
    10    13    14   ar
    11    14    15   ar
    12    15    16   ar
    13    16    19    1
    14    19    20    1
    15    20    21    1
    16    21    22    1
    17    22    23    1
    18    23    24    1
    19    23    25    1
    20    25    26    1
    21    16    17   ar
    22    17    18   ar
    23     6     7   ar
    24     7     8   ar
    25     8    27    1
    26    27    29    1
    27    29    30   ar
    28    30    31   ar
    29    31    32   ar
    30    32    33   ar
    31    33    35    1
    32    35    36   ar
    33    36    37   ar
    34    37    38   ar
    35    38    39   ar
    36    39    40   ar
    37    33    34   ar
    38     8     2   ar
    39    34    29   ar
    40    18    13   ar
    41    40    35   ar
    42    26    20    1
    43     9    12    1
    44    27    28    1
@<TRIPOS>MOLECULE
*****
 40 44 0 0 0
SMALL
GASTEIGER

@<TRIPOS>ATOM
      1 C          46.0405   12.0994  -20.7186 C.3     1  UNL1        0.0328
      2 C          47.2061   11.6638  -21.5723 C.ar    1  UNL1       -0.0029
      3 C          48.4012   11.2054  -20.9711 C.ar    1  UNL1        0.0285
      4 I          48.6477   11.0320  -18.8678 I       1  UNL1       -0.0428
      5 C          49.4903   10.8337  -21.7656 C.ar    1  UNL1        0.0202
      6 C          49.4042   10.8614  -23.1605 C.ar    1  UNL1        0.0522
      7 C          48.2058   11.2724  -23.7607 C.ar    1  UNL1        0.0291
      8 C          47.1089   11.6832  -22.9853 C.ar    1  UNL1        0.0481
      9 N          50.5590   10.5230  -23.9499 N.am    1  UNL1       -0.2803
     10 C          50.6233    9.3697  -24.8021 C.2     1  UNL1        0.2495
     11 O          50.1455    8.2750  -24.3958 O.2     1  UNL1       -0.2698
     12 H          51.3984   11.1434  -23.8977 H       1  UNL1        0.1552
     13 C          51.2493    9.4469  -26.1449 C.ar    1  UNL1        0.0537
     14 C          52.3926   10.2368  -26.3656 C.ar    1  UNL1        0.0042
     15 C          52.9504   10.3375  -27.6434 C.ar    1  UNL1       -0.0028
     16 C          52.3725    9.6574  -28.7250 C.ar    1  UNL1       -0.0061
     17 C          51.2305    8.8732  -28.5117 C.ar    1  UNL1       -0.0028
     18 C          50.6749    8.7666  -27.2340 C.ar    1  UNL1        0.0042
     19 C          52.9287    9.8105  -30.1159 C.3     1  UNL1        0.0992
     20 N          54.0737    8.8985  -30.3066 N.3     1  UNL1       -0.2665
     21 C          53.7122    7.5155  -29.9319 C.3     1  UNL1        0.0899
     22 C          54.9556    6.6136  -29.7508 C.3     1  UNL1        0.0897
     23 N          56.1542    7.1546  -30.4225 N.3     1  UNL1       -0.2691
     24 C          56.0510    7.0663  -31.8899 C.3     1  UNL1        0.0897
     25 C          56.4876    8.5248  -29.9642 C.3     1  UNL1        0.0897
     26 C          55.2520    9.3436  -29.5445 C.3     1  UNL1        0.0899
     27 N          45.8881   12.0824  -23.6376 N.pl3   1  UNL1       -0.2827
     28 H          44.9750   11.8318  -23.1960 H       1  UNL1        0.1551
     29 C          45.8599   12.8197  -24.8685 C.ar    1  UNL1        0.2207
     30 N          45.6166   14.1560  -24.8506 N.ar    1  UNL1       -0.2120
     31 C          45.5740   14.8725  -26.0031 C.ar    1  UNL1        0.1034
     32 C          45.7819   14.2399  -27.2292 C.ar    1  UNL1        0.0400
     33 C          46.0524   12.8616  -27.2404 C.ar    1  UNL1        0.0872
     34 N          46.0852   12.1944  -26.0554 N.ar    1  UNL1       -0.2135
     35 C          46.2755   12.1043  -28.5012 C.ar    1  UNL1        0.0370
     36 C          46.7506   10.7807  -28.4517 C.ar    1  UNL1        0.0046
     37 C          46.9839   10.0708  -29.6296 C.ar    1  UNL1        0.0207
     38 C          46.7392   10.6836  -30.8573 C.ar    1  UNL1        0.0989
     39 N          46.2870   11.9636  -30.8995 N.ar    1  UNL1       -0.2423
     40 C          46.0547   12.6807  -29.7676 C.ar    1  UNL1        0.1003
@<TRIPOS>BOND
     1     1     2    1
     2     2     3   ar
     3     3     4    1
     4     3     5   ar
     5     5     6   ar
     6     6     9    1
     7     9    10   am
     8    10    11    2
     9    10    13    1
    10    13    14   ar
    11    14    15   ar
    12    15    16   ar
    13    16    19    1
    14    19    20    1
    15    20    21    1
    16    21    22    1
    17    22    23    1
    18    23    24    1
    19    23    25    1
    20    25    26    1
    21    16    17   ar
    22    17    18   ar
    23     6     7   ar
    24     7     8   ar
    25     8    27    1
    26    27    29    1
    27    29    30   ar
    28    30    31   ar
    29    31    32   ar
    30    32    33   ar
    31    33    35    1
    32    35    36   ar
    33    36    37   ar
    34    37    38   ar
    35    38    39   ar
    36    39    40   ar
    37    33    34   ar
    38     8     2   ar
    39    34    29   ar
    40    18    13   ar
    41    40    35   ar
    42    26    20    1
    43     9    12    1
    44    27    28    1
