@<TRIPOS>MOLECULE
*****
 25 28 0 0 0
SMALL
GASTEIGER

@<TRIPOS>ATOM
      1 C         -22.8160   -8.0215   -9.1249 C.3     1  UNL1        0.1427
      2 O         -23.6971   -7.7034   -8.0746 O.3     1  UNL1       -0.3752
      3 C         -21.5539   -8.7281   -8.5619 C.3     1  UNL1        0.0499
      4 C         -21.1310   -9.8014   -9.5930 C.3     1  UNL1        0.0562
      5 I         -19.0749   -9.5384  -10.1736 I       1  UNL1       -0.0752
      6 C         -22.0964   -9.5987  -10.7611 C.3     1  UNL1        0.0132
      7 C         -22.4167  -10.7481  -11.7259 C.3     1  UNL1        0.0052
      8 C         -21.2212  -11.5389  -12.2747 C.3     1  UNL1        0.0050
      9 C         -21.6834  -12.6433  -13.2712 C.3     1  UNL1        0.0261
     10 C         -23.1155  -12.5186  -13.7973 C.ar    1  UNL1       -0.0231
     11 C         -23.6829  -13.6162  -14.4625 C.ar    1  UNL1        0.0320
     12 C         -25.0087  -13.5766  -14.8999 C.ar    1  UNL1        0.1333
     13 O         -25.5496  -14.6815  -15.5536 O.3     1  UNL1       -0.5055
     14 C         -25.7834  -12.4348  -14.6710 C.ar    1  UNL1        0.0363
     15 C         -25.2343  -11.3260  -14.0233 C.ar    1  UNL1       -0.0015
     16 C         -23.8909  -11.3437  -13.6008 C.ar    1  UNL1       -0.0263
     17 C         -23.1950  -10.1741  -12.9389 C.3     1  UNL1        0.0221
     18 C         -23.9752   -8.8357  -12.6686 C.3     1  UNL1        0.0045
     19 C         -24.4030   -8.5551  -11.2070 C.3     1  UNL1        0.0036
     20 C         -23.4038   -9.0764  -10.1136 C.3     1  UNL1        0.0341
     21 C         -24.1569  -10.1788   -9.2865 C.3     1  UNL1        0.0033
     22 H         -24.5152   -7.3126   -8.4812 H       1  UNL1        0.2114
     23 H         -26.5085  -14.6863  -15.8811 H       1  UNL1        0.2922
     24 C         -22.0713   -5.7508  -10.3621 C.1     1  UNL1       -0.0119
     25 C         -22.4065   -6.7680   -9.8085 C.1     1  UNL1       -0.0526
@<TRIPOS>BOND
     1    24    25    3
     2     1    25    1
     3     1     2    1
     4     1     3    1
     5     3     4    1
     6     4     5    1
     7     4     6    1
     8     6     7    1
     9     7     8    1
    10     8     9    1
    11     9    10    1
    12    10    11   ar
    13    11    12   ar
    14    12    13    1
    15    12    14   ar
    16    14    15   ar
    17    15    16   ar
    18    16    17    1
    19    17    18    1
    20    18    19    1
    21    19    20    1
    22    20    21    1
    23    20     1    1
    24    20     6    1
    25    17     7    1
    26    16    10   ar
    27     2    22    1
    28    13    23    1
@<TRIPOS>MOLECULE
*****
 25 28 0 0 0
SMALL
GASTEIGER

@<TRIPOS>ATOM
      1 C         -23.5453  -11.3178  -16.1742 C.3     1  UNL1        0.1427
      2 O         -24.7447  -11.8607  -16.6718 O.3     1  UNL1       -0.3752
      3 C         -23.2152   -9.9947  -16.9155 C.3     1  UNL1        0.0499
      4 C         -22.5803   -9.0356  -15.8805 C.3     1  UNL1        0.0562
      5 I         -20.6684   -8.3236  -16.5674 I       1  UNL1       -0.0752
      6 C         -22.4656   -9.8788  -14.6103 C.3     1  UNL1        0.0132
      7 C         -22.4249   -9.2163  -13.2268 C.3     1  UNL1        0.0052
      8 C         -21.4615   -8.0334  -13.0588 C.3     1  UNL1        0.0050
      9 C         -21.4883   -7.4853  -11.6010 C.3     1  UNL1        0.0261
     10 C         -22.1370   -8.3925  -10.5525 C.ar    1  UNL1       -0.0231
     11 C         -22.4471   -7.8496   -9.2963 C.ar    1  UNL1        0.0320
     12 C         -23.1019   -8.6170   -8.3304 C.ar    1  UNL1        0.1333
     13 O         -23.4025   -8.0528   -7.0927 O.3     1  UNL1       -0.5055
     14 C         -23.4575   -9.9394   -8.6156 C.ar    1  UNL1        0.0363
     15 C         -23.1460  -10.5038   -9.8545 C.ar    1  UNL1       -0.0015
     16 C         -22.4626   -9.7485  -10.8272 C.ar    1  UNL1       -0.0263
     17 C         -22.0374  -10.2890  -12.1753 C.3     1  UNL1        0.0221
     18 C         -22.3644  -11.7746  -12.5741 C.3     1  UNL1        0.0045
     19 C         -23.5133  -11.9926  -13.5893 C.3     1  UNL1        0.0036
     20 C         -23.6518  -10.8734  -14.6820 C.3     1  UNL1        0.0341
     21 C         -25.0431  -10.1796  -14.4599 C.3     1  UNL1        0.0033
     22 H         -24.9524  -12.6679  -16.1309 H       1  UNL1        0.2114
     23 H         -23.8790   -8.5812   -6.3712 H       1  UNL1        0.2922
     24 C         -21.5531  -13.0793  -16.5865 C.1     1  UNL1       -0.0119
     25 C         -22.4446  -12.2891  -16.4010 C.1     1  UNL1       -0.0526
@<TRIPOS>BOND
     1    24    25    3
     2     1    25    1
     3     1     2    1
     4     1     3    1
     5     3     4    1
     6     4     5    1
     7     4     6    1
     8     6     7    1
     9     7     8    1
    10     8     9    1
    11     9    10    1
    12    10    11   ar
    13    11    12   ar
    14    12    13    1
    15    12    14   ar
    16    14    15   ar
    17    15    16   ar
    18    16    17    1
    19    17    18    1
    20    18    19    1
    21    19    20    1
    22    20    21    1
    23    20     1    1
    24    20     6    1
    25    17     7    1
    26    16    10   ar
    27     2    22    1
    28    13    23    1
@<TRIPOS>MOLECULE
*****
 25 28 0 0 0
SMALL
GASTEIGER

@<TRIPOS>ATOM
      1 C         -23.5720  -11.0896  -15.9913 C.3     1  UNL1        0.1427
      2 O         -23.6550  -10.0368  -16.9218 O.3     1  UNL1       -0.3752
      3 C         -22.9506  -12.3429  -16.6637 C.3     1  UNL1        0.0499
      4 C         -22.0684  -13.0425  -15.6024 C.3     1  UNL1        0.0562
      5 I         -22.6349  -15.1069  -15.3748 I       1  UNL1       -0.0752
      6 C         -22.3018  -12.2308  -14.3280 C.3     1  UNL1        0.0132
      7 C         -21.2512  -12.2017  -13.2099 C.3     1  UNL1        0.0052
      8 C         -20.6764  -13.5554  -12.7708 C.3     1  UNL1        0.0050
      9 C         -19.6579  -13.3855  -11.6046 C.3     1  UNL1        0.0261
     10 C         -19.6817  -12.0367  -10.8812 C.ar    1  UNL1       -0.0231
     11 C         -18.6169  -11.7166  -10.0252 C.ar    1  UNL1        0.0320
     12 C         -18.5580  -10.4710   -9.3963 C.ar    1  UNL1        0.1333
     13 O         -17.4877  -10.1763   -8.5547 O.3     1  UNL1       -0.5055
     14 C         -19.5665   -9.5286   -9.6226 C.ar    1  UNL1        0.0363
     15 C         -20.6424   -9.8317  -10.4599 C.ar    1  UNL1       -0.0015
     16 C         -20.7267  -11.0939  -11.0790 C.ar    1  UNL1       -0.0263
     17 C         -21.8776  -11.5310  -11.9592 C.3     1  UNL1        0.0221
     18 C         -23.0742  -10.5516  -12.2461 C.3     1  UNL1        0.0045
     19 C         -23.1213   -9.8916  -13.6460 C.3     1  UNL1        0.0036
     20 C         -22.5869  -10.7888  -14.8188 C.3     1  UNL1        0.0341
     21 C         -21.3119  -10.0796  -15.4000 C.3     1  UNL1        0.0033
     22 H         -23.9966   -9.2391  -16.4379 H       1  UNL1        0.2114
     23 H         -17.4135   -9.2813   -8.0855 H       1  UNL1        0.2922
     24 C         -26.0473  -11.6921  -15.1246 C.1     1  UNL1       -0.0119
     25 C         -24.9389  -11.4218  -15.5144 C.1     1  UNL1       -0.0526
@<TRIPOS>BOND
     1    24    25    3
     2     1    25    1
     3     1     2    1
     4     1     3    1
     5     3     4    1
     6     4     5    1
     7     4     6    1
     8     6     7    1
     9     7     8    1
    10     8     9    1
    11     9    10    1
    12    10    11   ar
    13    11    12   ar
    14    12    13    1
    15    12    14   ar
    16    14    15   ar
    17    15    16   ar
    18    16    17    1
    19    17    18    1
    20    18    19    1
    21    19    20    1
    22    20    21    1
    23    20     1    1
    24    20     6    1
    25    17     7    1
    26    16    10   ar
    27     2    22    1
    28    13    23    1
@<TRIPOS>MOLECULE
*****
 25 28 0 0 0
SMALL
GASTEIGER

@<TRIPOS>ATOM
      1 C         -22.1419   -8.2689  -12.5304 C.3     1  UNL1        0.1427
      2 O         -21.7847   -7.1343  -13.2828 O.3     1  UNL1       -0.3752
      3 C         -23.3636   -7.9440  -11.6298 C.3     1  UNL1        0.0499
      4 C         -24.2442   -9.2151  -11.5760 C.3     1  UNL1        0.0562
      5 I         -24.6059   -9.8114   -9.5394 I       1  UNL1       -0.0752
      6 C         -23.4428  -10.2586  -12.3547 C.3     1  UNL1        0.0132
      7 C         -24.1420  -11.4492  -13.0242 C.3     1  UNL1        0.0052
      8 C         -25.1562  -12.2210  -12.1689 C.3     1  UNL1        0.0050
      9 C         -25.7565  -13.4254  -12.9533 C.3     1  UNL1        0.0261
     10 C         -25.0088  -13.8423  -14.2223 C.ar    1  UNL1       -0.0231
     11 C         -25.6428  -14.7184  -15.1164 C.ar    1  UNL1        0.0320
     12 C         -25.0308  -15.0737  -16.3204 C.ar    1  UNL1        0.1333
     13 O         -25.6836  -15.9418  -17.1929 O.3     1  UNL1       -0.5055
     14 C         -23.7750  -14.5499  -16.6441 C.ar    1  UNL1        0.0363
     15 C         -23.1201  -13.6873  -15.7622 C.ar    1  UNL1       -0.0015
     16 C         -23.7152  -13.3422  -14.5333 C.ar    1  UNL1       -0.0263
     17 C         -23.0612  -12.4583  -13.4935 C.3     1  UNL1        0.0221
     18 C         -21.6352  -11.8481  -13.7536 C.3     1  UNL1        0.0045
     19 C         -21.5702  -10.3435  -14.1139 C.3     1  UNL1        0.0036
     20 C         -22.6544   -9.4484  -13.4146 C.3     1  UNL1        0.0341
     21 C         -23.5753   -8.8677  -14.5465 C.3     1  UNL1        0.0033
     22 H         -21.0439   -7.4009  -13.8888 H       1  UNL1        0.2114
     23 H         -25.2686  -16.2173  -18.0752 H       1  UNL1        0.2922
     24 C         -20.0634   -8.9780  -10.9753 C.1     1  UNL1       -0.0119
     25 C         -20.9952   -8.6593  -11.6709 C.1     1  UNL1       -0.0526
@<TRIPOS>BOND
     1    24    25    3
     2     1    25    1
     3     1     2    1
     4     1     3    1
     5     3     4    1
     6     4     5    1
     7     4     6    1
     8     6     7    1
     9     7     8    1
    10     8     9    1
    11     9    10    1
    12    10    11   ar
    13    11    12   ar
    14    12    13    1
    15    12    14   ar
    16    14    15   ar
    17    15    16   ar
    18    16    17    1
    19    17    18    1
    20    18    19    1
    21    19    20    1
    22    20    21    1
    23    20     1    1
    24    20     6    1
    25    17     7    1
    26    16    10   ar
    27     2    22    1
    28    13    23    1
@<TRIPOS>MOLECULE
*****
 25 28 0 0 0
SMALL
GASTEIGER

@<TRIPOS>ATOM
      1 C         -22.2110   -7.1523  -11.9434 C.3     1  UNL1        0.1427
      2 O         -21.1528   -6.2824  -12.2667 O.3     1  UNL1       -0.3752
      3 C         -23.5574   -6.5518  -12.4288 C.3     1  UNL1        0.0499
      4 C         -24.4360   -7.7294  -12.9141 C.3     1  UNL1        0.0562
      5 I         -26.3421   -7.7266  -11.9135 I       1  UNL1       -0.0752
      6 C         -23.6087   -8.9729  -12.5872 C.3     1  UNL1        0.0132
      7 C         -23.8096  -10.2792  -13.3668 C.3     1  UNL1        0.0052
      8 C         -25.2577  -10.7510  -13.5567 C.3     1  UNL1        0.0050
      9 C         -25.3148  -12.1056  -14.3237 C.3     1  UNL1        0.0261
     10 C         -23.9986  -12.8812  -14.4190 C.ar    1  UNL1       -0.0231
     11 C         -23.9145  -13.9499  -15.3245 C.ar    1  UNL1        0.0320
     12 C         -22.7152  -14.6441  -15.4981 C.ar    1  UNL1        0.1333
     13 O         -22.6570  -15.6983  -16.4069 O.3     1  UNL1       -0.5055
     14 C         -21.5828  -14.2710  -14.7668 C.ar    1  UNL1        0.0363
     15 C         -21.6481  -13.2194  -13.8500 C.ar    1  UNL1       -0.0015
     16 C         -22.8586  -12.5287  -13.6468 C.ar    1  UNL1       -0.0263
     17 C         -23.0390  -11.4129  -12.6405 C.3     1  UNL1        0.0221
     18 C         -21.8311  -10.9447  -11.7489 C.3     1  UNL1        0.0045
     19 C         -21.1590   -9.6015  -12.1260 C.3     1  UNL1        0.0036
     20 C         -22.1332   -8.5134  -12.7030 C.3     1  UNL1        0.0341
     21 C         -21.6949   -8.2395  -14.1860 C.3     1  UNL1        0.0033
     22 H         -20.3076   -6.7301  -11.9977 H       1  UNL1        0.2114
     23 H         -21.8020  -16.2205  -16.5585 H       1  UNL1        0.2922
     24 C         -22.2975   -7.4663   -9.2721 C.1     1  UNL1       -0.0119
     25 C         -22.2603   -7.3261  -10.4690 C.1     1  UNL1       -0.0526
@<TRIPOS>BOND
     1    24    25    3
     2     1    25    1
     3     1     2    1
     4     1     3    1
     5     3     4    1
     6     4     5    1
     7     4     6    1
     8     6     7    1
     9     7     8    1
    10     8     9    1
    11     9    10    1
    12    10    11   ar
    13    11    12   ar
    14    12    13    1
    15    12    14   ar
    16    14    15   ar
    17    15    16   ar
    18    16    17    1
    19    17    18    1
    20    18    19    1
    21    19    20    1
    22    20    21    1
    23    20     1    1
    24    20     6    1
    25    17     7    1
    26    16    10   ar
    27     2    22    1
    28    13    23    1
@<TRIPOS>MOLECULE
*****
 25 28 0 0 0
SMALL
GASTEIGER

@<TRIPOS>ATOM
      1 C         -23.4438  -10.7464  -16.1184 C.3     1  UNL1        0.1427
      2 O         -23.6454  -10.2704  -17.4275 O.3     1  UNL1       -0.3752
      3 C         -22.2011  -11.6755  -16.0782 C.3     1  UNL1        0.0499
      4 C         -21.4897  -11.4313  -14.7261 C.3     1  UNL1        0.0562
      5 I         -21.2300  -13.2787  -13.6519 I       1  UNL1       -0.0752
      6 C         -22.4081  -10.4545  -13.9913 C.3     1  UNL1        0.0132
      7 C         -21.8581   -9.5260  -12.9004 C.3     1  UNL1        0.0052
      8 C         -20.9600  -10.1716  -11.8363 C.3     1  UNL1        0.0050
      9 C         -20.5085   -9.1296  -10.7701 C.3     1  UNL1        0.0261
     10 C         -21.2884   -7.8128  -10.7432 C.ar    1  UNL1       -0.0231
     11 C         -20.7606   -6.7361  -10.0144 C.ar    1  UNL1        0.0320
     12 C         -21.3989   -5.4939  -10.0154 C.ar    1  UNL1        0.1333
     13 O         -20.8516   -4.4398   -9.2873 O.3     1  UNL1       -0.5055
     14 C         -22.5743   -5.3158  -10.7523 C.ar    1  UNL1        0.0363
     15 C         -23.1244   -6.3780  -11.4734 C.ar    1  UNL1       -0.0015
     16 C         -22.5044   -7.6425  -11.4590 C.ar    1  UNL1       -0.0263
     17 C         -23.0528   -8.8633  -12.1655 C.3     1  UNL1        0.0221
     18 C         -24.3867   -8.7694  -12.9933 C.3     1  UNL1        0.0045
     19 C         -24.2560   -8.7525  -14.5362 C.3     1  UNL1        0.0036
     20 C         -23.0750   -9.6142  -15.1095 C.3     1  UNL1        0.0341
     21 C         -22.0750   -8.6235  -15.8059 C.3     1  UNL1        0.0033
     22 H         -24.4071   -9.6330  -17.3978 H       1  UNL1        0.2114
     23 H         -21.2882   -3.5255   -9.2692 H       1  UNL1        0.2922
     24 C         -25.6103  -12.1454  -15.3500 C.1     1  UNL1       -0.0119
     25 C         -24.6406  -11.5175  -15.6950 C.1     1  UNL1       -0.0526
@<TRIPOS>BOND
     1    24    25    3
     2     1    25    1
     3     1     2    1
     4     1     3    1
     5     3     4    1
     6     4     5    1
     7     4     6    1
     8     6     7    1
     9     7     8    1
    10     8     9    1
    11     9    10    1
    12    10    11   ar
    13    11    12   ar
    14    12    13    1
    15    12    14   ar
    16    14    15   ar
    17    15    16   ar
    18    16    17    1
    19    17    18    1
    20    18    19    1
    21    19    20    1
    22    20    21    1
    23    20     1    1
    24    20     6    1
    25    17     7    1
    26    16    10   ar
    27     2    22    1
    28    13    23    1
@<TRIPOS>MOLECULE
*****
 25 28 0 0 0
SMALL
GASTEIGER

@<TRIPOS>ATOM
      1 C         -24.4464  -11.6445  -15.3098 C.3     1  UNL1        0.1427
      2 O         -25.1221  -10.9096  -16.3019 O.3     1  UNL1       -0.3752
      3 C         -23.1713  -12.2955  -15.9093 C.3     1  UNL1        0.0499
      4 C         -22.0792  -12.2580  -14.8139 C.3     1  UNL1        0.0562
      5 I         -21.2834  -14.2262  -14.4573 I       1  UNL1       -0.0752
      6 C         -22.7969  -11.6895  -13.5895 C.3     1  UNL1        0.0132
      7 C         -22.0151  -10.9692  -12.4829 C.3     1  UNL1        0.0052
      8 C         -20.7508  -11.6697  -11.9665 C.3     1  UNL1        0.0050
      9 C         -20.0814  -10.8548  -10.8201 C.3     1  UNL1        0.0261
     10 C         -20.9413   -9.7623  -10.1799 C.ar    1  UNL1       -0.0231
     11 C         -20.3167   -8.8165   -9.3525 C.ar    1  UNL1        0.0320
     12 C         -21.0455   -7.7605   -8.8010 C.ar    1  UNL1        0.1333
     13 O         -20.4005   -6.8323   -7.9866 O.3     1  UNL1       -0.5055
     14 C         -22.4113   -7.6384   -9.0768 C.ar    1  UNL1        0.0363
     15 C         -23.0557   -8.5764   -9.8863 C.ar    1  UNL1       -0.0015
     16 C         -22.3373   -9.6605  -10.4270 C.ar    1  UNL1       -0.0263
     17 C         -22.9586  -10.7525  -11.2707 C.3     1  UNL1        0.0221
     18 C         -24.4943  -10.7186  -11.6079 C.3     1  UNL1        0.0045
     19 C         -24.8886  -10.2978  -13.0450 C.3     1  UNL1        0.0036
     20 C         -23.8831  -10.7459  -14.1649 C.3     1  UNL1        0.0341
     21 C         -23.2828   -9.4397  -14.7973 C.3     1  UNL1        0.0033
     22 H         -25.8927  -10.4595  -15.8650 H       1  UNL1        0.2114
     23 H         -20.8995   -6.0533   -7.5731 H       1  UNL1        0.2922
     24 C         -26.0769  -13.5786  -14.3921 C.1     1  UNL1       -0.0119
     25 C         -25.3452  -12.7132  -14.8038 C.1     1  UNL1       -0.0526
@<TRIPOS>BOND
     1    24    25    3
     2     1    25    1
     3     1     2    1
     4     1     3    1
     5     3     4    1
     6     4     5    1
     7     4     6    1
     8     6     7    1
     9     7     8    1
    10     8     9    1
    11     9    10    1
    12    10    11   ar
    13    11    12   ar
    14    12    13    1
    15    12    14   ar
    16    14    15   ar
    17    15    16   ar
    18    16    17    1
    19    17    18    1
    20    18    19    1
    21    19    20    1
    22    20    21    1
    23    20     1    1
    24    20     6    1
    25    17     7    1
    26    16    10   ar
    27     2    22    1
    28    13    23    1
@<TRIPOS>MOLECULE
*****
 25 28 0 0 0
SMALL
GASTEIGER

@<TRIPOS>ATOM
      1 C         -22.8185  -10.0963  -11.8171 C.3     1  UNL1        0.1427
      2 O         -23.5914   -9.7811  -10.6839 O.3     1  UNL1       -0.3752
      3 C         -22.9831  -11.5990  -12.1692 C.3     1  UNL1        0.0499
      4 C         -22.9665  -11.7127  -13.7122 C.3     1  UNL1        0.0562
      5 I         -21.4639  -13.1109  -14.3616 I       1  UNL1       -0.0752
      6 C         -22.6814  -10.2884  -14.1892 C.3     1  UNL1        0.0132
      7 C         -23.1186   -9.8234  -15.5847 C.3     1  UNL1        0.0052
      8 C         -22.7831  -10.7558  -16.7567 C.3     1  UNL1        0.0050
      9 C         -23.2422  -10.1451  -18.1141 C.3     1  UNL1        0.0261
     10 C         -23.5820   -8.6526  -18.1002 C.ar    1  UNL1       -0.0231
     11 C         -24.2644   -8.1104  -19.2000 C.ar    1  UNL1        0.0320
     12 C         -24.6576   -6.7703  -19.2044 C.ar    1  UNL1        0.1333
     13 O         -25.3380   -6.2578  -20.3067 O.3     1  UNL1       -0.5055
     14 C         -24.3740   -5.9580  -18.1017 C.ar    1  UNL1        0.0363
     15 C         -23.6835   -6.4737  -17.0027 C.ar    1  UNL1       -0.0015
     16 C         -23.2586   -7.8164  -16.9974 C.ar    1  UNL1       -0.0263
     17 C         -22.4616   -8.4488  -15.8769 C.3     1  UNL1        0.0221
     18 C         -22.0671   -7.6057  -14.6093 C.3     1  UNL1        0.0045
     19 C         -22.8612   -7.8799  -13.3085 C.3     1  UNL1        0.0036
     20 C         -23.3095   -9.3716  -13.1092 C.3     1  UNL1        0.0341
     21 C         -24.8797   -9.3899  -13.1324 C.3     1  UNL1        0.0033
     22 H         -23.5089   -8.8028  -10.5309 H       1  UNL1        0.2114
     23 H         -25.6396   -5.2910  -20.3406 H       1  UNL1        0.2922
     24 C         -20.2293   -9.6005  -11.2766 C.1     1  UNL1       -0.0119
     25 C         -21.3896   -9.8210  -11.5191 C.1     1  UNL1       -0.0526
@<TRIPOS>BOND
     1    24    25    3
     2     1    25    1
     3     1     2    1
     4     1     3    1
     5     3     4    1
     6     4     5    1
     7     4     6    1
     8     6     7    1
     9     7     8    1
    10     8     9    1
    11     9    10    1
    12    10    11   ar
    13    11    12   ar
    14    12    13    1
    15    12    14   ar
    16    14    15   ar
    17    15    16   ar
    18    16    17    1
    19    17    18    1
    20    18    19    1
    21    19    20    1
    22    20    21    1
    23    20     1    1
    24    20     6    1
    25    17     7    1
    26    16    10   ar
    27     2    22    1
    28    13    23    1
@<TRIPOS>MOLECULE
*****
 25 28 0 0 0
SMALL
GASTEIGER

@<TRIPOS>ATOM
      1 C         -23.7407   -8.4733  -14.2866 C.3     1  UNL1        0.1427
      2 O         -23.6422   -7.2058  -14.8905 O.3     1  UNL1       -0.3752
      3 C         -23.6461   -9.5835  -15.3671 C.3     1  UNL1        0.0499
      4 C         -22.8656  -10.7649  -14.7433 C.3     1  UNL1        0.0562
      5 I         -23.9937  -12.5924  -14.8915 I       1  UNL1       -0.0752
      6 C         -22.6367  -10.3379  -13.2932 C.3     1  UNL1        0.0132
      7 C         -21.4662  -10.9070  -12.4805 C.3     1  UNL1        0.0052
      8 C         -21.2720  -12.4288  -12.5273 C.3     1  UNL1        0.0050
      9 C         -20.0810  -12.8746  -11.6279 C.3     1  UNL1        0.0261
     10 C         -19.5771  -11.8414  -10.6171 C.ar    1  UNL1       -0.0231
     11 C         -18.3452  -12.0680   -9.9846 C.ar    1  UNL1        0.0320
     12 C         -17.8102  -11.1224   -9.1070 C.ar    1  UNL1        0.1333
     13 O         -16.5831  -11.3696   -8.4956 O.3     1  UNL1       -0.5055
     14 C         -18.5042   -9.9342   -8.8565 C.ar    1  UNL1        0.0363
     15 C         -19.7385   -9.6947   -9.4646 C.ar    1  UNL1       -0.0015
     16 C         -20.3009  -10.6520  -10.3310 C.ar    1  UNL1       -0.0263
     17 C         -21.6533  -10.5044  -10.9940 C.3     1  UNL1        0.0221
     18 C         -22.5221   -9.2169  -10.7474 C.3     1  UNL1        0.0045
     19 C         -22.5836   -8.1805  -11.8963 C.3     1  UNL1        0.0036
     20 C         -22.5400   -8.7920  -13.3419 C.3     1  UNL1        0.0341
     21 C         -21.2167   -8.2853  -14.0190 C.3     1  UNL1        0.0033
     22 H         -23.6430   -6.5292  -14.1628 H       1  UNL1        0.2114
     23 H         -16.1661  -10.7033   -7.8561 H       1  UNL1        0.2922
     24 C         -26.1165   -8.6636  -13.0372 C.1     1  UNL1       -0.0119
     25 C         -25.0513   -8.5786  -13.5955 C.1     1  UNL1       -0.0526
@<TRIPOS>BOND
     1    24    25    3
     2     1    25    1
     3     1     2    1
     4     1     3    1
     5     3     4    1
     6     4     5    1
     7     4     6    1
     8     6     7    1
     9     7     8    1
    10     8     9    1
    11     9    10    1
    12    10    11   ar
    13    11    12   ar
    14    12    13    1
    15    12    14   ar
    16    14    15   ar
    17    15    16   ar
    18    16    17    1
    19    17    18    1
    20    18    19    1
    21    19    20    1
    22    20    21    1
    23    20     1    1
    24    20     6    1
    25    17     7    1
    26    16    10   ar
    27     2    22    1
    28    13    23    1
