@<TRIPOS>MOLECULE
*****
 36 41 0 0 0
SMALL
GASTEIGER

@<TRIPOS>ATOM
      1 C         -22.8062   -9.6494  -11.4553 C.ar    1  UNL1        0.1100
      2 N         -23.0633   -9.9063  -10.1483 N.ar    1  UNL1       -0.1677
      3 N         -23.0878   -8.7513   -9.4964 N.ar    1  UNL1       -0.2319
      4 C         -23.2513   -8.6261   -8.0543 C.3     1  UNL1        0.1554
      5 C         -22.8296   -7.7659  -10.3684 C.ar    1  UNL1        0.1654
      6 N         -22.7031   -6.4472  -10.0871 N.ar    1  UNL1       -0.2050
      7 C         -22.4180   -5.5946  -11.1125 C.ar    1  UNL1        0.2014
      8 N         -22.2849   -6.0668  -12.3904 N.ar    1  UNL1       -0.2089
      9 C         -22.4169   -7.3945  -12.6893 C.ar    1  UNL1        0.1379
     10 C         -22.6681   -8.2722  -11.6252 C.ar    1  UNL1        0.0865
     11 C         -21.5814  -11.6490  -12.5424 C.ar    1  UNL1        0.0814
     12 C         -22.6149  -10.7257  -12.4387 C.ar    1  UNL1        0.0617
     13 C         -23.5008  -11.0772  -13.4380 C.ar    1  UNL1        0.1256
     14 S         -25.0423  -10.2562  -13.8246 S.3     1  UNL1       -0.1210
     15 N         -23.0309  -12.1376  -14.1171 N.ar    1  UNL1       -0.1631
     16 N         -21.8774  -12.4867  -13.5682 N.ar    1  UNL1       -0.2483
     17 C         -21.1150  -13.6450  -14.0243 C.3     1  UNL1        0.1537
     18 H         -25.7616  -11.0791  -12.9381 H       1  UNL1        0.1086
     19 C         -17.0586  -12.2053   -8.9512 C.3     1  UNL1        0.0310
     20 C         -18.2515  -12.0711   -9.8502 C.ar    1  UNL1       -0.0218
     21 C         -18.8731  -10.8258  -10.0187 C.ar    1  UNL1       -0.0042
     22 C         -19.9593  -10.6915  -10.8875 C.ar    1  UNL1        0.0012
     23 C         -20.4286  -11.7957  -11.6192 C.ar    1  UNL1        0.0174
     24 C         -19.7921  -13.0376  -11.4591 C.ar    1  UNL1        0.0012
     25 C         -18.7104  -13.1734  -10.5845 C.ar    1  UNL1       -0.0042
     26 N         -22.3350   -7.8228  -14.0549 N.pl3   1  UNL1       -0.2917
     27 C         -21.0598   -8.1444  -14.6824 C.3     1  UNL1        0.0937
     28 C         -21.3389   -8.2680  -16.1808 C.3     1  UNL1        0.0391
     29 C         -22.8726   -8.2194  -16.3064 C.3     1  UNL1        0.0790
     30 C         -23.3577   -7.5215  -15.0419 C.3     1  UNL1        0.1081
     31 N         -23.4206   -7.6178  -17.5520 N.3     1  UNL1       -0.2723
     32 C         -24.3236   -6.4866  -17.2568 C.3     1  UNL1        0.0721
     33 C         -24.6237   -5.7042  -18.5422 C.3     1  UNL1        0.0174
     34 C         -25.2037   -6.6235  -19.6230 C.3     1  UNL1        0.0029
     35 C         -24.3126   -7.8531  -19.8313 C.3     1  UNL1        0.0174
     36 C         -24.0687   -8.5584  -18.4948 C.3     1  UNL1        0.0721
@<TRIPOS>BOND
     1    19    20    1
     2    20    21   ar
     3    21    22   ar
     4    22    23   ar
     5    23    11    1
     6    11    12   ar
     7    12     1    1
     8     1     2   ar
     9     2     3   ar
    10     3     4    1
    11     3     5   ar
    12     5     6   ar
    13     6     7   ar
    14     7     8   ar
    15     8     9   ar
    16     9    26    1
    17    26    27    1
    18    27    28    1
    19    28    29    1
    20    29    31    1
    21    31    32    1
    22    32    33    1
    23    33    34    1
    24    34    35    1
    25    35    36    1
    26    29    30    1
    27     9    10   ar
    28    12    13   ar
    29    13    14    1
    30    13    15   ar
    31    15    16   ar
    32    16    17    1
    33    23    24   ar
    34    24    25   ar
    35    25    20   ar
    36    16    11   ar
    37    10     1   ar
    38    10     5   ar
    39    30    26    1
    40    36    31    1
    41    14    18    1
@<TRIPOS>MOLECULE
*****
 36 41 0 0 0
SMALL
GASTEIGER

@<TRIPOS>ATOM
      1 C         -23.6197   -9.7604  -13.9320 C.ar    1  UNL1        0.1100
      2 N         -24.1754  -10.5152  -14.9128 N.ar    1  UNL1       -0.1677
      3 N         -23.4993  -10.3005  -16.0336 N.ar    1  UNL1       -0.2319
      4 C         -23.8524  -10.8702  -17.3270 C.3     1  UNL1        0.1554
      5 C         -22.5343   -9.4040  -15.7824 C.ar    1  UNL1        0.1654
      6 N         -21.6685   -8.8727  -16.6781 N.ar    1  UNL1       -0.2050
      7 C         -20.7642   -7.9542  -16.2327 C.ar    1  UNL1        0.2014
      8 N         -20.7284   -7.6009  -14.9108 N.ar    1  UNL1       -0.2089
      9 C         -21.5920   -8.1346  -13.9948 C.ar    1  UNL1        0.1379
     10 C         -22.5472   -9.0466  -14.4656 C.ar    1  UNL1        0.0865
     11 C         -25.1963   -8.8601  -12.0924 C.ar    1  UNL1        0.0814
     12 C         -24.1950   -9.6911  -12.5806 C.ar    1  UNL1        0.0617
     13 C         -23.8835  -10.5233  -11.5235 C.ar    1  UNL1        0.1256
     14 S         -22.6511  -11.8198  -11.5231 S.3     1  UNL1       -0.1210
     15 N         -24.6357  -10.2104  -10.4546 N.ar    1  UNL1       -0.1631
     16 N         -25.4341   -9.2131  -10.8037 N.ar    1  UNL1       -0.2483
     17 C         -26.4323   -8.6578   -9.8949 C.3     1  UNL1        0.1537
     18 H         -23.5843  -12.7768  -11.9630 H       1  UNL1        0.1086
     19 C         -28.2374   -4.9724  -15.1418 C.3     1  UNL1        0.0310
     20 C         -27.4632   -5.9601  -14.3206 C.ar    1  UNL1       -0.0218
     21 C         -28.0424   -7.1834  -13.9551 C.ar    1  UNL1       -0.0042
     22 C         -27.3077   -8.1213  -13.2249 C.ar    1  UNL1        0.0012
     23 C         -25.9741   -7.8609  -12.8665 C.ar    1  UNL1        0.0174
     24 C         -25.3932   -6.6406  -13.2491 C.ar    1  UNL1        0.0012
     25 C         -26.1304   -5.6995  -13.9732 C.ar    1  UNL1       -0.0042
     26 N         -21.4638   -7.7788  -12.6121 N.pl3   1  UNL1       -0.2917
     27 C         -21.4739   -6.3892  -12.1739 C.3     1  UNL1        0.0937
     28 C         -21.0272   -6.3981  -10.7114 C.3     1  UNL1        0.0391
     29 C         -20.9919   -7.8851  -10.3139 C.3     1  UNL1        0.0790
     30 C         -20.8477   -8.6484  -11.6247 C.3     1  UNL1        0.1081
     31 N         -19.9819   -8.2789   -9.2948 N.3     1  UNL1       -0.2723
     32 C         -19.5852   -9.6942   -9.4424 C.3     1  UNL1        0.0721
     33 C         -18.3396   -9.9823   -8.5938 C.3     1  UNL1        0.0174
     34 C         -18.5767   -9.6117   -7.1255 C.3     1  UNL1        0.0029
     35 C         -19.1018   -8.1770   -7.0011 C.3     1  UNL1        0.0174
     36 C         -20.3367   -7.9903   -7.8861 C.3     1  UNL1        0.0721
@<TRIPOS>BOND
     1    19    20    1
     2    20    21   ar
     3    21    22   ar
     4    22    23   ar
     5    23    11    1
     6    11    12   ar
     7    12     1    1
     8     1     2   ar
     9     2     3   ar
    10     3     4    1
    11     3     5   ar
    12     5     6   ar
    13     6     7   ar
    14     7     8   ar
    15     8     9   ar
    16     9    26    1
    17    26    27    1
    18    27    28    1
    19    28    29    1
    20    29    31    1
    21    31    32    1
    22    32    33    1
    23    33    34    1
    24    34    35    1
    25    35    36    1
    26    29    30    1
    27     9    10   ar
    28    12    13   ar
    29    13    14    1
    30    13    15   ar
    31    15    16   ar
    32    16    17    1
    33    23    24   ar
    34    24    25   ar
    35    25    20   ar
    36    16    11   ar
    37    10     1   ar
    38    10     5   ar
    39    30    26    1
    40    36    31    1
    41    14    18    1
@<TRIPOS>MOLECULE
*****
 36 41 0 0 0
SMALL
GASTEIGER

@<TRIPOS>ATOM
      1 C         -25.9674   -6.4175  -14.2348 C.ar    1  UNL1        0.1100
      2 N         -26.7357   -5.3357  -14.5175 N.ar    1  UNL1       -0.1677
      3 N         -26.3207   -4.8226  -15.6682 N.ar    1  UNL1       -0.2319
      4 C         -26.8478   -3.6000  -16.2593 C.3     1  UNL1        0.1554
      5 C         -25.2859   -5.5521  -16.1098 C.ar    1  UNL1        0.1654
      6 N         -24.5428   -5.3172  -17.2174 N.ar    1  UNL1       -0.2050
      7 C         -23.5116   -6.1661  -17.4930 C.ar    1  UNL1        0.2014
      8 N         -23.2560   -7.2345  -16.6764 N.ar    1  UNL1       -0.2089
      9 C         -24.0026   -7.4872  -15.5591 C.ar    1  UNL1        0.1379
     10 C         -25.0346   -6.5875  -15.2573 C.ar    1  UNL1        0.0865
     11 C         -25.2403   -7.2126  -11.8854 C.ar    1  UNL1        0.0814
     12 C         -26.1027   -7.1621  -12.9741 C.ar    1  UNL1        0.0617
     13 C         -27.1913   -7.9223  -12.5947 C.ar    1  UNL1        0.1256
     14 S         -28.6497   -8.2493  -13.5775 S.3     1  UNL1       -0.1210
     15 N         -26.9990   -8.4170  -11.3599 N.ar    1  UNL1       -0.1631
     16 N         -25.8253   -7.9790  -10.9304 N.ar    1  UNL1       -0.2483
     17 C         -25.3218   -8.2796   -9.5936 C.3     1  UNL1        0.1537
     18 H         -29.3063   -7.1111  -13.0740 H       1  UNL1        0.1086
     19 C         -20.2917   -4.2455  -11.2772 C.3     1  UNL1        0.0310
     20 C         -21.5725   -5.0168  -11.3958 C.ar    1  UNL1       -0.0218
     21 C         -22.8024   -4.3446  -11.4243 C.ar    1  UNL1       -0.0042
     22 C         -23.9935   -5.0594  -11.5757 C.ar    1  UNL1        0.0012
     23 C         -23.9734   -6.4569  -11.7230 C.ar    1  UNL1        0.0174
     24 C         -22.7374   -7.1241  -11.7101 C.ar    1  UNL1        0.0012
     25 C         -21.5466   -6.4097  -11.5513 C.ar    1  UNL1       -0.0042
     26 N         -23.7323   -8.6591  -14.7790 N.pl3   1  UNL1       -0.2917
     27 C         -22.3981   -8.9517  -14.2718 C.3     1  UNL1        0.0937
     28 C         -22.4413  -10.3912  -13.7578 C.3     1  UNL1        0.0391
     29 C         -23.9282  -10.7877  -13.8063 C.3     1  UNL1        0.0790
     30 C         -24.5610   -9.8515  -14.8283 C.3     1  UNL1        0.1081
     31 N         -24.2275  -12.2221  -14.0647 N.3     1  UNL1       -0.2723
     32 C         -23.2913  -12.8032  -15.0487 C.3     1  UNL1        0.0721
     33 C         -23.4254  -14.3317  -15.0629 C.3     1  UNL1        0.0174
     34 C         -24.8723  -14.7543  -15.3410 C.3     1  UNL1        0.0029
     35 C         -25.8416  -14.0490  -14.3859 C.3     1  UNL1        0.0174
     36 C         -25.6255  -12.5346  -14.4408 C.3     1  UNL1        0.0721
@<TRIPOS>BOND
     1    19    20    1
     2    20    21   ar
     3    21    22   ar
     4    22    23   ar
     5    23    11    1
     6    11    12   ar
     7    12     1    1
     8     1     2   ar
     9     2     3   ar
    10     3     4    1
    11     3     5   ar
    12     5     6   ar
    13     6     7   ar
    14     7     8   ar
    15     8     9   ar
    16     9    26    1
    17    26    27    1
    18    27    28    1
    19    28    29    1
    20    29    31    1
    21    31    32    1
    22    32    33    1
    23    33    34    1
    24    34    35    1
    25    35    36    1
    26    29    30    1
    27     9    10   ar
    28    12    13   ar
    29    13    14    1
    30    13    15   ar
    31    15    16   ar
    32    16    17    1
    33    23    24   ar
    34    24    25   ar
    35    25    20   ar
    36    16    11   ar
    37    10     1   ar
    38    10     5   ar
    39    30    26    1
    40    36    31    1
    41    14    18    1
@<TRIPOS>MOLECULE
*****
 36 41 0 0 0
SMALL
GASTEIGER

@<TRIPOS>ATOM
      1 C         -22.4404  -12.0750  -14.3736 C.ar    1  UNL1        0.1100
      2 N         -21.7417  -12.9487  -15.1410 N.ar    1  UNL1       -0.1677
      3 N         -22.5376  -13.9676  -15.4376 N.ar    1  UNL1       -0.2319
      4 C         -22.1165  -15.1498  -16.1772 C.3     1  UNL1        0.1554
      5 C         -23.7262  -13.7624  -14.8519 C.ar    1  UNL1        0.1654
      6 N         -24.7894  -14.6012  -14.8602 N.ar    1  UNL1       -0.2050
      7 C         -25.9132  -14.2232  -14.1864 C.ar    1  UNL1        0.2014
      8 N         -25.9612  -13.0180  -13.5393 N.ar    1  UNL1       -0.2089
      9 C         -24.8976  -12.1587  -13.5287 C.ar    1  UNL1        0.1379
     10 C         -23.7304  -12.5707  -14.1872 C.ar    1  UNL1        0.0865
     11 C         -21.7751   -9.5792  -14.2820 C.ar    1  UNL1        0.0814
     12 C         -21.8170  -10.8782  -13.7898 C.ar    1  UNL1        0.0617
     13 C         -21.1951  -10.8070  -12.5589 C.ar    1  UNL1        0.1256
     14 S         -20.9266  -12.1660  -11.4271 S.3     1  UNL1       -0.1210
     15 N         -20.7869   -9.5486  -12.3218 N.ar    1  UNL1       -0.1631
     16 N         -21.1471   -8.8078  -13.3588 N.ar    1  UNL1       -0.2483
     17 C         -20.9108   -7.3682  -13.4091 C.3     1  UNL1        0.1537
     18 H         -22.1583  -11.9411  -10.7849 H       1  UNL1        0.1086
     19 C         -24.3213   -7.6242  -19.1149 C.3     1  UNL1        0.0310
     20 C         -23.6283   -8.1229  -17.8819 C.ar    1  UNL1       -0.0218
     21 C         -23.3583   -7.2483  -16.8200 C.ar    1  UNL1       -0.0042
     22 C         -22.7495   -7.7208  -15.6544 C.ar    1  UNL1        0.0012
     23 C         -22.4200   -9.0806  -15.5222 C.ar    1  UNL1        0.0174
     24 C         -22.7075   -9.9559  -16.5825 C.ar    1  UNL1        0.0012
     25 C         -23.3097   -9.4817  -17.7511 C.ar    1  UNL1       -0.0042
     26 N         -25.0283  -10.8806  -12.8927 N.pl3   1  UNL1       -0.2917
     27 C         -25.3496   -9.6772  -13.6488 C.3     1  UNL1        0.0937
     28 C         -25.1153   -8.5004  -12.7008 C.3     1  UNL1        0.0391
     29 C         -24.8673   -9.1412  -11.3230 C.3     1  UNL1        0.0790
     30 C         -24.4077  -10.5636  -11.6179 C.3     1  UNL1        0.1081
     31 N         -23.9536   -8.4112  -10.4032 N.3     1  UNL1       -0.2723
     32 C         -23.2679   -7.2976  -11.0902 C.3     1  UNL1        0.0721
     33 C         -22.5819   -6.3883  -10.0620 C.3     1  UNL1        0.0174
     34 C         -21.6173   -7.1872   -9.1783 C.3     1  UNL1        0.0029
     35 C         -22.3168   -8.4070   -8.5683 C.3     1  UNL1        0.0174
     36 C         -22.9718   -9.2434   -9.6703 C.3     1  UNL1        0.0721
@<TRIPOS>BOND
     1    19    20    1
     2    20    21   ar
     3    21    22   ar
     4    22    23   ar
     5    23    11    1
     6    11    12   ar
     7    12     1    1
     8     1     2   ar
     9     2     3   ar
    10     3     4    1
    11     3     5   ar
    12     5     6   ar
    13     6     7   ar
    14     7     8   ar
    15     8     9   ar
    16     9    26    1
    17    26    27    1
    18    27    28    1
    19    28    29    1
    20    29    31    1
    21    31    32    1
    22    32    33    1
    23    33    34    1
    24    34    35    1
    25    35    36    1
    26    29    30    1
    27     9    10   ar
    28    12    13   ar
    29    13    14    1
    30    13    15   ar
    31    15    16   ar
    32    16    17    1
    33    23    24   ar
    34    24    25   ar
    35    25    20   ar
    36    16    11   ar
    37    10     1   ar
    38    10     5   ar
    39    30    26    1
    40    36    31    1
    41    14    18    1
@<TRIPOS>MOLECULE
*****
 36 41 0 0 0
SMALL
GASTEIGER

@<TRIPOS>ATOM
      1 C         -21.8976  -11.7660  -13.9022 C.ar    1  UNL1        0.1100
      2 N         -21.1027  -12.4932  -14.7266 N.ar    1  UNL1       -0.1677
      3 N         -21.8036  -13.5279  -15.1710 N.ar    1  UNL1       -0.2319
      4 C         -21.2621  -14.5845  -16.0150 C.3     1  UNL1        0.1554
      5 C         -23.0268  -13.4787  -14.6237 C.ar    1  UNL1        0.1654
      6 N         -24.0195  -14.3874  -14.7749 N.ar    1  UNL1       -0.2050
      7 C         -25.1952  -14.1720  -14.1182 C.ar    1  UNL1        0.2014
      8 N         -25.3632  -13.0546  -13.3457 N.ar    1  UNL1       -0.2089
      9 C         -24.3718  -12.1259  -13.1900 C.ar    1  UNL1        0.1379
     10 C         -23.1509  -12.3734  -13.8332 C.ar    1  UNL1        0.0865
     11 C         -21.4384   -9.2539  -13.5035 C.ar    1  UNL1        0.0814
     12 C         -21.3936  -10.6001  -13.1613 C.ar    1  UNL1        0.0617
     13 C         -20.8244  -10.6235  -11.9034 C.ar    1  UNL1        0.1256
     14 S         -20.4887  -12.0789  -10.9190 S.3     1  UNL1       -0.1210
     15 N         -20.5273   -9.3733  -11.5096 N.ar    1  UNL1       -0.1631
     16 N         -20.9080   -8.5480  -12.4729 N.ar    1  UNL1       -0.2483
     17 C         -20.7863   -7.0984  -12.3519 C.3     1  UNL1        0.1537
     18 H         -21.7570  -12.0228  -10.3118 H       1  UNL1        0.1086
     19 C         -23.9560   -6.9738  -18.2071 C.3     1  UNL1        0.0310
     20 C         -23.2800   -7.5335  -16.9910 C.ar    1  UNL1       -0.0218
     21 C         -23.7523   -7.2147  -15.7100 C.ar    1  UNL1       -0.0042
     22 C         -23.1485   -7.7681  -14.5778 C.ar    1  UNL1        0.0012
     23 C         -22.0760   -8.6668  -14.7082 C.ar    1  UNL1        0.0174
     24 C         -21.6170   -8.9956  -15.9944 C.ar    1  UNL1        0.0012
     25 C         -22.2163   -8.4363  -17.1264 C.ar    1  UNL1       -0.0042
     26 N         -24.6275  -10.9412  -12.4244 N.pl3   1  UNL1       -0.2917
     27 C         -24.9994  -11.0033  -11.0169 C.3     1  UNL1        0.0937
     28 C         -25.4671   -9.5983  -10.6351 C.3     1  UNL1        0.0391
     29 C         -25.1163   -8.7176  -11.8482 C.3     1  UNL1        0.0790
     30 C         -25.0167   -9.6778  -13.0270 C.3     1  UNL1        0.1081
     31 N         -26.0124   -7.5596  -12.1125 N.3     1  UNL1       -0.2723
     32 C         -26.8030   -7.7554  -13.3450 C.3     1  UNL1        0.0721
     33 C         -27.9213   -6.7076  -13.4242 C.3     1  UNL1        0.0174
     34 C         -27.3514   -5.2874  -13.3376 C.3     1  UNL1        0.0029
     35 C         -26.4378   -5.1378  -12.1160 C.3     1  UNL1        0.0174
     36 C         -25.3637   -6.2283  -12.1259 C.3     1  UNL1        0.0721
@<TRIPOS>BOND
     1    19    20    1
     2    20    21   ar
     3    21    22   ar
     4    22    23   ar
     5    23    11    1
     6    11    12   ar
     7    12     1    1
     8     1     2   ar
     9     2     3   ar
    10     3     4    1
    11     3     5   ar
    12     5     6   ar
    13     6     7   ar
    14     7     8   ar
    15     8     9   ar
    16     9    26    1
    17    26    27    1
    18    27    28    1
    19    28    29    1
    20    29    31    1
    21    31    32    1
    22    32    33    1
    23    33    34    1
    24    34    35    1
    25    35    36    1
    26    29    30    1
    27     9    10   ar
    28    12    13   ar
    29    13    14    1
    30    13    15   ar
    31    15    16   ar
    32    16    17    1
    33    23    24   ar
    34    24    25   ar
    35    25    20   ar
    36    16    11   ar
    37    10     1   ar
    38    10     5   ar
    39    30    26    1
    40    36    31    1
    41    14    18    1
@<TRIPOS>MOLECULE
*****
 36 41 0 0 0
SMALL
GASTEIGER

@<TRIPOS>ATOM
      1 C         -25.0548   -8.7762  -12.1491 C.ar    1  UNL1        0.1100
      2 N         -26.3244   -9.1835  -12.3993 N.ar    1  UNL1       -0.1677
      3 N         -27.0672   -8.1080  -12.6258 N.ar    1  UNL1       -0.2319
      4 C         -28.5065   -8.1366  -12.8482 C.3     1  UNL1        0.1554
      5 C         -26.2905   -7.0219  -12.5028 C.ar    1  UNL1        0.1654
      6 N         -26.6839   -5.7294  -12.5957 N.ar    1  UNL1       -0.2050
      7 C         -25.7448   -4.7562  -12.4207 C.ar    1  UNL1        0.2014
      8 N         -24.4393   -5.0882  -12.1778 N.ar    1  UNL1       -0.2089
      9 C         -24.0272   -6.3889  -12.0883 C.ar    1  UNL1        0.1379
     10 C         -25.0043   -7.3848  -12.2270 C.ar    1  UNL1        0.0865
     11 C         -23.2327  -10.5626  -12.5598 C.ar    1  UNL1        0.0814
     12 C         -23.9954   -9.7191  -11.7610 C.ar    1  UNL1        0.0617
     13 C         -23.4931   -9.8939  -10.4866 C.ar    1  UNL1        0.1256
     14 S         -24.0678   -9.0813   -9.0003 S.3     1  UNL1       -0.1210
     15 N         -22.4978  -10.7970  -10.5044 N.ar    1  UNL1       -0.1631
     16 N         -22.3362  -11.1914  -11.7582 N.ar    1  UNL1       -0.2483
     17 C         -21.2927  -12.1334  -12.1516 C.3     1  UNL1        0.1537
     18 H         -23.1692   -8.0127   -9.1762 H       1  UNL1        0.1086
     19 C         -23.4114  -10.9858  -18.3435 C.3     1  UNL1        0.0310
     20 C         -23.3868  -10.8441  -16.8506 C.ar    1  UNL1       -0.0218
     21 C         -24.3471  -11.4941  -16.0629 C.ar    1  UNL1       -0.0042
     22 C         -24.3006  -11.3958  -14.6698 C.ar    1  UNL1        0.0012
     23 C         -23.2800  -10.6634  -14.0397 C.ar    1  UNL1        0.0174
     24 C         -22.3107  -10.0274  -14.8328 C.ar    1  UNL1        0.0012
     25 C         -22.3617  -10.1198  -16.2265 C.ar    1  UNL1       -0.0042
     26 N         -22.6357   -6.6778  -11.9003 N.pl3   1  UNL1       -0.2917
     27 C         -21.8392   -7.3205  -12.9374 C.3     1  UNL1        0.0937
     28 C         -20.5195   -7.7215  -12.2771 C.3     1  UNL1        0.0391
     29 C         -20.5524   -7.0614  -10.8865 C.3     1  UNL1        0.0790
     30 C         -22.0276   -6.8238  -10.5889 C.3     1  UNL1        0.1081
     31 N         -19.8440   -7.7779   -9.7918 N.3     1  UNL1       -0.2723
     32 C         -19.6231   -9.1995  -10.1274 C.3     1  UNL1        0.0721
     33 C         -18.6363   -9.8271   -9.1340 C.3     1  UNL1        0.0174
     34 C         -19.1246   -9.6560   -7.6912 C.3     1  UNL1        0.0029
     35 C         -19.4621   -8.1899   -7.3979 C.3     1  UNL1        0.0174
     36 C         -20.4449   -7.6571   -8.4435 C.3     1  UNL1        0.0721
@<TRIPOS>BOND
     1    19    20    1
     2    20    21   ar
     3    21    22   ar
     4    22    23   ar
     5    23    11    1
     6    11    12   ar
     7    12     1    1
     8     1     2   ar
     9     2     3   ar
    10     3     4    1
    11     3     5   ar
    12     5     6   ar
    13     6     7   ar
    14     7     8   ar
    15     8     9   ar
    16     9    26    1
    17    26    27    1
    18    27    28    1
    19    28    29    1
    20    29    31    1
    21    31    32    1
    22    32    33    1
    23    33    34    1
    24    34    35    1
    25    35    36    1
    26    29    30    1
    27     9    10   ar
    28    12    13   ar
    29    13    14    1
    30    13    15   ar
    31    15    16   ar
    32    16    17    1
    33    23    24   ar
    34    24    25   ar
    35    25    20   ar
    36    16    11   ar
    37    10     1   ar
    38    10     5   ar
    39    30    26    1
    40    36    31    1
    41    14    18    1
@<TRIPOS>MOLECULE
*****
 36 41 0 0 0
SMALL
GASTEIGER

@<TRIPOS>ATOM
      1 C         -24.9151   -6.5806  -14.5965 C.ar    1  UNL1        0.1100
      2 N         -25.1364   -5.3386  -15.0953 N.ar    1  UNL1       -0.1677
      3 N         -26.4269   -5.0626  -14.9615 N.ar    1  UNL1       -0.2319
      4 C         -27.0631   -3.8508  -15.4602 C.3     1  UNL1        0.1554
      5 C         -27.0318   -6.1210  -14.4027 C.ar    1  UNL1        0.1654
      6 N         -28.3562   -6.2613  -14.1573 N.ar    1  UNL1       -0.2050
      7 C         -28.7871   -7.4274  -13.5965 C.ar    1  UNL1        0.2014
      8 N         -27.8943   -8.4143  -13.2764 N.ar    1  UNL1       -0.2089
      9 C         -26.5539   -8.2829  -13.5124 C.ar    1  UNL1        0.1379
     10 C         -26.1215   -7.0996  -14.1277 C.ar    1  UNL1        0.0865
     11 C         -22.9800   -7.8251  -15.7743 C.ar    1  UNL1        0.0814
     12 C         -23.5995   -7.2319  -14.6807 C.ar    1  UNL1        0.0617
     13 C         -22.6687   -7.3128  -13.6639 C.ar    1  UNL1        0.1256
     14 S         -22.8764   -6.7234  -11.9878 S.3     1  UNL1       -0.1210
     15 N         -21.5584   -7.9290  -14.1045 N.ar    1  UNL1       -0.1631
     16 N         -21.7452   -8.2280  -15.3810 N.ar    1  UNL1       -0.2483
     17 C         -20.7094   -8.8572  -16.1947 C.3     1  UNL1        0.1537
     18 H         -22.3636   -5.4548  -12.3164 H       1  UNL1        0.1086
     19 C         -24.9924   -8.0718  -21.2103 C.3     1  UNL1        0.0310
     20 C         -24.5081   -8.0160  -19.7921 C.ar    1  UNL1       -0.0218
     21 C         -23.9746   -9.1598  -19.1817 C.ar    1  UNL1       -0.0042
     22 C         -23.4856   -9.0984  -17.8741 C.ar    1  UNL1        0.0012
     23 C         -23.5018   -7.8869  -17.1622 C.ar    1  UNL1        0.0174
     24 C         -24.0225   -6.7400  -17.7840 C.ar    1  UNL1        0.0012
     25 C         -24.5183   -6.8032  -19.0892 C.ar    1  UNL1       -0.0042
     26 N         -25.6578   -9.3206  -13.0940 N.pl3   1  UNL1       -0.2917
     27 C         -24.9110   -9.2316  -11.8460 C.3     1  UNL1        0.0937
     28 C         -23.8698  -10.3508  -11.8892 C.3     1  UNL1        0.0391
     29 C         -24.2393  -11.1920  -13.1247 C.3     1  UNL1        0.0790
     30 C         -25.0471  -10.2598  -14.0190 C.3     1  UNL1        0.1081
     31 N         -23.1159  -11.8574  -13.8382 N.3     1  UNL1       -0.2723
     32 C         -23.6061  -12.8521  -14.8142 C.3     1  UNL1        0.0721
     33 C         -22.4617  -13.2909  -15.7375 C.3     1  UNL1        0.0174
     34 C         -21.2773  -13.8297  -14.9273 C.3     1  UNL1        0.0029
     35 C         -20.8588  -12.8329  -13.8408 C.3     1  UNL1        0.0174
     36 C         -22.0670  -12.4550  -12.9802 C.3     1  UNL1        0.0721
@<TRIPOS>BOND
     1    19    20    1
     2    20    21   ar
     3    21    22   ar
     4    22    23   ar
     5    23    11    1
     6    11    12   ar
     7    12     1    1
     8     1     2   ar
     9     2     3   ar
    10     3     4    1
    11     3     5   ar
    12     5     6   ar
    13     6     7   ar
    14     7     8   ar
    15     8     9   ar
    16     9    26    1
    17    26    27    1
    18    27    28    1
    19    28    29    1
    20    29    31    1
    21    31    32    1
    22    32    33    1
    23    33    34    1
    24    34    35    1
    25    35    36    1
    26    29    30    1
    27     9    10   ar
    28    12    13   ar
    29    13    14    1
    30    13    15   ar
    31    15    16   ar
    32    16    17    1
    33    23    24   ar
    34    24    25   ar
    35    25    20   ar
    36    16    11   ar
    37    10     1   ar
    38    10     5   ar
    39    30    26    1
    40    36    31    1
    41    14    18    1
@<TRIPOS>MOLECULE
*****
 36 41 0 0 0
SMALL
GASTEIGER

@<TRIPOS>ATOM
      1 C         -23.7373   -7.7874  -14.0479 C.ar    1  UNL1        0.1100
      2 N         -24.6358   -7.1374  -14.8294 N.ar    1  UNL1       -0.1677
      3 N         -24.0730   -6.9142  -16.0096 N.ar    1  UNL1       -0.2319
      4 C         -24.6993   -6.1620  -17.0884 C.3     1  UNL1        0.1554
      5 C         -22.8219   -7.3959  -15.9813 C.ar    1  UNL1        0.1654
      6 N         -21.8978   -7.3097  -16.9676 N.ar    1  UNL1       -0.2050
      7 C         -20.6647   -7.8473  -16.7434 C.ar    1  UNL1        0.2014
      8 N         -20.3858   -8.4720  -15.5578 N.ar    1  UNL1       -0.2089
      9 C         -21.3116   -8.5721  -14.5565 C.ar    1  UNL1        0.1379
     10 C         -22.5637   -7.9808  -14.7758 C.ar    1  UNL1        0.0865
     11 C         -24.5125   -9.2677  -12.0761 C.ar    1  UNL1        0.0814
     12 C         -24.0119   -8.0990  -12.6374 C.ar    1  UNL1        0.0617
     13 C         -23.7433   -7.2791  -11.5592 C.ar    1  UNL1        0.1256
     14 S         -23.0812   -5.6189  -11.6295 S.3     1  UNL1       -0.1210
     15 N         -24.0728   -7.9017  -10.4146 N.ar    1  UNL1       -0.1631
     16 N         -24.5272   -9.1053  -10.7288 N.ar    1  UNL1       -0.2483
     17 C         -24.9236  -10.0787   -9.7158 C.3     1  UNL1        0.1537
     18 H         -21.7567   -6.0898  -11.5635 H       1  UNL1        0.1086
     19 C         -25.7669  -14.1897  -14.8799 C.3     1  UNL1        0.0310
     20 C         -25.4792  -12.9164  -14.1416 C.ar    1  UNL1       -0.0218
     21 C         -24.9453  -12.9556  -12.8459 C.ar    1  UNL1       -0.0042
     22 C         -24.6388  -11.7699  -12.1731 C.ar    1  UNL1        0.0012
     23 C         -24.8408  -10.5249  -12.7930 C.ar    1  UNL1        0.0174
     24 C         -25.3607  -10.4914  -14.0975 C.ar    1  UNL1        0.0012
     25 C         -25.6741  -11.6773  -14.7675 C.ar    1  UNL1       -0.0042
     26 N         -20.9861   -9.2969  -13.3633 N.pl3   1  UNL1       -0.2917
     27 C         -21.6098  -10.5756  -13.0488 C.3     1  UNL1        0.0937
     28 C         -21.2430  -10.8855  -11.5970 C.3     1  UNL1        0.0391
     29 C         -20.2017   -9.8187  -11.2120 C.3     1  UNL1        0.0790
     30 C         -20.4333   -8.6637  -12.1782 C.3     1  UNL1        0.1081
     31 N         -20.1801   -9.3922   -9.7868 N.3     1  UNL1       -0.2723
     32 C         -20.6015   -7.9845   -9.6350 C.3     1  UNL1        0.0721
     33 C         -20.8629   -7.6706   -8.1559 C.3     1  UNL1        0.0174
     34 C         -19.6313   -7.9875   -7.3003 C.3     1  UNL1        0.0029
     35 C         -19.1370   -9.4149   -7.5602 C.3     1  UNL1        0.0174
     36 C         -18.9120   -9.6289   -9.0591 C.3     1  UNL1        0.0721
@<TRIPOS>BOND
     1    19    20    1
     2    20    21   ar
     3    21    22   ar
     4    22    23   ar
     5    23    11    1
     6    11    12   ar
     7    12     1    1
     8     1     2   ar
     9     2     3   ar
    10     3     4    1
    11     3     5   ar
    12     5     6   ar
    13     6     7   ar
    14     7     8   ar
    15     8     9   ar
    16     9    26    1
    17    26    27    1
    18    27    28    1
    19    28    29    1
    20    29    31    1
    21    31    32    1
    22    32    33    1
    23    33    34    1
    24    34    35    1
    25    35    36    1
    26    29    30    1
    27     9    10   ar
    28    12    13   ar
    29    13    14    1
    30    13    15   ar
    31    15    16   ar
    32    16    17    1
    33    23    24   ar
    34    24    25   ar
    35    25    20   ar
    36    16    11   ar
    37    10     1   ar
    38    10     5   ar
    39    30    26    1
    40    36    31    1
    41    14    18    1
@<TRIPOS>MOLECULE
*****
 36 41 0 0 0
SMALL
GASTEIGER

@<TRIPOS>ATOM
      1 C         -25.1725   -8.8247  -12.4702 C.ar    1  UNL1        0.1100
      2 N         -26.3503   -8.1576  -12.5611 N.ar    1  UNL1       -0.1677
      3 N         -26.9969   -8.3007  -11.4118 N.ar    1  UNL1       -0.2319
      4 C         -28.3394   -7.7961  -11.1570 C.3     1  UNL1        0.1554
      5 C         -26.2544   -9.0668  -10.5994 C.ar    1  UNL1        0.1654
      6 N         -26.5909   -9.4975   -9.3603 N.ar    1  UNL1       -0.2050
      7 C         -25.7055  -10.2905   -8.6917 C.ar    1  UNL1        0.2014
      8 N         -24.5040  -10.6196   -9.2589 N.ar    1  UNL1       -0.2089
      9 C         -24.1488  -10.1860  -10.5061 C.ar    1  UNL1        0.1379
     10 C         -25.0803   -9.4061  -11.2061 C.ar    1  UNL1        0.0865
     11 C         -23.0825   -8.2517  -13.8787 C.ar    1  UNL1        0.0814
     12 C         -24.2557   -8.9478  -13.6132 C.ar    1  UNL1        0.0617
     13 C         -24.3581   -9.8667  -14.6389 C.ar    1  UNL1        0.1256
     14 S         -25.6704  -11.0612  -14.8644 S.3     1  UNL1       -0.1210
     15 N         -23.3220   -9.7301  -15.4840 N.ar    1  UNL1       -0.1631
     16 N         -22.5485   -8.7617  -15.0174 N.ar    1  UNL1       -0.2483
     17 C         -21.2945   -8.3851  -15.6628 C.3     1  UNL1        0.1537
     18 H         -24.9882  -12.0296  -14.1046 H       1  UNL1        0.1086
     19 C         -20.5788   -4.2481  -10.5077 C.3     1  UNL1        0.0310
     20 C         -21.2346   -5.3037  -11.3472 C.ar    1  UNL1       -0.0218
     21 C         -22.5858   -5.1864  -11.7020 C.ar    1  UNL1       -0.0042
     22 C         -23.1869   -6.1485  -12.5179 C.ar    1  UNL1        0.0012
     23 C         -22.4412   -7.2328  -13.0109 C.ar    1  UNL1        0.0174
     24 C         -21.0836   -7.3371  -12.6659 C.ar    1  UNL1        0.0012
     25 C         -20.4844   -6.3787  -11.8438 C.ar    1  UNL1       -0.0042
     26 N         -22.8499  -10.5053  -11.0218 N.pl3   1  UNL1       -0.2917
     27 C         -22.6649  -11.4973  -12.0729 C.3     1  UNL1        0.0937
     28 C         -21.1620  -11.7700  -12.1448 C.3     1  UNL1        0.0391
     29 C         -20.5198  -10.7085  -11.2330 C.3     1  UNL1        0.0790
     30 C         -21.6243  -10.2800  -10.2749 C.3     1  UNL1        0.1081
     31 N         -19.2632  -11.0986  -10.5384 N.3     1  UNL1       -0.2723
     32 C         -19.1459  -12.5658  -10.4122 C.3     1  UNL1        0.0721
     33 C         -17.7234  -12.9441   -9.9785 C.3     1  UNL1        0.0174
     34 C         -17.3375  -12.2319   -8.6772 C.3     1  UNL1        0.0029
     35 C         -17.5786  -10.7222   -8.7873 C.3     1  UNL1        0.0174
     36 C         -19.0186  -10.4504   -9.2294 C.3     1  UNL1        0.0721
@<TRIPOS>BOND
     1    19    20    1
     2    20    21   ar
     3    21    22   ar
     4    22    23   ar
     5    23    11    1
     6    11    12   ar
     7    12     1    1
     8     1     2   ar
     9     2     3   ar
    10     3     4    1
    11     3     5   ar
    12     5     6   ar
    13     6     7   ar
    14     7     8   ar
    15     8     9   ar
    16     9    26    1
    17    26    27    1
    18    27    28    1
    19    28    29    1
    20    29    31    1
    21    31    32    1
    22    32    33    1
    23    33    34    1
    24    34    35    1
    25    35    36    1
    26    29    30    1
    27     9    10   ar
    28    12    13   ar
    29    13    14    1
    30    13    15   ar
    31    15    16   ar
    32    16    17    1
    33    23    24   ar
    34    24    25   ar
    35    25    20   ar
    36    16    11   ar
    37    10     1   ar
    38    10     5   ar
    39    30    26    1
    40    36    31    1
    41    14    18    1
