@<TRIPOS>MOLECULE
*****
 48 53 0 0 0
SMALL
GASTEIGER

@<TRIPOS>ATOM
      1 C          63.3660   88.9220   14.9705 C.2     1  UNL1        0.2483
      2 O          63.1027   89.5186   16.0485 O.2     1  UNL1       -0.2701
      3 N          64.3936   89.4430   14.1151 N.am    1  UNL1       -0.2945
      4 H          65.2351   89.8509   14.5817 H       1  UNL1        0.1501
      5 C          61.2813   85.3042   13.9752 C.ar    1  UNL1        0.0502
      6 C          60.6059   86.5348   14.0116 C.ar    1  UNL1        0.0148
      7 C          61.2876   87.7075   14.3427 C.ar    1  UNL1        0.0080
      8 C          62.6563   87.6725   14.6435 C.ar    1  UNL1        0.0808
      9 C          63.3447   86.4500   14.5758 C.ar    1  UNL1        0.1457
     10 F          64.6724   86.3877   14.8487 F       1  UNL1       -0.2040
     11 C          62.6590   85.2747   14.2529 C.ar    1  UNL1        0.0443
     12 N          59.3400   81.7982   12.6284 N.pl3   1  UNL1       -0.3017
     13 C          58.4804   82.8115   13.2472 C.3     1  UNL1        0.1123
     14 C          59.1741   84.1744   13.2019 C.3     1  UNL1        0.1122
     15 N          60.5665   84.0887   13.6741 N.pl3   1  UNL1       -0.3040
     16 C          61.1577   82.7830   14.0041 C.3     1  UNL1        0.1122
     17 C          60.7718   81.7366   12.9517 C.3     1  UNL1        0.1123
     18 C          58.3303   79.6484   11.9535 C.ar    1  UNL1        0.1519
     19 C          57.8279   78.8130   10.9358 C.ar    1  UNL1        0.0390
     20 C          57.7948   79.2549    9.6106 C.ar    1  UNL1        0.0146
     21 C          58.2595   80.5310    9.2846 C.ar    1  UNL1        0.0591
     22 CL         58.2136   81.0840    7.6206 Cl      1  UNL1       -0.0822
     23 C          58.7637   81.3658   10.2849 C.ar    1  UNL1        0.0290
     24 C          58.8082   80.9292   11.6172 C.ar    1  UNL1        0.0832
     25 C          59.1796   78.2091   13.8166 C.3     1  UNL1        0.2525
     26 O          58.3555   79.2481   13.2988 O.3     1  UNL1       -0.4702
     27 C          64.1627   89.8244   12.7142 C.3     1  UNL1        0.1535
     28 C          65.2514   90.7425   12.2102 C.2     1  UNL1        0.2443
     29 O          65.8718   91.4894   13.0153 O.2     1  UNL1       -0.2730
     30 N          65.6008   90.7194   10.8152 N.am    1  UNL1       -0.2825
     31 H          65.1505   89.9818   10.2268 H       1  UNL1        0.1549
     32 C          66.6123   91.5367   10.1939 C.ar    1  UNL1        0.0535
     33 C          67.8308   90.9477    9.8254 C.ar    1  UNL1        0.0353
     34 C          68.8120   91.7158    9.1949 C.ar    1  UNL1        0.1002
     35 N          68.5820   93.0272    8.9246 N.ar    1  UNL1       -0.2422
     36 C          67.4067   93.6249    9.2524 C.ar    1  UNL1        0.1002
     37 C          66.3993   92.8936    9.8870 C.ar    1  UNL1        0.0353
     38 C          63.9758   88.5793   11.8194 C.3     1  UNL1        0.0569
     39 C          62.6312   88.5781   11.1461 C.ar    1  UNL1       -0.0017
     40 C          61.8499   89.6953   10.8619 C.ar    1  UNL1        0.0681
     41 N          60.6955   89.3256   10.2629 N.ar    1  UNL1       -0.3523
     42 C          60.7413   87.9862   10.1622 C.ar    1  UNL1        0.0563
     43 C          59.7733   87.1491    9.6089 C.ar    1  UNL1        0.0170
     44 C          60.0270   85.7657    9.6003 C.ar    1  UNL1        0.0015
     45 C          61.2302   85.2560   10.1357 C.ar    1  UNL1        0.0001
     46 C          62.1901   86.1243   10.6861 C.ar    1  UNL1        0.0012
     47 C          61.9088   87.4917   10.6873 C.ar    1  UNL1        0.0131
     48 H          59.9272   89.9567    9.9438 H       1  UNL1        0.1660
@<TRIPOS>BOND
     1    25    26    1
     2    26    18    1
     3    18    19   ar
     4    19    20   ar
     5    20    21   ar
     6    21    22    1
     7    21    23   ar
     8    23    24   ar
     9    24    12    1
    10    12    13    1
    11    13    14    1
    12    14    15    1
    13    15     5    1
    14     5     6   ar
    15     6     7   ar
    16     7     8   ar
    17     8     1    1
    18     1     2    2
    19     1     3   am
    20     3    27    1
    21    27    38    1
    22    38    39    1
    23    39    40   ar
    24    40    41   ar
    25    41    42   ar
    26    42    43   ar
    27    43    44   ar
    28    44    45   ar
    29    45    46   ar
    30    46    47   ar
    31    27    28    1
    32    28    29    2
    33    28    30   am
    34    30    32    1
    35    32    33   ar
    36    33    34   ar
    37    34    35   ar
    38    35    36   ar
    39    36    37   ar
    40     8     9   ar
    41     9    10    1
    42     9    11   ar
    43    15    16    1
    44    16    17    1
    45    24    18   ar
    46    17    12    1
    47    11     5   ar
    48    47    39   ar
    49    37    32   ar
    50    47    42   ar
    51     3     4    1
    52    41    48    1
    53    30    31    1
@<TRIPOS>MOLECULE
*****
 48 53 0 0 0
SMALL
GASTEIGER

@<TRIPOS>ATOM
      1 C          60.0608   82.6063    6.8543 C.2     1  UNL1        0.2483
      2 O          59.4647   82.9030    5.7847 O.2     1  UNL1       -0.2701
      3 N          60.3398   81.2282    7.1409 N.am    1  UNL1       -0.2945
      4 H          60.6079   80.6223    6.3328 H       1  UNL1        0.1501
      5 C          61.3481   85.7185    9.5155 C.ar    1  UNL1        0.0502
      6 C          60.0001   85.3283    9.4666 C.ar    1  UNL1        0.0148
      7 C          59.5858   84.3200    8.5940 C.ar    1  UNL1        0.0080
      8 C          60.5102   83.6831    7.7544 C.ar    1  UNL1        0.0808
      9 C          61.8656   84.0456    7.8230 C.ar    1  UNL1        0.1457
     10 F          62.7851   83.4373    7.0320 F       1  UNL1       -0.2040
     11 C          62.2779   85.0618    8.6907 C.ar    1  UNL1        0.0443
     12 N          63.0092   88.8349   11.8401 N.pl3   1  UNL1       -0.3017
     13 C          62.5165   87.6714   12.5830 C.3     1  UNL1        0.1123
     14 C          62.4423   86.4587   11.6531 C.3     1  UNL1        0.1122
     15 N          61.7664   86.7885   10.3868 N.pl3   1  UNL1       -0.3040
     16 C          61.3647   88.1741   10.1006 C.3     1  UNL1        0.1122
     17 C          62.4743   89.1508   10.5087 C.3     1  UNL1        0.1123
     18 C          64.3480   89.6484   13.7486 C.ar    1  UNL1        0.1519
     19 C          65.4156   90.4303   14.2331 C.ar    1  UNL1        0.0390
     20 C          66.2229   91.1500   13.3483 C.ar    1  UNL1        0.0146
     21 C          65.9775   91.0987   11.9743 C.ar    1  UNL1        0.0591
     22 CL         66.9949   92.0008   10.8661 Cl      1  UNL1       -0.0822
     23 C          64.9191   90.3303   11.4835 C.ar    1  UNL1        0.0290
     24 C          64.0982   89.6098   12.3637 C.ar    1  UNL1        0.0832
     25 C          63.0882   89.3243   15.8868 C.3     1  UNL1        0.2525
     26 O          63.5321   88.8923   14.6051 O.3     1  UNL1       -0.4702
     27 C          59.8708   80.5443    8.3549 C.3     1  UNL1        0.1535
     28 C          60.9632   80.4653    9.3954 C.2     1  UNL1        0.2443
     29 O          61.5148   79.3601    9.6508 O.2     1  UNL1       -0.2730
     30 N          61.3957   81.6689   10.0536 N.am    1  UNL1       -0.2825
     31 H          61.0008   82.5698    9.6995 H       1  UNL1        0.1549
     32 C          62.4207   81.7462   11.0638 C.ar    1  UNL1        0.0535
     33 C          62.1568   81.2303   12.3411 C.ar    1  UNL1        0.0353
     34 C          63.1473   81.2685   13.3249 C.ar    1  UNL1        0.1002
     35 N          64.3693   81.7901   13.0420 N.ar    1  UNL1       -0.2422
     36 C          64.6640   82.2828   11.8106 C.ar    1  UNL1        0.1002
     37 C          63.7010   82.2666   10.7981 C.ar    1  UNL1        0.0353
     38 C          58.5796   81.1941    8.8991 C.3     1  UNL1        0.0569
     39 C          58.5461   81.1844   10.4025 C.ar    1  UNL1       -0.0017
     40 C          58.5035   82.3007   11.2340 C.ar    1  UNL1        0.0681
     41 N          58.4953   81.9239   12.5324 N.ar    1  UNL1       -0.3523
     42 C          58.5283   80.5803   12.5297 C.ar    1  UNL1        0.0563
     43 C          58.5318   79.7352   13.6386 C.ar    1  UNL1        0.0170
     44 C          58.5638   78.3481   13.4085 C.ar    1  UNL1        0.0015
     45 C          58.5881   77.8423   12.0903 C.ar    1  UNL1        0.0001
     46 C          58.5821   78.7185   10.9900 C.ar    1  UNL1        0.0012
     47 C          58.5567   80.0902   11.2483 C.ar    1  UNL1        0.0131
     48 H          58.4677   82.5530   13.3654 H       1  UNL1        0.1660
@<TRIPOS>BOND
     1    25    26    1
     2    26    18    1
     3    18    19   ar
     4    19    20   ar
     5    20    21   ar
     6    21    22    1
     7    21    23   ar
     8    23    24   ar
     9    24    12    1
    10    12    13    1
    11    13    14    1
    12    14    15    1
    13    15     5    1
    14     5     6   ar
    15     6     7   ar
    16     7     8   ar
    17     8     1    1
    18     1     2    2
    19     1     3   am
    20     3    27    1
    21    27    38    1
    22    38    39    1
    23    39    40   ar
    24    40    41   ar
    25    41    42   ar
    26    42    43   ar
    27    43    44   ar
    28    44    45   ar
    29    45    46   ar
    30    46    47   ar
    31    27    28    1
    32    28    29    2
    33    28    30   am
    34    30    32    1
    35    32    33   ar
    36    33    34   ar
    37    34    35   ar
    38    35    36   ar
    39    36    37   ar
    40     8     9   ar
    41     9    10    1
    42     9    11   ar
    43    15    16    1
    44    16    17    1
    45    24    18   ar
    46    17    12    1
    47    11     5   ar
    48    47    39   ar
    49    37    32   ar
    50    47    42   ar
    51     3     4    1
    52    41    48    1
    53    30    31    1
@<TRIPOS>MOLECULE
*****
 48 53 0 0 0
SMALL
GASTEIGER

@<TRIPOS>ATOM
      1 C          58.5814   81.3825   12.2907 C.2     1  UNL1        0.2483
      2 O          58.6185   80.2924   12.9213 O.2     1  UNL1       -0.2701
      3 N          57.6546   81.5321   11.2054 N.am    1  UNL1       -0.2945
      4 H          56.7170   81.0847   11.3196 H       1  UNL1        0.1501
      5 C          61.0754   84.6267   13.5871 C.ar    1  UNL1        0.0502
      6 C          59.6771   84.7148   13.6807 C.ar    1  UNL1        0.0148
      7 C          58.8704   83.6591   13.2510 C.ar    1  UNL1        0.0080
      8 C          59.4456   82.4962   12.7202 C.ar    1  UNL1        0.0808
      9 C          60.8446   82.3884   12.6553 C.ar    1  UNL1        0.1457
     10 F          61.4299   81.2695   12.1586 F       1  UNL1       -0.2040
     11 C          61.6513   83.4499   13.0775 C.ar    1  UNL1        0.0443
     12 N          63.5271   87.9967   14.2986 N.pl3   1  UNL1       -0.3017
     13 C          64.0604   86.7075   14.7482 C.3     1  UNL1        0.1123
     14 C          63.3684   85.5710   13.9930 C.3     1  UNL1        0.1122
     15 N          61.9047   85.7344   13.9923 N.pl3   1  UNL1       -0.3040
     16 C          61.2941   86.9436   14.5652 C.3     1  UNL1        0.1122
     17 C          62.0791   88.1925   14.1462 C.3     1  UNL1        0.1123
     18 C          64.4840   89.4597   12.5548 C.ar    1  UNL1        0.1519
     19 C          65.3868   90.4785   12.1903 C.ar    1  UNL1        0.0390
     20 C          66.2060   91.0746   13.1527 C.ar    1  UNL1        0.0146
     21 C          66.1350   90.6646   14.4860 C.ar    1  UNL1        0.0591
     22 CL         67.1624   91.4172   15.6922 Cl      1  UNL1       -0.0822
     23 C          65.2468   89.6524   14.8576 C.ar    1  UNL1        0.0290
     24 C          64.4252   89.0424   13.8981 C.ar    1  UNL1        0.0832
     25 C          63.2700   89.4272   10.3665 C.3     1  UNL1        0.2525
     26 O          63.6279   88.8559   11.6203 O.3     1  UNL1       -0.4702
     27 C          58.0630   81.8741    9.8352 C.3     1  UNL1        0.1535
     28 C          58.1240   83.3709    9.6396 C.2     1  UNL1        0.2443
     29 O          57.0645   84.0268    9.4443 O.2     1  UNL1       -0.2730
     30 N          59.3942   84.0401    9.7254 N.am    1  UNL1       -0.2825
     31 H          60.2128   83.4644   10.0279 H       1  UNL1        0.1549
     32 C          59.6052   85.4560    9.5590 C.ar    1  UNL1        0.0535
     33 C          59.8777   86.2403   10.6895 C.ar    1  UNL1        0.0353
     34 C          60.1149   87.6091   10.5456 C.ar    1  UNL1        0.1002
     35 N          60.0972   88.1780    9.3121 N.ar    1  UNL1       -0.2422
     36 C          59.8534   87.4447    8.1946 C.ar    1  UNL1        0.1002
     37 C          59.6083   86.0726    8.2939 C.ar    1  UNL1        0.0353
     38 C          59.3852   81.1722    9.4543 C.3     1  UNL1        0.0569
     39 C          60.0614   81.8551    8.2978 C.ar    1  UNL1       -0.0017
     40 C          59.6521   81.8233    6.9670 C.ar    1  UNL1        0.0681
     41 N          60.5007   82.5372    6.1936 N.ar    1  UNL1       -0.3523
     42 C          61.4401   83.0231    7.0229 C.ar    1  UNL1        0.0563
     43 C          62.5298   83.8244    6.6849 C.ar    1  UNL1        0.0170
     44 C          63.3944   84.2291    7.7178 C.ar    1  UNL1        0.0015
     45 C          63.1514   83.8312    9.0507 C.ar    1  UNL1        0.0001
     46 C          62.0429   83.0238    9.3632 C.ar    1  UNL1        0.0012
     47 C          61.2056   82.6317    8.3171 C.ar    1  UNL1        0.0131
     48 H          60.4350   82.6803    5.1613 H       1  UNL1        0.1660
@<TRIPOS>BOND
     1    25    26    1
     2    26    18    1
     3    18    19   ar
     4    19    20   ar
     5    20    21   ar
     6    21    22    1
     7    21    23   ar
     8    23    24   ar
     9    24    12    1
    10    12    13    1
    11    13    14    1
    12    14    15    1
    13    15     5    1
    14     5     6   ar
    15     6     7   ar
    16     7     8   ar
    17     8     1    1
    18     1     2    2
    19     1     3   am
    20     3    27    1
    21    27    38    1
    22    38    39    1
    23    39    40   ar
    24    40    41   ar
    25    41    42   ar
    26    42    43   ar
    27    43    44   ar
    28    44    45   ar
    29    45    46   ar
    30    46    47   ar
    31    27    28    1
    32    28    29    2
    33    28    30   am
    34    30    32    1
    35    32    33   ar
    36    33    34   ar
    37    34    35   ar
    38    35    36   ar
    39    36    37   ar
    40     8     9   ar
    41     9    10    1
    42     9    11   ar
    43    15    16    1
    44    16    17    1
    45    24    18   ar
    46    17    12    1
    47    11     5   ar
    48    47    39   ar
    49    37    32   ar
    50    47    42   ar
    51     3     4    1
    52    41    48    1
    53    30    31    1
@<TRIPOS>MOLECULE
*****
 48 53 0 0 0
SMALL
GASTEIGER

@<TRIPOS>ATOM
      1 C          62.8114   89.4337   10.5062 C.2     1  UNL1        0.2483
      2 O          63.1384   89.8955    9.3806 O.2     1  UNL1       -0.2701
      3 N          63.2372   90.1174   11.6938 N.am    1  UNL1       -0.2945
      4 H          63.2487   91.1618   11.6595 H       1  UNL1        0.1501
      5 C          60.3209   85.9465   10.7558 C.ar    1  UNL1        0.0502
      6 C          61.6961   85.8671   11.0283 C.ar    1  UNL1        0.0148
      7 C          62.5027   87.0034   10.9388 C.ar    1  UNL1        0.0080
      8 C          61.9506   88.2396   10.5756 C.ar    1  UNL1        0.0808
      9 C          60.5698   88.3323   10.3348 C.ar    1  UNL1        0.1457
     10 F          60.0051   89.5183    9.9945 F       1  UNL1       -0.2040
     11 C          59.7645   87.1919   10.4159 C.ar    1  UNL1        0.0443
     12 N          58.3060   82.2434   11.0753 N.pl3   1  UNL1       -0.3017
     13 C          58.3193   82.8551    9.7432 C.3     1  UNL1        0.1123
     14 C          59.4710   83.8577    9.6471 C.3     1  UNL1        0.1122
     15 N          59.4977   84.7639   10.8079 N.pl3   1  UNL1       -0.3040
     16 C          58.5651   84.5616   11.9270 C.3     1  UNL1        0.1122
     17 C          58.4614   83.0725   12.2781 C.3     1  UNL1        0.1123
     18 C          57.9203   80.0071   10.1022 C.ar    1  UNL1        0.1519
     19 C          57.8607   78.6088   10.2667 C.ar    1  UNL1        0.0390
     20 C          58.1375   78.0308   11.5084 C.ar    1  UNL1        0.0146
     21 C          58.4769   78.8365   12.5975 C.ar    1  UNL1        0.0591
     22 CL         58.8270   78.1075   14.1541 Cl      1  UNL1       -0.0822
     23 C          58.5347   80.2241   12.4468 C.ar    1  UNL1        0.0290
     24 C          58.2516   80.8151   11.2065 C.ar    1  UNL1        0.0832
     25 C          58.4343   80.3908    7.6830 C.3     1  UNL1        0.2525
     26 O          57.6736   80.6211    8.8640 O.3     1  UNL1       -0.4702
     27 C          64.0370   89.4804   12.7503 C.3     1  UNL1        0.1535
     28 C          65.2966   90.2655   13.0318 C.2     1  UNL1        0.2443
     29 O          65.7302   91.0913   12.1827 O.2     1  UNL1       -0.2730
     30 N          65.9649   90.0939   14.2939 N.am    1  UNL1       -0.2825
     31 H          65.4815   89.5037   15.0087 H       1  UNL1        0.1549
     32 C          67.1711   90.7705   14.6990 C.ar    1  UNL1        0.0535
     33 C          68.3458   90.5671   13.9600 C.ar    1  UNL1        0.0353
     34 C          69.5177   91.2369   14.3184 C.ar    1  UNL1        0.1002
     35 N          69.5173   92.0957   15.3711 N.ar    1  UNL1       -0.2422
     36 C          68.3932   92.3288   16.0977 C.ar    1  UNL1        0.1002
     37 C          67.1999   91.6774   15.7749 C.ar    1  UNL1        0.0353
     38 C          63.1930   89.2381   14.0210 C.3     1  UNL1        0.0569
     39 C          63.1946   87.7879   14.4185 C.ar    1  UNL1       -0.0017
     40 C          64.3165   87.0051   14.6792 C.ar    1  UNL1        0.0681
     41 N          63.9498   85.7431   14.9967 N.ar    1  UNL1       -0.3523
     42 C          62.6071   85.7215   14.9431 C.ar    1  UNL1        0.0563
     43 C          61.7709   84.6349   15.1959 C.ar    1  UNL1        0.0170
     44 C          60.3828   84.8336   15.0873 C.ar    1  UNL1        0.0015
     45 C          59.8672   86.1003   14.7357 C.ar    1  UNL1        0.0001
     46 C          60.7344   87.1796   14.4879 C.ar    1  UNL1        0.0012
     47 C          62.1074   86.9517   14.5966 C.ar    1  UNL1        0.0131
     48 H          64.5849   84.9493   15.2356 H       1  UNL1        0.1660
@<TRIPOS>BOND
     1    25    26    1
     2    26    18    1
     3    18    19   ar
     4    19    20   ar
     5    20    21   ar
     6    21    22    1
     7    21    23   ar
     8    23    24   ar
     9    24    12    1
    10    12    13    1
    11    13    14    1
    12    14    15    1
    13    15     5    1
    14     5     6   ar
    15     6     7   ar
    16     7     8   ar
    17     8     1    1
    18     1     2    2
    19     1     3   am
    20     3    27    1
    21    27    38    1
    22    38    39    1
    23    39    40   ar
    24    40    41   ar
    25    41    42   ar
    26    42    43   ar
    27    43    44   ar
    28    44    45   ar
    29    45    46   ar
    30    46    47   ar
    31    27    28    1
    32    28    29    2
    33    28    30   am
    34    30    32    1
    35    32    33   ar
    36    33    34   ar
    37    34    35   ar
    38    35    36   ar
    39    36    37   ar
    40     8     9   ar
    41     9    10    1
    42     9    11   ar
    43    15    16    1
    44    16    17    1
    45    24    18   ar
    46    17    12    1
    47    11     5   ar
    48    47    39   ar
    49    37    32   ar
    50    47    42   ar
    51     3     4    1
    52    41    48    1
    53    30    31    1
@<TRIPOS>MOLECULE
*****
 48 53 0 0 0
SMALL
GASTEIGER

@<TRIPOS>ATOM
      1 C          57.3705   83.2941    8.8787 C.2     1  UNL1        0.2483
      2 O          56.1991   83.7561    8.8366 O.2     1  UNL1       -0.2701
      3 N          57.6545   82.0459    8.2304 N.am    1  UNL1       -0.2945
      4 H          57.1666   81.8620    7.3247 H       1  UNL1        0.1501
      5 C          60.4505   85.6069   10.7736 C.ar    1  UNL1        0.0502
      6 C          60.3862   85.5071    9.3744 C.ar    1  UNL1        0.0148
      7 C          59.3862   84.7478    8.7636 C.ar    1  UNL1        0.0080
      8 C          58.4322   84.0743    9.5391 C.ar    1  UNL1        0.0808
      9 C          58.4710   84.1977   10.9378 C.ar    1  UNL1        0.1457
     10 F          57.5528   83.5680   11.7135 F       1  UNL1       -0.2040
     11 C          59.4783   84.9511   11.5488 C.ar    1  UNL1        0.0443
     12 N          63.2316   87.9026   12.9804 N.pl3   1  UNL1       -0.3017
     13 C          62.9603   88.3604   11.6146 C.3     1  UNL1        0.1123
     14 C          61.6172   87.8021   11.1402 C.3     1  UNL1        0.1122
     15 N          61.5086   86.3571   11.4033 N.pl3   1  UNL1       -0.3040
     16 C          62.5656   85.6588   12.1506 C.3     1  UNL1        0.1122
     17 C          63.0184   86.4973   13.3520 C.3     1  UNL1        0.1123
     18 C          62.7845   89.0487   15.1213 C.ar    1  UNL1        0.1519
     19 C          63.1684   89.9971   16.0903 C.ar    1  UNL1        0.0390
     20 C          64.3518   90.7242   15.9378 C.ar    1  UNL1        0.0146
     21 C          65.1651   90.5150   14.8218 C.ar    1  UNL1        0.0591
     22 CL         66.6518   91.4270   14.6350 Cl      1  UNL1       -0.0822
     23 C          64.7920   89.5804   13.8528 C.ar    1  UNL1        0.0290
     24 C          63.6024   88.8504   13.9926 C.ar    1  UNL1        0.0832
     25 C          61.4923   87.1371   16.0907 C.3     1  UNL1        0.2525
     26 O          61.6160   88.2819   15.2537 O.3     1  UNL1       -0.4702
     27 C          58.2125   80.8800    8.9309 C.3     1  UNL1        0.1535
     28 C          59.7227   80.8897    8.8930 C.2     1  UNL1        0.2443
     29 O          60.3408   80.1143    8.1135 O.2     1  UNL1       -0.2730
     30 N          60.4409   81.8228    9.7190 N.am    1  UNL1       -0.2825
     31 H          59.8725   82.5321   10.2355 H       1  UNL1        0.1549
     32 C          61.8752   81.9445    9.7888 C.ar    1  UNL1        0.0535
     33 C          62.4963   83.0357    9.1637 C.ar    1  UNL1        0.0353
     34 C          63.8821   83.1878    9.2455 C.ar    1  UNL1        0.1002
     35 N          64.6265   82.2896    9.9418 N.ar    1  UNL1       -0.2422
     36 C          64.0554   81.2309   10.5733 C.ar    1  UNL1        0.1002
     37 C          62.6725   81.0398   10.5145 C.ar    1  UNL1        0.0353
     38 C          57.6563   80.7722   10.3678 C.3     1  UNL1        0.0569
     39 C          58.4859   79.8471   11.2147 C.ar    1  UNL1       -0.0017
     40 C          58.4391   78.4553   11.2052 C.ar    1  UNL1        0.0681
     41 N          59.3127   77.9461   12.1027 N.ar    1  UNL1       -0.3523
     42 C          59.9140   79.0023   12.6765 C.ar    1  UNL1        0.0563
     43 C          60.8965   78.9780   13.6654 C.ar    1  UNL1        0.0170
     44 C          61.3976   80.2090   14.1254 C.ar    1  UNL1        0.0015
     45 C          60.9134   81.4229   13.5906 C.ar    1  UNL1        0.0001
     46 C          59.9227   81.4174   12.5921 C.ar    1  UNL1        0.0012
     47 C          59.4392   80.1813   12.1594 C.ar    1  UNL1        0.0131
     48 H          59.4832   76.9359   12.3049 H       1  UNL1        0.1660
@<TRIPOS>BOND
     1    25    26    1
     2    26    18    1
     3    18    19   ar
     4    19    20   ar
     5    20    21   ar
     6    21    22    1
     7    21    23   ar
     8    23    24   ar
     9    24    12    1
    10    12    13    1
    11    13    14    1
    12    14    15    1
    13    15     5    1
    14     5     6   ar
    15     6     7   ar
    16     7     8   ar
    17     8     1    1
    18     1     2    2
    19     1     3   am
    20     3    27    1
    21    27    38    1
    22    38    39    1
    23    39    40   ar
    24    40    41   ar
    25    41    42   ar
    26    42    43   ar
    27    43    44   ar
    28    44    45   ar
    29    45    46   ar
    30    46    47   ar
    31    27    28    1
    32    28    29    2
    33    28    30   am
    34    30    32    1
    35    32    33   ar
    36    33    34   ar
    37    34    35   ar
    38    35    36   ar
    39    36    37   ar
    40     8     9   ar
    41     9    10    1
    42     9    11   ar
    43    15    16    1
    44    16    17    1
    45    24    18   ar
    46    17    12    1
    47    11     5   ar
    48    47    39   ar
    49    37    32   ar
    50    47    42   ar
    51     3     4    1
    52    41    48    1
    53    30    31    1
@<TRIPOS>MOLECULE
*****
 48 53 0 0 0
SMALL
GASTEIGER

@<TRIPOS>ATOM
      1 C          60.2233   82.4122    6.9270 C.2     1  UNL1        0.2483
      2 O          59.7138   82.5943    5.7892 O.2     1  UNL1       -0.2701
      3 N          60.4364   81.0716    7.3921 N.am    1  UNL1       -0.2945
      4 H          60.7408   80.3678    6.6820 H       1  UNL1        0.1501
      5 C          61.4824   85.8154    9.2200 C.ar    1  UNL1        0.0502
      6 C          62.4063   84.8343    8.8258 C.ar    1  UNL1        0.0148
      7 C          61.9898   83.7258    8.0858 C.ar    1  UNL1        0.0080
      8 C          60.6432   83.5770    7.7261 C.ar    1  UNL1        0.0808
      9 C          59.7203   84.5721    8.0885 C.ar    1  UNL1        0.1457
     10 F          58.4128   84.4618    7.7429 F       1  UNL1       -0.2040
     11 C          60.1368   85.6773    8.8373 C.ar    1  UNL1        0.0443
     12 N          63.1754   89.0364   11.3727 N.pl3   1  UNL1       -0.3017
     13 C          62.5521   87.9821   12.1780 C.3     1  UNL1        0.1123
     14 C          62.4645   86.6918   11.3606 C.3     1  UNL1        0.1122
     15 N          61.9070   86.9376   10.0197 N.pl3   1  UNL1       -0.3040
     16 C          61.6219   88.3106    9.5764 C.3     1  UNL1        0.1122
     17 C          62.7620   89.2536    9.9797 C.3     1  UNL1        0.1123
     18 C          64.5337   89.7926   13.2910 C.ar    1  UNL1        0.1519
     19 C          65.6097   90.5556   13.7871 C.ar    1  UNL1        0.0390
     20 C          66.4143   91.2934   12.9149 C.ar    1  UNL1        0.0146
     21 C          66.1579   91.2792   11.5420 C.ar    1  UNL1        0.0591
     22 CL         67.1718   92.2040   10.4495 Cl      1  UNL1       -0.0822
     23 C          65.0912   90.5297   11.0399 C.ar    1  UNL1        0.0290
     24 C          64.2729   89.7913   11.9075 C.ar    1  UNL1        0.0832
     25 C          63.3717   89.3741   15.4678 C.3     1  UNL1        0.2525
     26 O          63.7201   89.0191   14.1340 O.3     1  UNL1       -0.4702
     27 C          59.8613   80.5479    8.6396 C.3     1  UNL1        0.1535
     28 C          60.8692   80.5838    9.7645 C.2     1  UNL1        0.2443
     29 O          61.3738   79.5114   10.1960 O.2     1  UNL1       -0.2730
     30 N          61.2781   81.8537   10.3019 N.am    1  UNL1       -0.2825
     31 H          60.9324   82.7090    9.8101 H       1  UNL1        0.1549
     32 C          62.2247   82.0418   11.3723 C.ar    1  UNL1        0.0535
     33 C          63.5964   81.9935   11.0833 C.ar    1  UNL1        0.0353
     34 C          64.5293   82.2033   12.1011 C.ar    1  UNL1        0.1002
     35 N          64.1103   82.4690   13.3658 N.ar    1  UNL1       -0.2422
     36 C          62.7896   82.5399   13.6768 C.ar    1  UNL1        0.1002
     37 C          61.8229   82.3335   12.6891 C.ar    1  UNL1        0.0353
     38 C          58.5469   81.2757    8.9979 C.3     1  UNL1        0.0569
     39 C          58.3712   81.4007   10.4861 C.ar    1  UNL1       -0.0017
     40 C          58.3242   80.3529   11.4022 C.ar    1  UNL1        0.0681
     41 N          58.1433   80.8273   12.6553 N.ar    1  UNL1       -0.3523
     42 C          58.0794   82.1649   12.5407 C.ar    1  UNL1        0.0563
     43 C          57.9021   83.0912   13.5675 C.ar    1  UNL1        0.0170
     44 C          57.8697   84.4549   13.2250 C.ar    1  UNL1        0.0015
     45 C          58.0168   84.8580   11.8797 C.ar    1  UNL1        0.0001
     46 C          58.1960   83.9015   10.8641 C.ar    1  UNL1        0.0012
     47 C          58.2175   82.5550   11.2323 C.ar    1  UNL1        0.0131
     48 H          58.0697   80.2647   13.5319 H       1  UNL1        0.1660
@<TRIPOS>BOND
     1    25    26    1
     2    26    18    1
     3    18    19   ar
     4    19    20   ar
     5    20    21   ar
     6    21    22    1
     7    21    23   ar
     8    23    24   ar
     9    24    12    1
    10    12    13    1
    11    13    14    1
    12    14    15    1
    13    15     5    1
    14     5     6   ar
    15     6     7   ar
    16     7     8   ar
    17     8     1    1
    18     1     2    2
    19     1     3   am
    20     3    27    1
    21    27    38    1
    22    38    39    1
    23    39    40   ar
    24    40    41   ar
    25    41    42   ar
    26    42    43   ar
    27    43    44   ar
    28    44    45   ar
    29    45    46   ar
    30    46    47   ar
    31    27    28    1
    32    28    29    2
    33    28    30   am
    34    30    32    1
    35    32    33   ar
    36    33    34   ar
    37    34    35   ar
    38    35    36   ar
    39    36    37   ar
    40     8     9   ar
    41     9    10    1
    42     9    11   ar
    43    15    16    1
    44    16    17    1
    45    24    18   ar
    46    17    12    1
    47    11     5   ar
    48    47    39   ar
    49    37    32   ar
    50    47    42   ar
    51     3     4    1
    52    41    48    1
    53    30    31    1
@<TRIPOS>MOLECULE
*****
 48 53 0 0 0
SMALL
GASTEIGER

@<TRIPOS>ATOM
      1 C          62.7354   89.7421   11.4211 C.2     1  UNL1        0.2483
      2 O          62.3544   90.5949   10.5757 O.2     1  UNL1       -0.2701
      3 N          63.4275   90.1838   12.5979 N.am    1  UNL1       -0.2945
      4 H          63.1052   91.0805   13.0272 H       1  UNL1        0.1501
      5 C          61.7392   85.6082   10.8346 C.ar    1  UNL1        0.0502
      6 C          61.6770   86.1869   12.1124 C.ar    1  UNL1        0.0148
      7 C          62.0088   87.5304   12.2985 C.ar    1  UNL1        0.0080
      8 C          62.4088   88.3203   11.2117 C.ar    1  UNL1        0.0808
      9 C          62.4404   87.7561    9.9257 C.ar    1  UNL1        0.1457
     10 F          62.8107   88.4999    8.8529 F       1  UNL1       -0.2040
     11 C          62.1166   86.4081    9.7420 C.ar    1  UNL1        0.0443
     12 N          60.4388   81.5952   10.5515 N.pl3   1  UNL1       -0.3017
     13 C          61.7440   81.8048   11.1849 C.3     1  UNL1        0.1123
     14 C          61.8490   83.2465   11.6861 C.3     1  UNL1        0.1122
     15 N          61.4367   84.2103   10.6516 N.pl3   1  UNL1       -0.3040
     16 C          60.8870   83.7346    9.3730 C.3     1  UNL1        0.1122
     17 C          59.9012   82.5834    9.6066 C.3     1  UNL1        0.1123
     18 C          58.8906   79.7608    9.9729 C.ar    1  UNL1        0.1519
     19 C          58.0924   78.6748   10.3843 C.ar    1  UNL1        0.0390
     20 C          58.0420   78.3048   11.7308 C.ar    1  UNL1        0.0146
     21 C          58.7847   79.0098   12.6806 C.ar    1  UNL1        0.0591
     22 CL         58.7217   78.5407   14.3696 Cl      1  UNL1       -0.0822
     23 C          59.5760   80.0907   12.2844 C.ar    1  UNL1        0.0290
     24 C          59.6281   80.4750   10.9363 C.ar    1  UNL1        0.0832
     25 C          57.9097   80.6762    7.8601 C.3     1  UNL1        0.2525
     26 O          58.9858   80.1451    8.6260 O.3     1  UNL1       -0.4702
     27 C          64.7722   89.7181   12.9673 C.3     1  UNL1        0.1535
     28 C          65.8421   90.5465   12.2956 C.2     1  UNL1        0.2443
     29 O          66.7973   91.0154   12.9729 O.2     1  UNL1       -0.2730
     30 N          65.7823   90.7529   10.8734 N.am    1  UNL1       -0.2825
     31 H          65.0485   90.2242   10.3491 H       1  UNL1        0.1549
     32 C          66.7270   91.5188   10.1002 C.ar    1  UNL1        0.0535
     33 C          67.9144   90.9048    9.6752 C.ar    1  UNL1        0.0353
     34 C          68.8286   91.6208    8.8995 C.ar    1  UNL1        0.1002
     35 N          68.5626   92.9046    8.5436 N.ar    1  UNL1       -0.2422
     36 C          67.4146   93.5241    8.9237 C.ar    1  UNL1        0.1002
     37 C          66.4742   92.8450    9.7027 C.ar    1  UNL1        0.0353
     38 C          64.9422   89.6615   14.5015 C.3     1  UNL1        0.0569
     39 C          63.7589   89.0141   15.1662 C.ar    1  UNL1       -0.0017
     40 C          62.7354   89.6680   15.8474 C.ar    1  UNL1        0.0681
     41 N          61.8415   88.7753   16.3292 N.ar    1  UNL1       -0.3523
     42 C          62.2880   87.5638   15.9557 C.ar    1  UNL1        0.0563
     43 C          61.6964   86.3293   16.2203 C.ar    1  UNL1        0.0170
     44 C          62.3329   85.1758   15.7279 C.ar    1  UNL1        0.0015
     45 C          63.5309   85.2809   14.9877 C.ar    1  UNL1        0.0001
     46 C          64.1046   86.5399   14.7344 C.ar    1  UNL1        0.0012
     47 C          63.4547   87.6670   15.2408 C.ar    1  UNL1        0.0131
     48 H          60.9796   88.9885   16.8787 H       1  UNL1        0.1660
@<TRIPOS>BOND
     1    25    26    1
     2    26    18    1
     3    18    19   ar
     4    19    20   ar
     5    20    21   ar
     6    21    22    1
     7    21    23   ar
     8    23    24   ar
     9    24    12    1
    10    12    13    1
    11    13    14    1
    12    14    15    1
    13    15     5    1
    14     5     6   ar
    15     6     7   ar
    16     7     8   ar
    17     8     1    1
    18     1     2    2
    19     1     3   am
    20     3    27    1
    21    27    38    1
    22    38    39    1
    23    39    40   ar
    24    40    41   ar
    25    41    42   ar
    26    42    43   ar
    27    43    44   ar
    28    44    45   ar
    29    45    46   ar
    30    46    47   ar
    31    27    28    1
    32    28    29    2
    33    28    30   am
    34    30    32    1
    35    32    33   ar
    36    33    34   ar
    37    34    35   ar
    38    35    36   ar
    39    36    37   ar
    40     8     9   ar
    41     9    10    1
    42     9    11   ar
    43    15    16    1
    44    16    17    1
    45    24    18   ar
    46    17    12    1
    47    11     5   ar
    48    47    39   ar
    49    37    32   ar
    50    47    42   ar
    51     3     4    1
    52    41    48    1
    53    30    31    1
@<TRIPOS>MOLECULE
*****
 48 53 0 0 0
SMALL
GASTEIGER

@<TRIPOS>ATOM
      1 C          62.0843   80.2827   13.9913 C.2     1  UNL1        0.2483
      2 O          62.9800   79.5076   14.4207 O.2     1  UNL1       -0.2701
      3 N          60.8269   79.7342   13.5704 N.am    1  UNL1       -0.2945
      4 H          60.4522   78.9313   14.1246 H       1  UNL1        0.1501
      5 C          62.7953   84.5156   14.0335 C.ar    1  UNL1        0.0502
      6 C          61.8124   83.9449   14.8580 C.ar    1  UNL1        0.0148
      7 C          61.5806   82.5681   14.8351 C.ar    1  UNL1        0.0080
      8 C          62.3264   81.7363   13.9884 C.ar    1  UNL1        0.0808
      9 C          63.3341   82.2969   13.1862 C.ar    1  UNL1        0.1457
     10 F          64.0809   81.5148   12.3666 F       1  UNL1       -0.2040
     11 C          63.5591   83.6770   13.2033 C.ar    1  UNL1        0.0443
     12 N          63.8185   88.6088   13.7618 N.pl3   1  UNL1       -0.3017
     13 C          63.6666   88.0729   15.1176 C.3     1  UNL1        0.1123
     14 C          63.8213   86.5510   15.0915 C.3     1  UNL1        0.1122
     15 N          63.0041   85.9423   14.0281 N.pl3   1  UNL1       -0.3040
     16 C          62.2667   86.7933   13.0819 C.3     1  UNL1        0.1122
     17 C          63.1369   87.9712   12.6272 C.3     1  UNL1        0.1123
     18 C          64.7271   90.3612   12.2784 C.ar    1  UNL1        0.1519
     19 C          65.6386   91.4147   12.0656 C.ar    1  UNL1        0.0390
     20 C          66.5216   91.8006   13.0774 C.ar    1  UNL1        0.0146
     21 C          66.5064   91.1442   14.3101 C.ar    1  UNL1        0.0591
     22 CL         67.6140   91.6333   15.5794 Cl      1  UNL1       -0.0822
     23 C          65.6099   90.0957   14.5305 C.ar    1  UNL1        0.0290
     24 C          64.7243   89.6955   13.5190 C.ar    1  UNL1        0.0832
     25 C          63.8396   90.3956    9.9385 C.3     1  UNL1        0.2525
     26 O          63.8083   89.9630   11.2944 O.3     1  UNL1       -0.4702
     27 C          60.2734   79.9238   12.2216 C.3     1  UNL1        0.1535
     28 C          59.3557   81.1227   12.1700 C.2     1  UNL1        0.2443
     29 O          58.1150   80.9630   12.0085 O.2     1  UNL1       -0.2730
     30 N          59.9068   82.4385   12.3533 N.am    1  UNL1       -0.2825
     31 H          60.9154   82.4957   12.6224 H       1  UNL1        0.1549
     32 C          59.1572   83.6691   12.3271 C.ar    1  UNL1        0.0535
     33 C          58.0493   83.8085   13.1759 C.ar    1  UNL1        0.0353
     34 C          57.3280   85.0043   13.1873 C.ar    1  UNL1        0.1002
     35 N          57.7069   86.0366   12.3895 N.ar    1  UNL1       -0.2422
     36 C          58.7849   85.9413   11.5680 C.ar    1  UNL1        0.1002
     37 C          59.5327   84.7618   11.5236 C.ar    1  UNL1        0.0353
     38 C          61.3948   79.9895   11.1614 C.3     1  UNL1        0.0569
     39 C          60.9376   80.6957    9.9150 C.ar    1  UNL1       -0.0017
     40 C          59.9413   80.2664    9.0418 C.ar    1  UNL1        0.0681
     41 N          59.7997   81.1393    8.0192 N.ar    1  UNL1       -0.3523
     42 C          60.6939   82.1182    8.2395 C.ar    1  UNL1        0.0563
     43 C          60.9193   83.2466    7.4522 C.ar    1  UNL1        0.0170
     44 C          61.9076   84.1549    7.8720 C.ar    1  UNL1        0.0015
     45 C          62.6380   83.9196    9.0574 C.ar    1  UNL1        0.0001
     46 C          62.3882   82.7733    9.8333 C.ar    1  UNL1        0.0012
     47 C          61.4063   81.8858    9.3891 C.ar    1  UNL1        0.0131
     48 H          59.1290   81.0647    7.2222 H       1  UNL1        0.1660
@<TRIPOS>BOND
     1    25    26    1
     2    26    18    1
     3    18    19   ar
     4    19    20   ar
     5    20    21   ar
     6    21    22    1
     7    21    23   ar
     8    23    24   ar
     9    24    12    1
    10    12    13    1
    11    13    14    1
    12    14    15    1
    13    15     5    1
    14     5     6   ar
    15     6     7   ar
    16     7     8   ar
    17     8     1    1
    18     1     2    2
    19     1     3   am
    20     3    27    1
    21    27    38    1
    22    38    39    1
    23    39    40   ar
    24    40    41   ar
    25    41    42   ar
    26    42    43   ar
    27    43    44   ar
    28    44    45   ar
    29    45    46   ar
    30    46    47   ar
    31    27    28    1
    32    28    29    2
    33    28    30   am
    34    30    32    1
    35    32    33   ar
    36    33    34   ar
    37    34    35   ar
    38    35    36   ar
    39    36    37   ar
    40     8     9   ar
    41     9    10    1
    42     9    11   ar
    43    15    16    1
    44    16    17    1
    45    24    18   ar
    46    17    12    1
    47    11     5   ar
    48    47    39   ar
    49    37    32   ar
    50    47    42   ar
    51     3     4    1
    52    41    48    1
    53    30    31    1
@<TRIPOS>MOLECULE
*****
 48 53 0 0 0
SMALL
GASTEIGER

@<TRIPOS>ATOM
      1 C          63.5841   89.0556   15.3164 C.2     1  UNL1        0.2483
      2 O          63.2337   89.6517   16.3696 O.2     1  UNL1       -0.2701
      3 N          64.5439   89.6750   14.4479 N.am    1  UNL1       -0.2945
      4 H          65.3199   90.2064   14.9035 H       1  UNL1        0.1501
      5 C          62.0551   85.1243   14.5213 C.ar    1  UNL1        0.0502
      6 C          63.4208   85.4088   14.3617 C.ar    1  UNL1        0.0148
      7 C          63.9116   86.6913   14.6151 C.ar    1  UNL1        0.0080
      8 C          63.0472   87.7129   15.0326 C.ar    1  UNL1        0.0808
      9 C          61.6859   87.4259   15.2267 C.ar    1  UNL1        0.1457
     10 F          60.8280   88.3912   15.6431 F       1  UNL1       -0.2040
     11 C          61.1940   86.1435   14.9639 C.ar    1  UNL1        0.0443
     12 N          60.8505   81.2796   13.2399 N.pl3   1  UNL1       -0.3017
     13 C          59.7835   82.2755   13.3755 C.3     1  UNL1        0.1123
     14 C          60.3814   83.6829   13.3232 C.3     1  UNL1        0.1122
     15 N          61.5437   83.8105   14.2187 N.pl3   1  UNL1       -0.3040
     16 C          62.0609   82.6338   14.9333 C.3     1  UNL1        0.1122
     17 C          62.0976   81.4140   14.0047 C.3     1  UNL1        0.1123
     18 C          61.7845   79.9360   11.3908 C.ar    1  UNL1        0.1519
     19 C          61.6268   78.9044   10.4437 C.ar    1  UNL1        0.0390
     20 C          60.4390   78.1706   10.3891 C.ar    1  UNL1        0.0146
     21 C          59.3974   78.4542   11.2753 C.ar    1  UNL1        0.0591
     22 CL         57.9089   77.5289   11.2062 Cl      1  UNL1       -0.0822
     23 C          59.5413   79.4776   12.2153 C.ar    1  UNL1        0.0290
     24 C          60.7268   80.2252   12.2739 C.ar    1  UNL1        0.0832
     25 C          63.5495   81.4263   10.4277 C.3     1  UNL1        0.2525
     26 O          62.9725   80.6771   11.4918 O.3     1  UNL1       -0.4702
     27 C          64.2799   89.9713   13.0323 C.3     1  UNL1        0.1535
     28 C          65.3639   90.8440   12.4443 C.2     1  UNL1        0.2443
     29 O          66.0461   91.5958   13.1928 O.2     1  UNL1       -0.2730
     30 N          65.6374   90.7714   11.0341 N.am    1  UNL1       -0.2825
     31 H          65.1369   90.0303   10.4927 H       1  UNL1        0.1549
     32 C          66.6353   91.5421   10.3362 C.ar    1  UNL1        0.0535
     33 C          67.8229   90.9127    9.9350 C.ar    1  UNL1        0.0353
     34 C          68.7892   91.6346    9.2311 C.ar    1  UNL1        0.1002
     35 N          68.5739   92.9398    8.9215 N.ar    1  UNL1       -0.2422
     36 C          67.4278   93.5754    9.2798 C.ar    1  UNL1        0.1002
     37 C          66.4362   92.8910    9.9875 C.ar    1  UNL1        0.0353
     38 C          64.0575   88.6753   12.2219 C.3     1  UNL1        0.0569
     39 C          62.7876   88.7356   11.4188 C.ar    1  UNL1       -0.0017
     40 C          62.1110   89.8891   11.0303 C.ar    1  UNL1        0.0681
     41 N          60.9991   89.5725   10.3293 N.ar    1  UNL1       -0.3523
     42 C          60.9684   88.2303   10.2676 C.ar    1  UNL1        0.0563
     43 C          60.0071   87.4372    9.6423 C.ar    1  UNL1        0.0170
     44 C          60.1710   86.0413    9.6938 C.ar    1  UNL1        0.0015
     45 C          61.2810   85.4757   10.3587 C.ar    1  UNL1        0.0001
     46 C          62.2366   86.3003   10.9795 C.ar    1  UNL1        0.0012
     47 C          62.0449   87.6817   10.9181 C.ar    1  UNL1        0.0131
     48 H          60.3077   90.2392    9.9197 H       1  UNL1        0.1660
@<TRIPOS>BOND
     1    25    26    1
     2    26    18    1
     3    18    19   ar
     4    19    20   ar
     5    20    21   ar
     6    21    22    1
     7    21    23   ar
     8    23    24   ar
     9    24    12    1
    10    12    13    1
    11    13    14    1
    12    14    15    1
    13    15     5    1
    14     5     6   ar
    15     6     7   ar
    16     7     8   ar
    17     8     1    1
    18     1     2    2
    19     1     3   am
    20     3    27    1
    21    27    38    1
    22    38    39    1
    23    39    40   ar
    24    40    41   ar
    25    41    42   ar
    26    42    43   ar
    27    43    44   ar
    28    44    45   ar
    29    45    46   ar
    30    46    47   ar
    31    27    28    1
    32    28    29    2
    33    28    30   am
    34    30    32    1
    35    32    33   ar
    36    33    34   ar
    37    34    35   ar
    38    35    36   ar
    39    36    37   ar
    40     8     9   ar
    41     9    10    1
    42     9    11   ar
    43    15    16    1
    44    16    17    1
    45    24    18   ar
    46    17    12    1
    47    11     5   ar
    48    47    39   ar
    49    37    32   ar
    50    47    42   ar
    51     3     4    1
    52    41    48    1
    53    30    31    1
