@<TRIPOS>MOLECULE
*****
 45 49 0 0 0
SMALL
GASTEIGER

@<TRIPOS>ATOM
      1 C          -7.6253  -10.4568   30.3661 C.3     1  UNL1        0.1562
      2 C          -8.2849   -9.2598   29.6763 C.3     1  UNL1        0.0622
      3 C          -9.7320   -9.1783   30.2097 C.3     1  UNL1        0.1294
      4 O         -10.5637   -9.9051   29.3367 O.3     1  UNL1       -0.3808
      5 C          -9.6412   -9.9026   31.5757 C.3     1  UNL1        0.1264
      6 N          -8.4673  -10.7602   31.5125 N.am    1  UNL1       -0.2544
      7 C          -8.0018  -11.5315   32.6373 C.2     1  UNL1        0.3081
      8 O          -6.7801  -11.8248   32.7350 O.2     1  UNL1       -0.2522
      9 N          -8.8976  -11.9317   33.6823 N.am    1  UNL1       -0.2681
     10 H         -11.4856   -9.8832   29.7064 H       1  UNL1        0.2107
     11 H          -8.5764  -11.8269   34.6710 H       1  UNL1        0.1564
     12 C         -10.2582   -7.7344   30.3069 C.ar    1  UNL1        0.0310
     13 C          -9.4436   -6.6462   29.9172 C.ar    1  UNL1        0.0026
     14 C          -9.8902   -5.3293   30.0520 C.ar    1  UNL1        0.0295
     15 C         -11.1376   -5.0667   30.6154 C.ar    1  UNL1        0.1424
     16 F         -11.5658   -3.7874   30.7505 F       1  UNL1       -0.2041
     17 C         -11.9301   -6.1201   31.0694 C.ar    1  UNL1        0.0590
     18 C         -11.4920   -7.4423   30.9401 C.ar    1  UNL1        0.1406
     19 F         -12.2660   -8.4233   31.4671 F       1  UNL1       -0.2044
     20 C         -10.1658  -12.5569   33.4343 C.ar    1  UNL1        0.0516
     21 C         -10.7836  -13.2993   34.4512 C.ar    1  UNL1        0.0156
     22 C         -12.0224  -13.9084   34.2274 C.ar    1  UNL1        0.0127
     23 C         -12.6466  -13.7917   32.9809 C.ar    1  UNL1        0.0578
     24 CL        -14.2008  -14.5552   32.7016 Cl      1  UNL1       -0.0822
     25 C         -12.0255  -13.0730   31.9545 C.ar    1  UNL1        0.0127
     26 C         -10.7873  -12.4641   32.1764 C.ar    1  UNL1        0.0156
     27 O          -8.5316  -12.3556   29.2417 O.2     1  UNL1       -0.2730
     28 C          -7.5075  -11.6514   29.4519 C.2     1  UNL1        0.2454
     29 N          -6.2435  -12.0076   28.8644 N.am    1  UNL1       -0.2680
     30 H          -5.3969  -11.4758   29.1622 H       1  UNL1        0.1563
     31 C          -6.0742  -13.0086   27.8465 C.ar    1  UNL1        0.1346
     32 C          -6.8443  -14.1786   27.8867 C.ar    1  UNL1        0.0406
     33 C          -6.6678  -15.1545   26.9052 C.ar    1  UNL1        0.0736
     34 C          -5.7268  -14.9623   25.8834 C.ar    1  UNL1        0.2466
     35 C          -4.9700  -13.7811   25.8823 C.ar    1  UNL1        0.1691
     36 N          -5.1598  -12.8454   26.8499 N.ar    1  UNL1       -0.2228
     37 N          -5.5247  -15.9658   24.8675 N.am    1  UNL1       -0.0815
     38 C          -4.3216  -16.6168   24.8132 C.2     1  UNL1        0.3273
     39 C          -4.0852  -17.6032   23.8523 C.2     1  UNL1        0.2046
     40 O          -2.8556  -18.2568   23.8172 O.2     1  UNL1       -0.5008
     41 C          -5.0920  -17.9208   22.9386 C.2     1  UNL1        0.0529
     42 C          -6.3122  -17.2512   22.9942 C.2     1  UNL1        0.1187
     43 C          -6.5171  -16.2665   23.9663 C.2     1  UNL1        0.4232
     44 O          -7.6187  -15.6516   23.9906 O.2     1  UNL1       -0.2135
     45 H          -2.6582  -18.9763   23.1314 H       1  UNL1        0.2924
@<TRIPOS>BOND
     1    27    28    2
     2    28    29   am
     3    29    31    1
     4    31    32   ar
     5    32    33   ar
     6    33    34   ar
     7    34    37    1
     8    37    38    1
     9    38    39    2
    10    39    40    1
    11    39    41    1
    12    41    42    2
    13    42    43    1
    14    43    44    2
    15    34    35   ar
    16    35    36   ar
    17    28     1    1
    18     1     2    1
    19     2     3    1
    20     3     4    1
    21     3    12    1
    22    12    13   ar
    23    13    14   ar
    24    14    15   ar
    25    15    16    1
    26    15    17   ar
    27    17    18   ar
    28    18    19    1
    29     3     5    1
    30     5     6    1
    31     6     7   am
    32     7     8    2
    33     7     9   am
    34     9    20    1
    35    20    21   ar
    36    21    22   ar
    37    22    23   ar
    38    23    24    1
    39    23    25   ar
    40    25    26   ar
    41    36    31   ar
    42     6     1    1
    43    26    20   ar
    44    43    37    1
    45    18    12   ar
    46    29    30    1
    47    40    45    1
    48     4    10    1
    49     9    11    1
@<TRIPOS>MOLECULE
*****
 45 49 0 0 0
SMALL
GASTEIGER

@<TRIPOS>ATOM
      1 C          -7.4653  -10.4318   30.3900 C.3     1  UNL1        0.1562
      2 C          -8.0616   -9.2085   29.6888 C.3     1  UNL1        0.0622
      3 C          -9.5147   -9.0688   30.1928 C.3     1  UNL1        0.1294
      4 O         -10.3573   -9.7606   29.3020 O.3     1  UNL1       -0.3808
      5 C          -9.4813   -9.7973   31.5592 C.3     1  UNL1        0.1264
      6 N          -8.3421  -10.7017   31.5185 N.am    1  UNL1       -0.2544
      7 C          -7.9312  -11.4921   32.6513 C.2     1  UNL1        0.3081
      8 O          -6.7247  -11.8349   32.7734 O.2     1  UNL1       -0.2522
      9 N          -8.8637  -11.8565   33.6772 N.am    1  UNL1       -0.2681
     10 H         -11.2849   -9.7016   29.6528 H       1  UNL1        0.2107
     11 H          -8.5586  -11.7656   34.6725 H       1  UNL1        0.1564
     12 C          -9.9839   -7.6049   30.2816 C.ar    1  UNL1        0.0310
     13 C         -11.3228   -7.2999   30.6193 C.ar    1  UNL1        0.0026
     14 C         -11.7733   -5.9778   30.6497 C.ar    1  UNL1        0.0295
     15 C         -10.9138   -4.9365   30.3043 C.ar    1  UNL1        0.1424
     16 F         -11.3556   -3.6550   30.3288 F       1  UNL1       -0.2041
     17 C          -9.6088   -5.2179   29.9023 C.ar    1  UNL1        0.0590
     18 C          -9.1479   -6.5381   29.8673 C.ar    1  UNL1        0.1406
     19 F          -7.8964   -6.7628   29.3958 F       1  UNL1       -0.2044
     20 C         -10.1508  -12.4295   33.4025 C.ar    1  UNL1        0.0516
     21 C         -10.7442  -13.2846   34.3426 C.ar    1  UNL1        0.0156
     22 C         -12.0008  -13.8450   34.0927 C.ar    1  UNL1        0.0127
     23 C         -12.6678  -13.5662   32.8950 C.ar    1  UNL1        0.0578
     24 CL        -14.2443  -14.2689   32.5831 Cl      1  UNL1       -0.0822
     25 C         -12.0718  -12.7337   31.9425 C.ar    1  UNL1        0.0127
     26 C         -10.8159  -12.1731   32.1904 C.ar    1  UNL1        0.0156
     27 O          -8.4022  -12.3462   29.3183 O.2     1  UNL1       -0.2730
     28 C          -7.3773  -11.6296   29.4765 C.2     1  UNL1        0.2454
     29 N          -6.1387  -11.9744   28.8310 N.am    1  UNL1       -0.2680
     30 H          -5.2851  -11.4316   29.0859 H       1  UNL1        0.1563
     31 C          -6.0065  -12.9784   27.8106 C.ar    1  UNL1        0.1346
     32 C          -6.8038  -14.1297   27.8603 C.ar    1  UNL1        0.0406
     33 C          -6.6634  -15.1088   26.8761 C.ar    1  UNL1        0.0736
     34 C          -5.7313  -14.9385   25.8423 C.ar    1  UNL1        0.2466
     35 C          -4.9465  -13.7757   25.8320 C.ar    1  UNL1        0.1691
     36 N          -5.1014  -12.8364   26.8023 N.ar    1  UNL1       -0.2228
     37 N          -5.5663  -15.9457   24.8236 N.am    1  UNL1       -0.0815
     38 C          -4.3741  -16.6135   24.7428 C.2     1  UNL1        0.3273
     39 C          -4.1733  -17.6041   23.7782 C.2     1  UNL1        0.2046
     40 O          -2.9540  -18.2749   23.7160 O.2     1  UNL1       -0.5008
     41 C          -5.2050  -17.9086   22.8880 C.2     1  UNL1        0.0529
     42 C          -6.4142  -17.2220   22.9704 C.2     1  UNL1        0.1187
     43 C          -6.5831  -16.2336   23.9456 C.2     1  UNL1        0.4232
     44 O          -7.6752  -15.6033   23.9941 O.2     1  UNL1       -0.2135
     45 H          -2.7823  -18.9978   23.0268 H       1  UNL1        0.2924
@<TRIPOS>BOND
     1    27    28    2
     2    28    29   am
     3    29    31    1
     4    31    32   ar
     5    32    33   ar
     6    33    34   ar
     7    34    37    1
     8    37    38    1
     9    38    39    2
    10    39    40    1
    11    39    41    1
    12    41    42    2
    13    42    43    1
    14    43    44    2
    15    34    35   ar
    16    35    36   ar
    17    28     1    1
    18     1     2    1
    19     2     3    1
    20     3     4    1
    21     3    12    1
    22    12    13   ar
    23    13    14   ar
    24    14    15   ar
    25    15    16    1
    26    15    17   ar
    27    17    18   ar
    28    18    19    1
    29     3     5    1
    30     5     6    1
    31     6     7   am
    32     7     8    2
    33     7     9   am
    34     9    20    1
    35    20    21   ar
    36    21    22   ar
    37    22    23   ar
    38    23    24    1
    39    23    25   ar
    40    25    26   ar
    41    36    31   ar
    42     6     1    1
    43    26    20   ar
    44    43    37    1
    45    18    12   ar
    46    29    30    1
    47    40    45    1
    48     4    10    1
    49     9    11    1
@<TRIPOS>MOLECULE
*****
 45 49 0 0 0
SMALL
GASTEIGER

@<TRIPOS>ATOM
      1 C          -6.8880  -10.9714   30.1628 C.3     1  UNL1        0.1562
      2 C          -6.9714   -9.6368   29.4174 C.3     1  UNL1        0.0622
      3 C          -8.1619   -8.8609   30.0221 C.3     1  UNL1        0.1294
      4 O          -9.3084   -9.1492   29.2575 O.3     1  UNL1       -0.3808
      5 C          -8.3010   -9.4814   31.4344 C.3     1  UNL1        0.1264
      6 N          -7.6717  -10.7920   31.3747 N.am    1  UNL1       -0.2544
      7 C          -7.5234  -11.6408   32.5299 C.2     1  UNL1        0.3081
      8 O          -6.5755  -12.4695   32.5826 O.2     1  UNL1       -0.2522
      9 N          -8.4084  -11.5259   33.6516 N.am    1  UNL1       -0.2681
     10 H         -10.0782   -8.6800   29.6749 H       1  UNL1        0.2107
     11 H          -7.9912  -11.5407   34.6094 H       1  UNL1        0.1564
     12 C          -7.9450   -7.3365   30.0329 C.ar    1  UNL1        0.0310
     13 C          -6.6509   -6.7974   30.2183 C.ar    1  UNL1        0.0026
     14 C          -6.4500   -5.4164   30.2843 C.ar    1  UNL1        0.0295
     15 C          -7.5359   -4.5460   30.2094 C.ar    1  UNL1        0.1424
     16 F          -7.3385   -3.2065   30.2798 F       1  UNL1       -0.2041
     17 C          -8.8282   -5.0564   30.0947 C.ar    1  UNL1        0.0590
     18 C          -9.0406   -6.4375   30.0289 C.ar    1  UNL1        0.1406
     19 F         -10.3209   -6.8834   29.9955 F       1  UNL1       -0.2044
     20 C          -9.8379  -11.4917   33.5251 C.ar    1  UNL1        0.0516
     21 C         -10.5721  -12.6821   33.6305 C.ar    1  UNL1        0.0156
     22 C         -11.9658  -12.6642   33.5167 C.ar    1  UNL1        0.0127
     23 C         -12.6352  -11.4583   33.2826 C.ar    1  UNL1        0.0578
     24 CL        -14.3833  -11.4370   33.1409 Cl      1  UNL1       -0.0822
     25 C         -11.9080  -10.2709   33.1524 C.ar    1  UNL1        0.0127
     26 C         -10.5151  -10.2871   33.2655 C.ar    1  UNL1        0.0156
     27 O          -8.6601  -12.3429   29.3444 O.2     1  UNL1       -0.2730
     28 C          -7.4193  -12.1205   29.3417 C.2     1  UNL1        0.2454
     29 N          -6.5264  -12.9734   28.6035 N.am    1  UNL1       -0.2680
     30 H          -5.5000  -12.8335   28.7277 H       1  UNL1        0.1563
     31 C          -6.9507  -13.9685   27.6568 C.ar    1  UNL1        0.1346
     32 C          -6.0733  -14.3870   26.6474 C.ar    1  UNL1        0.0406
     33 C          -6.4930  -15.3429   25.7216 C.ar    1  UNL1        0.0736
     34 C          -7.7846  -15.8827   25.8042 C.ar    1  UNL1        0.2466
     35 C          -8.6356  -15.4322   26.8245 C.ar    1  UNL1        0.1691
     36 N          -8.2040  -14.4995   27.7142 N.ar    1  UNL1       -0.2228
     37 N          -8.2374  -16.8635   24.8489 N.am    1  UNL1       -0.0815
     38 C          -7.8251  -16.7569   23.5479 C.2     1  UNL1        0.3273
     39 C          -8.2306  -17.6903   22.5906 C.2     1  UNL1        0.2046
     40 O          -7.7959  -17.5661   21.2730 O.2     1  UNL1       -0.5008
     41 C          -9.0686  -18.7395   22.9729 C.2     1  UNL1        0.0529
     42 C          -9.4903  -18.8401   24.2967 C.2     1  UNL1        0.1187
     43 C          -9.0691  -17.8882   25.2309 C.2     1  UNL1        0.4232
     44 O          -9.4773  -17.9780   26.4215 O.2     1  UNL1       -0.2135
     45 H          -8.0745  -18.2293   20.5591 H       1  UNL1        0.2924
@<TRIPOS>BOND
     1    27    28    2
     2    28    29   am
     3    29    31    1
     4    31    32   ar
     5    32    33   ar
     6    33    34   ar
     7    34    37    1
     8    37    38    1
     9    38    39    2
    10    39    40    1
    11    39    41    1
    12    41    42    2
    13    42    43    1
    14    43    44    2
    15    34    35   ar
    16    35    36   ar
    17    28     1    1
    18     1     2    1
    19     2     3    1
    20     3     4    1
    21     3    12    1
    22    12    13   ar
    23    13    14   ar
    24    14    15   ar
    25    15    16    1
    26    15    17   ar
    27    17    18   ar
    28    18    19    1
    29     3     5    1
    30     5     6    1
    31     6     7   am
    32     7     8    2
    33     7     9   am
    34     9    20    1
    35    20    21   ar
    36    21    22   ar
    37    22    23   ar
    38    23    24    1
    39    23    25   ar
    40    25    26   ar
    41    36    31   ar
    42     6     1    1
    43    26    20   ar
    44    43    37    1
    45    18    12   ar
    46    29    30    1
    47    40    45    1
    48     4    10    1
    49     9    11    1
@<TRIPOS>MOLECULE
*****
 45 49 0 0 0
SMALL
GASTEIGER

@<TRIPOS>ATOM
      1 C          -8.1096  -10.7918   29.9249 C.3     1  UNL1        0.1562
      2 C          -8.9972   -9.6301   29.4704 C.3     1  UNL1        0.0622
      3 C         -10.0060   -9.3663   30.6096 C.3     1  UNL1        0.1294
      4 O         -11.1692  -10.1154   30.3488 O.3     1  UNL1       -0.3808
      5 C          -9.2817   -9.9348   31.8551 C.3     1  UNL1        0.1264
      6 N          -8.3003  -10.8900   31.3633 N.am    1  UNL1       -0.2544
      7 C          -7.3649  -11.5641   32.2279 C.2     1  UNL1        0.3081
      8 O          -6.2533  -11.9465   31.7737 O.2     1  UNL1       -0.2522
      9 N          -7.6535  -11.7652   33.6175 N.am    1  UNL1       -0.2681
     10 H         -11.7981   -9.9736   31.1047 H       1  UNL1        0.2107
     11 H          -6.8934  -11.5755   34.3090 H       1  UNL1        0.1564
     12 C         -10.3926   -7.8816   30.7407 C.ar    1  UNL1        0.0310
     13 C         -11.7197   -7.5113   31.0593 C.ar    1  UNL1        0.0026
     14 C         -12.0944   -6.1672   31.1273 C.ar    1  UNL1        0.0295
     15 C         -11.1686   -5.1662   30.8389 C.ar    1  UNL1        0.1424
     16 F         -11.5368   -3.8628   30.8998 F       1  UNL1       -0.2041
     17 C          -9.8724   -5.5086   30.4562 C.ar    1  UNL1        0.0590
     18 C          -9.4871   -6.8514   30.3839 C.ar    1  UNL1        0.1406
     19 F          -8.2394   -7.1318   29.9326 F       1  UNL1       -0.2044
     20 C          -8.8957  -12.3053   34.0925 C.ar    1  UNL1        0.0516
     21 C         -10.0226  -12.2908   33.2576 C.ar    1  UNL1        0.0156
     22 C         -11.2381  -12.8197   33.7033 C.ar    1  UNL1        0.0127
     23 C         -11.3401  -13.3544   34.9920 C.ar    1  UNL1        0.0578
     24 CL        -12.8648  -14.0183   35.5495 Cl      1  UNL1       -0.0822
     25 C         -10.2271  -13.3506   35.8387 C.ar    1  UNL1        0.0127
     26 C          -9.0118  -12.8221   35.3950 C.ar    1  UNL1        0.0156
     27 O          -9.6529  -12.5135   29.3373 O.2     1  UNL1       -0.2730
     28 C          -8.4698  -12.0888   29.2430 C.2     1  UNL1        0.2454
     29 N          -7.4753  -12.8498   28.5348 N.am    1  UNL1       -0.2680
     30 H          -6.4838  -12.5294   28.5866 H       1  UNL1        0.1563
     31 C          -7.7617  -13.9903   27.7080 C.ar    1  UNL1        0.1346
     32 C          -6.7154  -14.8160   27.2753 C.ar    1  UNL1        0.0406
     33 C          -6.9951  -15.9143   26.4614 C.ar    1  UNL1        0.0736
     34 C          -8.3166  -16.1905   26.0822 C.ar    1  UNL1        0.2466
     35 C          -9.3351  -15.3358   26.5297 C.ar    1  UNL1        0.1691
     36 N          -9.0374  -14.2717   27.3214 N.ar    1  UNL1       -0.2228
     37 N          -8.6212  -17.3154   25.2329 N.am    1  UNL1       -0.0815
     38 C          -9.3833  -18.3351   25.7363 C.2     1  UNL1        0.3273
     39 C          -9.7116  -19.4397   24.9463 C.2     1  UNL1        0.2046
     40 O         -10.4922  -20.4644   25.4766 O.2     1  UNL1       -0.5008
     41 C          -9.2507  -19.4979   23.6296 C.2     1  UNL1        0.0529
     42 C          -8.4705  -18.4607   23.1240 C.2     1  UNL1        0.1187
     43 C          -8.1566  -17.3696   23.9411 C.2     1  UNL1        0.4232
     44 O          -7.4297  -16.4482   23.4776 O.2     1  UNL1       -0.2135
     45 H         -10.7453  -21.2762   24.9253 H       1  UNL1        0.2924
@<TRIPOS>BOND
     1    27    28    2
     2    28    29   am
     3    29    31    1
     4    31    32   ar
     5    32    33   ar
     6    33    34   ar
     7    34    37    1
     8    37    38    1
     9    38    39    2
    10    39    40    1
    11    39    41    1
    12    41    42    2
    13    42    43    1
    14    43    44    2
    15    34    35   ar
    16    35    36   ar
    17    28     1    1
    18     1     2    1
    19     2     3    1
    20     3     4    1
    21     3    12    1
    22    12    13   ar
    23    13    14   ar
    24    14    15   ar
    25    15    16    1
    26    15    17   ar
    27    17    18   ar
    28    18    19    1
    29     3     5    1
    30     5     6    1
    31     6     7   am
    32     7     8    2
    33     7     9   am
    34     9    20    1
    35    20    21   ar
    36    21    22   ar
    37    22    23   ar
    38    23    24    1
    39    23    25   ar
    40    25    26   ar
    41    36    31   ar
    42     6     1    1
    43    26    20   ar
    44    43    37    1
    45    18    12   ar
    46    29    30    1
    47    40    45    1
    48     4    10    1
    49     9    11    1
@<TRIPOS>MOLECULE
*****
 45 49 0 0 0
SMALL
GASTEIGER

@<TRIPOS>ATOM
      1 C          -6.9614  -10.9699   30.1621 C.3     1  UNL1        0.1562
      2 C          -7.0627   -9.6433   29.4047 C.3     1  UNL1        0.0622
      3 C          -8.2546   -8.8718   30.0122 C.3     1  UNL1        0.1294
      4 O          -9.4050   -9.1772   29.2603 O.3     1  UNL1       -0.3808
      5 C          -8.3763   -9.4797   31.4315 C.3     1  UNL1        0.1264
      6 N          -7.7363  -10.7854   31.3790 N.am    1  UNL1       -0.2544
      7 C          -7.5709  -11.6218   32.5409 C.2     1  UNL1        0.3081
      8 O          -6.6155  -12.4418   32.5935 O.2     1  UNL1       -0.2522
      9 N          -8.4472  -11.5035   33.6691 N.am    1  UNL1       -0.2681
     10 H         -10.1753   -8.7105   29.6797 H       1  UNL1        0.2107
     11 H          -8.0217  -11.5055   34.6234 H       1  UNL1        0.1564
     12 C          -8.0506   -7.3455   30.0064 C.ar    1  UNL1        0.0310
     13 C          -6.7698   -6.7921   30.2363 C.ar    1  UNL1        0.0026
     14 C          -6.5830   -5.4085   30.2874 C.ar    1  UNL1        0.0295
     15 C          -7.6718   -4.5490   30.1530 C.ar    1  UNL1        0.1424
     16 F          -7.4884   -3.2069   30.2091 F       1  UNL1       -0.2041
     17 C          -8.9541   -5.0726   29.9935 C.ar    1  UNL1        0.0590
     18 C          -9.1523   -6.4564   29.9421 C.ar    1  UNL1        0.1406
     19 F         -10.4265   -6.9140   29.8631 F       1  UNL1       -0.2044
     20 C          -9.8780  -11.4827   33.5546 C.ar    1  UNL1        0.0516
     21 C         -10.6023  -12.6756   33.6939 C.ar    1  UNL1        0.0156
     22 C         -11.9970  -12.6705   33.5921 C.ar    1  UNL1        0.0127
     23 C         -12.6774  -11.4753   33.3363 C.ar    1  UNL1        0.0578
     24 CL        -14.4268  -11.4699   33.2098 Cl      1  UNL1       -0.0822
     25 C         -11.9603  -10.2859   33.1724 C.ar    1  UNL1        0.0127
     26 C         -10.5664  -10.2893   33.2734 C.ar    1  UNL1        0.0156
     27 O          -8.7311  -12.3509   29.3546 O.2     1  UNL1       -0.2730
     28 C          -7.4899  -12.1313   29.3567 C.2     1  UNL1        0.2454
     29 N          -6.5940  -12.9985   28.6390 N.am    1  UNL1       -0.2680
     30 H          -5.5682  -12.8589   28.7679 H       1  UNL1        0.1563
     31 C          -7.0142  -14.0083   27.7062 C.ar    1  UNL1        0.1346
     32 C          -6.1444  -14.4189   26.6871 C.ar    1  UNL1        0.0406
     33 C          -6.5603  -15.3893   25.7747 C.ar    1  UNL1        0.0736
     34 C          -7.8407  -15.9514   25.8805 C.ar    1  UNL1        0.2466
     35 C          -8.6846  -15.5082   26.9098 C.ar    1  UNL1        0.1691
     36 N          -8.2567  -14.5611   27.7861 N.ar    1  UNL1       -0.2228
     37 N          -8.2897  -16.9475   24.9394 N.am    1  UNL1       -0.0815
     38 C          -9.1334  -17.9338   25.3747 C.2     1  UNL1        0.3273
     39 C          -9.6017  -18.9136   24.4957 C.2     1  UNL1        0.2046
     40 O         -10.4632  -19.9058   24.9580 O.2     1  UNL1       -0.5008
     41 C          -9.1975  -18.8810   23.1596 C.2     1  UNL1        0.0529
     42 C          -8.3341  -17.8789   22.7230 C.2     1  UNL1        0.1187
     43 C          -7.8805  -16.9139   23.6283 C.2     1  UNL1        0.4232
     44 O          -7.0804  -16.0256   23.2247 O.2     1  UNL1       -0.2135
     45 H         -10.8181  -20.6278   24.3417 H       1  UNL1        0.2924
@<TRIPOS>BOND
     1    27    28    2
     2    28    29   am
     3    29    31    1
     4    31    32   ar
     5    32    33   ar
     6    33    34   ar
     7    34    37    1
     8    37    38    1
     9    38    39    2
    10    39    40    1
    11    39    41    1
    12    41    42    2
    13    42    43    1
    14    43    44    2
    15    34    35   ar
    16    35    36   ar
    17    28     1    1
    18     1     2    1
    19     2     3    1
    20     3     4    1
    21     3    12    1
    22    12    13   ar
    23    13    14   ar
    24    14    15   ar
    25    15    16    1
    26    15    17   ar
    27    17    18   ar
    28    18    19    1
    29     3     5    1
    30     5     6    1
    31     6     7   am
    32     7     8    2
    33     7     9   am
    34     9    20    1
    35    20    21   ar
    36    21    22   ar
    37    22    23   ar
    38    23    24    1
    39    23    25   ar
    40    25    26   ar
    41    36    31   ar
    42     6     1    1
    43    26    20   ar
    44    43    37    1
    45    18    12   ar
    46    29    30    1
    47    40    45    1
    48     4    10    1
    49     9    11    1
@<TRIPOS>MOLECULE
*****
 45 49 0 0 0
SMALL
GASTEIGER

@<TRIPOS>ATOM
      1 C          -6.7477  -11.5399   31.2111 C.3     1  UNL1        0.1562
      2 C          -5.6296  -10.5227   30.9682 C.3     1  UNL1        0.0622
      3 C          -6.2433   -9.1228   31.1892 C.3     1  UNL1        0.1294
      4 O          -6.6995   -8.6419   29.9471 O.3     1  UNL1       -0.3808
      5 C          -7.4493   -9.4134   32.1166 C.3     1  UNL1        0.1264
      6 N          -7.7824  -10.8182   31.9348 N.am    1  UNL1       -0.2544
      7 C          -8.8036  -11.4847   32.7028 C.2     1  UNL1        0.3081
      8 O          -8.7251  -12.7254   32.9087 O.2     1  UNL1       -0.2522
      9 N          -9.8887  -10.7515   33.2856 N.am    1  UNL1       -0.2681
     10 H          -7.1293   -7.7596   30.1018 H       1  UNL1        0.2107
     11 H         -10.1592  -10.9747   34.2699 H       1  UNL1        0.1564
     12 C          -5.2410   -8.1106   31.7738 C.ar    1  UNL1        0.0310
     13 C          -4.7908   -8.2359   33.1084 C.ar    1  UNL1        0.0026
     14 C          -3.9239   -7.2929   33.6663 C.ar    1  UNL1        0.0295
     15 C          -3.5211   -6.1851   32.9228 C.ar    1  UNL1        0.1424
     16 F          -2.6847   -5.2685   33.4689 F       1  UNL1       -0.2041
     17 C          -4.0058   -6.0045   31.6280 C.ar    1  UNL1        0.0590
     18 C          -4.8749   -6.9420   31.0603 C.ar    1  UNL1        0.1406
     19 F          -5.3770   -6.6796   29.8281 F       1  UNL1       -0.2044
     20 C         -10.6791   -9.8025   32.5539 C.ar    1  UNL1        0.0516
     21 C         -12.0723   -9.7895   32.7153 C.ar    1  UNL1        0.0156
     22 C         -12.8554   -8.8664   32.0150 C.ar    1  UNL1        0.0127
     23 C         -12.2533   -7.9585   31.1374 C.ar    1  UNL1        0.0578
     24 CL        -13.2363   -6.8006   30.2604 Cl      1  UNL1       -0.0822
     25 C         -10.8672   -7.9813   30.9532 C.ar    1  UNL1        0.0127
     26 C         -10.0832   -8.9034   31.6520 C.ar    1  UNL1        0.0156
     27 O          -8.0311  -11.3923   29.2056 O.2     1  UNL1       -0.2730
     28 C          -7.2892  -12.1140   29.9251 C.2     1  UNL1        0.2454
     29 N          -7.0018  -13.4716   29.5457 N.am    1  UNL1       -0.2680
     30 H          -6.4903  -14.0735   30.2273 H       1  UNL1        0.1563
     31 C          -7.3177  -14.0413   28.2642 C.ar    1  UNL1        0.1346
     32 C          -8.6288  -14.4535   27.9905 C.ar    1  UNL1        0.0406
     33 C          -8.9293  -15.0188   26.7507 C.ar    1  UNL1        0.0736
     34 C          -7.9245  -15.1698   25.7843 C.ar    1  UNL1        0.2466
     35 C          -6.6229  -14.7518   26.0994 C.ar    1  UNL1        0.1691
     36 N          -6.3548  -14.2045   27.3144 N.ar    1  UNL1       -0.2228
     37 N          -8.2163  -15.7619   24.5021 N.am    1  UNL1       -0.0815
     38 C          -7.7752  -15.1328   23.3691 C.2     1  UNL1        0.3273
     39 C          -8.0261  -15.6754   22.1063 C.2     1  UNL1        0.2046
     40 O          -7.5644  -15.0216   20.9662 O.2     1  UNL1       -0.5008
     41 C          -8.7382  -16.8722   22.0072 C.2     1  UNL1        0.0529
     42 C          -9.1902  -17.5053   23.1628 C.2     1  UNL1        0.1187
     43 C          -8.9253  -16.9352   24.4123 C.2     1  UNL1        0.4232
     44 O          -9.3606  -17.5070   25.4495 O.2     1  UNL1       -0.2135
     45 H          -7.7319  -15.3936   20.0385 H       1  UNL1        0.2924
@<TRIPOS>BOND
     1    27    28    2
     2    28    29   am
     3    29    31    1
     4    31    32   ar
     5    32    33   ar
     6    33    34   ar
     7    34    37    1
     8    37    38    1
     9    38    39    2
    10    39    40    1
    11    39    41    1
    12    41    42    2
    13    42    43    1
    14    43    44    2
    15    34    35   ar
    16    35    36   ar
    17    28     1    1
    18     1     2    1
    19     2     3    1
    20     3     4    1
    21     3    12    1
    22    12    13   ar
    23    13    14   ar
    24    14    15   ar
    25    15    16    1
    26    15    17   ar
    27    17    18   ar
    28    18    19    1
    29     3     5    1
    30     5     6    1
    31     6     7   am
    32     7     8    2
    33     7     9   am
    34     9    20    1
    35    20    21   ar
    36    21    22   ar
    37    22    23   ar
    38    23    24    1
    39    23    25   ar
    40    25    26   ar
    41    36    31   ar
    42     6     1    1
    43    26    20   ar
    44    43    37    1
    45    18    12   ar
    46    29    30    1
    47    40    45    1
    48     4    10    1
    49     9    11    1
@<TRIPOS>MOLECULE
*****
 45 49 0 0 0
SMALL
GASTEIGER

@<TRIPOS>ATOM
      1 C          -5.3341  -15.2367   23.5834 C.3     1  UNL1        0.1562
      2 C          -3.9788  -15.9487   23.5817 C.3     1  UNL1        0.0622
      3 C          -4.2669  -17.4575   23.4220 C.3     1  UNL1        0.1294
      4 O          -4.3569  -18.0261   24.7068 O.3     1  UNL1       -0.3808
      5 C          -5.6570  -17.4765   22.7392 C.3     1  UNL1        0.1264
      6 N          -6.2794  -16.1941   23.0313 N.am    1  UNL1       -0.2544
      7 C          -7.5547  -15.8024   22.4861 C.2     1  UNL1        0.3081
      8 O          -7.8168  -14.5815   22.3169 O.2     1  UNL1       -0.2522
      9 N          -8.5193  -16.7823   22.0813 N.am    1  UNL1       -0.2681
     10 H          -4.5823  -18.9877   24.5988 H       1  UNL1        0.2107
     11 H          -9.0122  -16.6389   21.1712 H       1  UNL1        0.1564
     12 C          -3.1756  -18.1990   22.6281 C.ar    1  UNL1        0.0310
     13 C          -1.9431  -17.5678   22.3415 C.ar    1  UNL1        0.0026
     14 C          -0.9671  -18.2104   21.5758 C.ar    1  UNL1        0.0295
     15 C          -1.2134  -19.4752   21.0449 C.ar    1  UNL1        0.1424
     16 F          -0.2668  -20.0938   20.2970 F       1  UNL1       -0.2041
     17 C          -2.4472  -20.0890   21.2571 C.ar    1  UNL1        0.0590
     18 C          -3.4317  -19.4539   22.0214 C.ar    1  UNL1        0.1406
     19 F          -4.6399  -20.0596   22.1327 F       1  UNL1       -0.2044
     20 C          -8.9090  -17.8901   22.9069 C.ar    1  UNL1        0.0516
     21 C          -8.7108  -19.2005   22.4479 C.ar    1  UNL1        0.0156
     22 C          -9.0786  -20.2902   23.2435 C.ar    1  UNL1        0.0127
     23 C          -9.6601  -20.0784   24.4980 C.ar    1  UNL1        0.0578
     24 CL        -10.1201  -21.4459   25.4954 Cl      1  UNL1       -0.0822
     25 C          -9.8828  -18.7746   24.9523 C.ar    1  UNL1        0.0127
     26 C          -9.5163  -17.6845   24.1583 C.ar    1  UNL1        0.0156
     27 O          -4.8929  -14.2647   25.7169 O.2     1  UNL1       -0.2730
     28 C          -5.7515  -14.8026   24.9670 C.2     1  UNL1        0.2454
     29 N          -7.0903  -15.0353   25.4396 N.am    1  UNL1       -0.2680
     30 H          -7.7328  -15.5944   24.8372 H       1  UNL1        0.1563
     31 C          -7.6255  -14.4979   26.6608 C.ar    1  UNL1        0.1346
     32 C          -8.9757  -14.7003   26.9767 C.ar    1  UNL1        0.0406
     33 C          -9.4956  -14.1656   28.1560 C.ar    1  UNL1        0.0736
     34 C          -8.6695  -13.4329   29.0203 C.ar    1  UNL1        0.2466
     35 C          -7.3253  -13.2458   28.6648 C.ar    1  UNL1        0.1691
     36 N          -6.8422  -13.7761   27.5101 N.ar    1  UNL1       -0.2228
     37 N          -9.1937  -12.8646   30.2376 N.am    1  UNL1       -0.0815
     38 C         -10.4098  -13.2945   30.6963 C.2     1  UNL1        0.3273
     39 C         -10.9518  -12.7791   31.8764 C.2     1  UNL1        0.2046
     40 O         -12.1887  -13.2335   32.3281 O.2     1  UNL1       -0.5008
     41 C         -10.2395  -11.8125   32.5891 C.2     1  UNL1        0.0529
     42 C          -9.0053  -11.3741   32.1150 C.2     1  UNL1        0.1187
     43 C          -8.4910  -11.9074   30.9286 C.2     1  UNL1        0.4232
     44 O          -7.3828  -11.4844   30.4984 O.2     1  UNL1       -0.2135
     45 H         -12.6042  -12.8770   33.1809 H       1  UNL1        0.2924
@<TRIPOS>BOND
     1    27    28    2
     2    28    29   am
     3    29    31    1
     4    31    32   ar
     5    32    33   ar
     6    33    34   ar
     7    34    37    1
     8    37    38    1
     9    38    39    2
    10    39    40    1
    11    39    41    1
    12    41    42    2
    13    42    43    1
    14    43    44    2
    15    34    35   ar
    16    35    36   ar
    17    28     1    1
    18     1     2    1
    19     2     3    1
    20     3     4    1
    21     3    12    1
    22    12    13   ar
    23    13    14   ar
    24    14    15   ar
    25    15    16    1
    26    15    17   ar
    27    17    18   ar
    28    18    19    1
    29     3     5    1
    30     5     6    1
    31     6     7   am
    32     7     8    2
    33     7     9   am
    34     9    20    1
    35    20    21   ar
    36    21    22   ar
    37    22    23   ar
    38    23    24    1
    39    23    25   ar
    40    25    26   ar
    41    36    31   ar
    42     6     1    1
    43    26    20   ar
    44    43    37    1
    45    18    12   ar
    46    29    30    1
    47    40    45    1
    48     4    10    1
    49     9    11    1
@<TRIPOS>MOLECULE
*****
 45 49 0 0 0
SMALL
GASTEIGER

@<TRIPOS>ATOM
      1 C          -8.5259  -11.1561   30.2520 C.3     1  UNL1        0.1562
      2 C          -9.0423   -9.8954   29.5534 C.3     1  UNL1        0.0622
      3 C         -10.3999   -9.5490   30.2030 C.3     1  UNL1        0.1294
      4 O         -11.4177  -10.1618   29.4476 O.3     1  UNL1       -0.3808
      5 C         -10.3012  -10.2197   31.5956 C.3     1  UNL1        0.1264
      6 N          -9.2948  -11.2645   31.4817 N.am    1  UNL1       -0.2544
      7 C          -8.8584  -12.0547   32.6050 C.2     1  UNL1        0.3081
      8 O          -7.6976  -12.5451   32.6146 O.2     1  UNL1       -0.2522
      9 N          -9.7056  -12.2537   33.7440 N.am    1  UNL1       -0.2681
     10 H         -12.2847   -9.9694   29.8928 H       1  UNL1        0.2107
     11 H          -9.2802  -12.1626   34.6940 H       1  UNL1        0.1564
     12 C         -10.6711   -8.0344   30.2617 C.ar    1  UNL1        0.0310
     13 C          -9.7386   -7.1173   29.7241 C.ar    1  UNL1        0.0026
     14 C          -9.9481   -5.7394   29.8201 C.ar    1  UNL1        0.0295
     15 C         -11.0668   -5.2456   30.4888 C.ar    1  UNL1        0.1424
     16 F         -11.2643   -3.9078   30.5856 F       1  UNL1       -0.2041
     17 C         -11.9649   -6.1293   31.0858 C.ar    1  UNL1        0.0590
     18 C         -11.7639   -7.5107   30.9966 C.ar    1  UNL1        0.1406
     19 F         -12.6241   -8.3229   31.6596 F       1  UNL1       -0.2044
     20 C         -11.0767  -12.6665   33.6417 C.ar    1  UNL1        0.0516
     21 C         -12.0074  -11.8297   33.0086 C.ar    1  UNL1        0.0156
     22 C         -13.3452  -12.2208   32.8947 C.ar    1  UNL1        0.0127
     23 C         -13.7658  -13.4451   33.4250 C.ar    1  UNL1        0.0578
     24 CL        -15.4438  -13.9351   33.2806 Cl      1  UNL1       -0.0822
     25 C         -12.8485  -14.2739   34.0787 C.ar    1  UNL1        0.0127
     26 C         -11.5113  -13.8844   34.1938 C.ar    1  UNL1        0.0156
     27 O          -9.8060  -12.9803   29.4009 O.2     1  UNL1       -0.2730
     28 C          -8.6916  -12.3912   29.4012 C.2     1  UNL1        0.2454
     29 N          -7.5896  -12.9134   28.6380 N.am    1  UNL1       -0.2680
     30 H          -6.6530  -12.4713   28.7634 H       1  UNL1        0.1563
     31 C          -7.7015  -13.9662   27.6656 C.ar    1  UNL1        0.1346
     32 C          -6.5456  -14.4877   27.0690 C.ar    1  UNL1        0.0406
     33 C          -6.6585  -15.5000   26.1153 C.ar    1  UNL1        0.0736
     34 C          -7.9219  -15.9935   25.7594 C.ar    1  UNL1        0.2466
     35 C          -9.0553  -15.4400   26.3736 C.ar    1  UNL1        0.1691
     36 N          -8.9196  -14.4541   27.2995 N.ar    1  UNL1       -0.2228
     37 N          -8.0564  -17.0319   24.7679 N.am    1  UNL1       -0.0815
     38 C          -7.2990  -16.9598   23.6298 C.2     1  UNL1        0.3273
     39 C          -7.3892  -17.9488   22.6470 C.2     1  UNL1        0.2046
     40 O          -6.6062  -17.8588   21.4984 O.2     1  UNL1       -0.5008
     41 C          -8.2667  -19.0186   22.8342 C.2     1  UNL1        0.0529
     42 C          -9.0396  -19.0842   23.9912 C.2     1  UNL1        0.1187
     43 C          -8.9286  -18.0768   24.9552 C.2     1  UNL1        0.4232
     44 O          -9.6516  -18.1366   25.9877 O.2     1  UNL1       -0.2135
     45 H          -6.6517  -18.5625   20.7706 H       1  UNL1        0.2924
@<TRIPOS>BOND
     1    27    28    2
     2    28    29   am
     3    29    31    1
     4    31    32   ar
     5    32    33   ar
     6    33    34   ar
     7    34    37    1
     8    37    38    1
     9    38    39    2
    10    39    40    1
    11    39    41    1
    12    41    42    2
    13    42    43    1
    14    43    44    2
    15    34    35   ar
    16    35    36   ar
    17    28     1    1
    18     1     2    1
    19     2     3    1
    20     3     4    1
    21     3    12    1
    22    12    13   ar
    23    13    14   ar
    24    14    15   ar
    25    15    16    1
    26    15    17   ar
    27    17    18   ar
    28    18    19    1
    29     3     5    1
    30     5     6    1
    31     6     7   am
    32     7     8    2
    33     7     9   am
    34     9    20    1
    35    20    21   ar
    36    21    22   ar
    37    22    23   ar
    38    23    24    1
    39    23    25   ar
    40    25    26   ar
    41    36    31   ar
    42     6     1    1
    43    26    20   ar
    44    43    37    1
    45    18    12   ar
    46    29    30    1
    47    40    45    1
    48     4    10    1
    49     9    11    1
