@<TRIPOS>MOLECULE
*****
 40 44 0 0 0
SMALL
GASTEIGER

@<TRIPOS>ATOM
      1 C         -23.2857   -7.8304  -10.5704 C.2     1  UNL1        0.2493
      2 O         -24.3053   -7.1151  -10.3743 O.2     1  UNL1       -0.2699
      3 N         -23.0626   -8.4351  -11.8619 N.am    1  UNL1       -0.2680
      4 C         -22.2619   -9.6575  -11.9875 C.3     1  UNL1        0.1412
      5 C         -20.8289   -9.3008  -12.3747 C.3     1  UNL1        0.2268
      6 O         -20.7845   -8.1358  -13.1976 O.3     1  UNL1       -0.4739
      7 C         -21.5498   -8.0046  -14.3594 C.ar    1  UNL1        0.1362
      8 C         -20.8787   -7.8937  -15.5803 C.ar    1  UNL1        0.0366
      9 C         -21.5895   -7.7906  -16.7756 C.ar    1  UNL1        0.0031
     10 C         -22.9928   -7.7812  -16.7696 C.ar    1  UNL1       -0.0000
     11 C         -23.6690   -7.8638  -15.5400 C.ar    1  UNL1        0.0004
     12 C         -22.9663   -7.9786  -14.3274 C.ar    1  UNL1        0.0317
     13 C         -23.7736   -7.9183  -13.0407 C.3     1  UNL1        0.1236
     14 C         -23.7519   -7.6682  -18.0408 C.ar    1  UNL1        0.0015
     15 C         -24.4156   -6.4548  -18.3769 C.ar    1  UNL1        0.0016
     16 C         -25.1372   -6.3359  -19.5794 C.ar    1  UNL1        0.0206
     17 C         -25.1778   -7.4410  -20.4226 C.ar    1  UNL1        0.0985
     18 N         -25.7995   -7.5484  -21.6106 N.ar    1  UNL1       -0.2241
     19 C         -25.5108   -8.8218  -21.9883 C.ar    1  UNL1        0.1750
     20 N         -24.7468   -9.4915  -21.0921 N.ar    1  UNL1       -0.3349
     21 C         -24.5472   -8.6050  -20.1099 C.ar    1  UNL1        0.0757
     22 C         -23.8230   -8.7668  -18.9321 C.ar    1  UNL1        0.0185
     23 H         -24.3965  -10.4731  -21.1561 H       1  UNL1        0.1675
     24 C         -21.1515   -7.2262   -9.4042 C.ar    1  UNL1       -0.0163
     25 C         -20.2651   -7.3804   -8.3286 C.ar    1  UNL1        0.0142
     26 C         -20.5340   -8.2891   -7.3050 C.ar    1  UNL1        0.1056
     27 C         -21.6961   -9.0617   -7.3505 C.ar    1  UNL1        0.0249
     28 C         -22.5952   -8.9559   -8.4249 C.ar    1  UNL1        0.0808
     29 C         -22.3269   -8.0190   -9.4605 C.ar    1  UNL1        0.0559
     30 S         -19.4258   -8.4410   -5.9447 S.O2    1  UNL1        0.0104
     31 C         -20.3463   -8.8491   -4.4794 C.3     1  UNL1        0.1816
     32 O         -18.6941   -7.1450   -5.7339 O.2     1  UNL1       -0.1686
     33 O         -18.4197   -9.5220   -6.2248 O.2     1  UNL1       -0.1686
     34 C         -23.7922   -9.8399   -8.4242 C.2     1  UNL1        0.3382
     35 O         -23.6771  -11.0925   -8.3476 O.2     1  UNL1       -0.2451
     36 O         -25.0671   -9.2827   -8.4867 O.3     1  UNL1       -0.4771
     37 H         -25.8925   -9.8701   -8.4835 H       1  UNL1        0.2954
     38 C         -20.7960   -6.2295  -10.4874 C.3     1  UNL1        0.0265
     39 C         -22.3629   -4.4377  -11.3244 C.3     1  UNL1        0.0004
     40 C         -21.4300   -4.8652  -10.1955 C.3     1  UNL1        0.0047
@<TRIPOS>BOND
     1    39    40    1
     2    40    38    1
     3    38    24    1
     4    24    25   ar
     5    25    26   ar
     6    26    30    1
     7    30    31    1
     8    30    32    2
     9    30    33    2
    10    26    27   ar
    11    27    28   ar
    12    28    34    1
    13    34    35    2
    14    34    36    1
    15    28    29   ar
    16    29     1    1
    17     1     2    2
    18     1     3   am
    19     3     4    1
    20     4     5    1
    21     5     6    1
    22     6     7    1
    23     7     8   ar
    24     8     9   ar
    25     9    10   ar
    26    10    14    1
    27    14    15   ar
    28    15    16   ar
    29    16    17   ar
    30    17    18   ar
    31    18    19   ar
    32    19    20   ar
    33    20    21   ar
    34    21    22   ar
    35    10    11   ar
    36    11    12   ar
    37    12    13    1
    38    29    24   ar
    39    13     3    1
    40    12     7   ar
    41    22    14   ar
    42    21    17   ar
    43    36    37    1
    44    20    23    1
@<TRIPOS>MOLECULE
*****
 40 44 0 0 0
SMALL
GASTEIGER

@<TRIPOS>ATOM
      1 C         -23.1667   -7.6369  -10.6982 C.2     1  UNL1        0.2493
      2 O         -24.1916   -6.9311  -10.4953 O.2     1  UNL1       -0.2699
      3 N         -22.9607   -8.2623  -11.9826 N.am    1  UNL1       -0.2680
      4 C         -22.1467   -9.4766  -12.1016 C.3     1  UNL1        0.1412
      5 C         -20.7262   -9.1090  -12.5231 C.3     1  UNL1        0.2268
      6 O         -20.7129   -7.9589  -13.3677 O.3     1  UNL1       -0.4739
      7 C         -21.5021   -7.8587  -14.5166 C.ar    1  UNL1        0.1362
      8 C         -20.8562   -7.7619  -15.7522 C.ar    1  UNL1        0.0366
      9 C         -21.5913   -7.6899  -16.9351 C.ar    1  UNL1        0.0031
     10 C         -22.9942   -7.6982  -16.9018 C.ar    1  UNL1       -0.0000
     11 C         -23.6454   -7.7667  -15.6579 C.ar    1  UNL1        0.0004
     12 C         -22.9180   -7.8502  -14.4574 C.ar    1  UNL1        0.0317
     13 C         -23.7010   -7.7765  -13.1564 C.3     1  UNL1        0.1236
     14 C         -23.7791   -7.6182  -18.1598 C.ar    1  UNL1        0.0015
     15 C         -24.4907   -6.4305  -18.4894 C.ar    1  UNL1        0.0016
     16 C         -25.2372   -6.3431  -19.6794 C.ar    1  UNL1        0.0206
     17 C         -25.2539   -7.4532  -20.5168 C.ar    1  UNL1        0.0985
     18 N         -25.8924   -7.5884  -21.6930 N.ar    1  UNL1       -0.2241
     19 C         -25.5660   -8.8529  -22.0700 C.ar    1  UNL1        0.1750
     20 N         -24.7633   -9.4909  -21.1845 N.ar    1  UNL1       -0.3349
     21 C         -24.5775   -8.5929  -20.2101 C.ar    1  UNL1        0.0757
     22 C         -23.8275   -8.7233  -19.0447 C.ar    1  UNL1        0.0185
     23 H         -24.3801  -10.4599  -21.2504 H       1  UNL1        0.1675
     24 C         -22.2191   -8.9527   -8.7876 C.ar    1  UNL1       -0.0163
     25 C         -21.2607   -9.1152   -7.7769 C.ar    1  UNL1        0.0142
     26 C         -20.2632   -8.1606   -7.5772 C.ar    1  UNL1        0.1056
     27 C         -20.2181   -7.0242   -8.3871 C.ar    1  UNL1        0.0249
     28 C         -21.1765   -6.8120   -9.3922 C.ar    1  UNL1        0.0808
     29 C         -22.1842   -7.7928   -9.6040 C.ar    1  UNL1        0.0559
     30 S         -19.0474   -8.4018   -6.3261 S.O2    1  UNL1        0.0104
     31 C         -19.8556   -8.6807   -4.7672 C.3     1  UNL1        0.1816
     32 O         -18.1683   -7.1867   -6.2262 O.2     1  UNL1       -0.1686
     33 O         -18.1912   -9.5887   -6.6689 O.2     1  UNL1       -0.1686
     34 C         -21.0876   -5.5587  -10.1894 C.2     1  UNL1        0.3382
     35 O         -20.9928   -4.4345   -9.6277 O.2     1  UNL1       -0.2451
     36 O         -21.0859   -5.6192  -11.5808 O.3     1  UNL1       -0.4771
     37 H         -21.0223   -4.7758  -12.1384 H       1  UNL1        0.2954
     38 C         -23.2807  -10.0209   -8.9456 C.3     1  UNL1        0.0265
     39 C         -25.7940  -10.2203   -9.0443 C.3     1  UNL1        0.0004
     40 C         -24.6120   -9.5522   -8.3486 C.3     1  UNL1        0.0047
@<TRIPOS>BOND
     1    39    40    1
     2    40    38    1
     3    38    24    1
     4    24    25   ar
     5    25    26   ar
     6    26    30    1
     7    30    31    1
     8    30    32    2
     9    30    33    2
    10    26    27   ar
    11    27    28   ar
    12    28    34    1
    13    34    35    2
    14    34    36    1
    15    28    29   ar
    16    29     1    1
    17     1     2    2
    18     1     3   am
    19     3     4    1
    20     4     5    1
    21     5     6    1
    22     6     7    1
    23     7     8   ar
    24     8     9   ar
    25     9    10   ar
    26    10    14    1
    27    14    15   ar
    28    15    16   ar
    29    16    17   ar
    30    17    18   ar
    31    18    19   ar
    32    19    20   ar
    33    20    21   ar
    34    21    22   ar
    35    10    11   ar
    36    11    12   ar
    37    12    13    1
    38    29    24   ar
    39    13     3    1
    40    12     7   ar
    41    22    14   ar
    42    21    17   ar
    43    36    37    1
    44    20    23    1
@<TRIPOS>MOLECULE
*****
 40 44 0 0 0
SMALL
GASTEIGER

@<TRIPOS>ATOM
      1 C         -20.8618   -7.7686  -10.9400 C.2     1  UNL1        0.2493
      2 O         -20.2268   -6.8477  -11.5219 O.2     1  UNL1       -0.2699
      3 N         -22.3050   -7.7551  -10.9241 N.am    1  UNL1       -0.2680
      4 C         -23.0478   -8.4299   -9.8545 C.3     1  UNL1        0.1412
      5 C         -23.4844   -9.8162  -10.3217 C.3     1  UNL1        0.2268
      6 O         -23.7552   -9.8341  -11.7227 O.3     1  UNL1       -0.4739
      7 C         -24.6199   -8.9227  -12.3345 C.ar    1  UNL1        0.1362
      8 C         -25.7810   -9.4180  -12.9344 C.ar    1  UNL1        0.0366
      9 C         -26.6961   -8.5533  -13.5338 C.ar    1  UNL1        0.0031
     10 C         -26.4572   -7.1706  -13.5575 C.ar    1  UNL1       -0.0000
     11 C         -25.2759   -6.6737  -12.9799 C.ar    1  UNL1        0.0004
     12 C         -24.3487   -7.5320  -12.3627 C.ar    1  UNL1        0.0317
     13 C         -23.0364   -6.9254  -11.8929 C.3     1  UNL1        0.1236
     14 C         -27.4286   -6.2481  -14.1982 C.ar    1  UNL1        0.0015
     15 C         -26.9726   -5.0937  -14.8946 C.ar    1  UNL1        0.0016
     16 C         -27.8840   -4.2129  -15.5065 C.ar    1  UNL1        0.0206
     17 C         -29.2388   -4.5100  -15.4063 C.ar    1  UNL1        0.0985
     18 N         -30.2741   -3.8157  -15.9118 N.ar    1  UNL1       -0.2241
     19 C         -31.3494   -4.5497  -15.5213 C.ar    1  UNL1        0.1750
     20 N         -31.0203   -5.6523  -14.8060 N.ar    1  UNL1       -0.3349
     21 C         -29.6844   -5.6105  -14.7425 C.ar    1  UNL1        0.0757
     22 C         -28.8191   -6.5078  -14.1228 C.ar    1  UNL1        0.0185
     23 H         -31.6634   -6.3674  -14.3995 H       1  UNL1        0.1675
     24 C         -19.9507  -10.1029  -10.9613 C.ar    1  UNL1       -0.0163
     25 C         -19.1927  -11.1204  -10.3640 C.ar    1  UNL1        0.0142
     26 C         -18.5678  -10.9180   -9.1333 C.ar    1  UNL1        0.1056
     27 C         -18.7009   -9.6907   -8.4810 C.ar    1  UNL1        0.0249
     28 C         -19.4740   -8.6561   -9.0339 C.ar    1  UNL1        0.0808
     29 C         -20.0988   -8.8589  -10.2951 C.ar    1  UNL1        0.0559
     30 S         -17.5904  -12.1965   -8.4179 S.O2    1  UNL1        0.0104
     31 C         -15.9316  -12.0910   -9.0491 C.3     1  UNL1        0.1816
     32 O         -18.1740  -13.5387   -8.7603 O.2     1  UNL1       -0.1686
     33 O         -17.5707  -12.0472   -6.9224 O.2     1  UNL1       -0.1686
     34 C         -19.6019   -7.3902   -8.2623 C.2     1  UNL1        0.3382
     35 O         -20.6751   -6.7295   -8.2675 O.2     1  UNL1       -0.2451
     36 O         -18.5308   -6.9300   -7.5002 O.3     1  UNL1       -0.4771
     37 H         -18.6025   -6.0722   -6.9662 H       1  UNL1        0.2954
     38 C         -20.6109  -10.3904  -12.2933 C.3     1  UNL1        0.0265
     39 C         -21.7915  -12.1384  -13.6779 C.3     1  UNL1        0.0004
     40 C         -21.0686  -11.8511  -12.3655 C.3     1  UNL1        0.0047
@<TRIPOS>BOND
     1    39    40    1
     2    40    38    1
     3    38    24    1
     4    24    25   ar
     5    25    26   ar
     6    26    30    1
     7    30    31    1
     8    30    32    2
     9    30    33    2
    10    26    27   ar
    11    27    28   ar
    12    28    34    1
    13    34    35    2
    14    34    36    1
    15    28    29   ar
    16    29     1    1
    17     1     2    2
    18     1     3   am
    19     3     4    1
    20     4     5    1
    21     5     6    1
    22     6     7    1
    23     7     8   ar
    24     8     9   ar
    25     9    10   ar
    26    10    14    1
    27    14    15   ar
    28    15    16   ar
    29    16    17   ar
    30    17    18   ar
    31    18    19   ar
    32    19    20   ar
    33    20    21   ar
    34    21    22   ar
    35    10    11   ar
    36    11    12   ar
    37    12    13    1
    38    29    24   ar
    39    13     3    1
    40    12     7   ar
    41    22    14   ar
    42    21    17   ar
    43    36    37    1
    44    20    23    1
@<TRIPOS>MOLECULE
*****
 40 44 0 0 0
SMALL
GASTEIGER

@<TRIPOS>ATOM
      1 C         -23.0744  -11.3456  -12.7019 C.2     1  UNL1        0.2493
      2 O         -24.0147  -12.1854  -12.6861 O.2     1  UNL1       -0.2699
      3 N         -23.2552  -10.0678  -13.3484 N.am    1  UNL1       -0.2680
      4 C         -22.1041   -9.3239  -13.8705 C.3     1  UNL1        0.1412
      5 C         -21.6612   -8.2743  -12.8543 C.3     1  UNL1        0.2268
      6 O         -22.7685   -7.7667  -12.1109 O.3     1  UNL1       -0.4739
      7 C         -23.9182   -7.2605  -12.7231 C.ar    1  UNL1        0.1362
      8 C         -24.2235   -5.9097  -12.5348 C.ar    1  UNL1        0.0366
      9 C         -25.3411   -5.3415  -13.1453 C.ar    1  UNL1        0.0031
     10 C         -26.1869   -6.1227  -13.9476 C.ar    1  UNL1       -0.0000
     11 C         -25.8972   -7.4880  -14.1147 C.ar    1  UNL1        0.0004
     12 C         -24.7683   -8.0729  -13.5140 C.ar    1  UNL1        0.0317
     13 C         -24.6133   -9.5806  -13.6318 C.3     1  UNL1        0.1236
     14 C         -27.3794   -5.5207  -14.5961 C.ar    1  UNL1        0.0015
     15 C         -28.6825   -6.0131  -14.3041 C.ar    1  UNL1        0.0016
     16 C         -29.8200   -5.4496  -14.9120 C.ar    1  UNL1        0.0206
     17 C         -29.6254   -4.4001  -15.8033 C.ar    1  UNL1        0.0985
     18 N         -30.5599   -3.7181  -16.4896 N.ar    1  UNL1       -0.2241
     19 C         -29.8219   -2.8183  -17.1919 C.ar    1  UNL1        0.1750
     20 N         -28.4897   -2.9189  -16.9673 N.ar    1  UNL1       -0.3349
     21 C         -28.3841   -3.9230  -16.0891 C.ar    1  UNL1        0.0757
     22 C         -27.2323   -4.4500  -15.5118 C.ar    1  UNL1        0.0185
     23 H         -27.7246   -2.3440  -17.3849 H       1  UNL1        0.1675
     24 C         -21.5081  -11.1552  -10.7551 C.ar    1  UNL1       -0.0163
     25 C         -20.3179  -11.5190  -10.1089 C.ar    1  UNL1        0.0142
     26 C         -19.4289  -12.4169  -10.7000 C.ar    1  UNL1        0.1056
     27 C         -19.7203  -12.9582  -11.9536 C.ar    1  UNL1        0.0249
     28 C         -20.8890  -12.5976  -12.6448 C.ar    1  UNL1        0.0808
     29 C         -21.8011  -11.6931  -12.0349 C.ar    1  UNL1        0.0559
     30 S         -17.9574  -12.8886   -9.8552 S.O2    1  UNL1        0.0104
     31 C         -17.1914  -11.4437   -9.1575 C.3     1  UNL1        0.1816
     32 O         -17.0062  -13.5482  -10.8140 O.2     1  UNL1       -0.1686
     33 O         -18.2883  -13.8622   -8.7589 O.2     1  UNL1       -0.1686
     34 C         -21.1127  -13.1852  -13.9936 C.2     1  UNL1        0.3382
     35 O         -21.3993  -14.4043  -14.1338 O.2     1  UNL1       -0.2451
     36 O         -21.0281  -12.3781  -15.1255 O.3     1  UNL1       -0.4771
     37 H         -21.1812  -12.7614  -16.0506 H       1  UNL1        0.2954
     38 C         -22.4252  -10.1685  -10.0634 C.3     1  UNL1        0.0265
     39 C         -22.4393   -7.9919   -8.7873 C.3     1  UNL1        0.0004
     40 C         -21.6221   -9.2244   -9.1624 C.3     1  UNL1        0.0047
@<TRIPOS>BOND
     1    39    40    1
     2    40    38    1
     3    38    24    1
     4    24    25   ar
     5    25    26   ar
     6    26    30    1
     7    30    31    1
     8    30    32    2
     9    30    33    2
    10    26    27   ar
    11    27    28   ar
    12    28    34    1
    13    34    35    2
    14    34    36    1
    15    28    29   ar
    16    29     1    1
    17     1     2    2
    18     1     3   am
    19     3     4    1
    20     4     5    1
    21     5     6    1
    22     6     7    1
    23     7     8   ar
    24     8     9   ar
    25     9    10   ar
    26    10    14    1
    27    14    15   ar
    28    15    16   ar
    29    16    17   ar
    30    17    18   ar
    31    18    19   ar
    32    19    20   ar
    33    20    21   ar
    34    21    22   ar
    35    10    11   ar
    36    11    12   ar
    37    12    13    1
    38    29    24   ar
    39    13     3    1
    40    12     7   ar
    41    22    14   ar
    42    21    17   ar
    43    36    37    1
    44    20    23    1
@<TRIPOS>MOLECULE
*****
 40 44 0 0 0
SMALL
GASTEIGER

@<TRIPOS>ATOM
      1 C         -21.0761   -7.6195  -11.1235 C.2     1  UNL1        0.2493
      2 O         -20.4712   -6.6972  -11.7345 O.2     1  UNL1       -0.2699
      3 N         -22.5187   -7.6329  -11.0772 N.am    1  UNL1       -0.2680
      4 C         -23.2259   -8.3027   -9.9807 C.3     1  UNL1        0.1412
      5 C         -23.6455   -9.7049  -10.4147 C.3     1  UNL1        0.2268
      6 O         -23.9451   -9.7526  -11.8091 O.3     1  UNL1       -0.4739
      7 C         -24.8397   -8.8684  -12.4181 C.ar    1  UNL1        0.1362
      8 C         -26.0034   -9.3960  -12.9846 C.ar    1  UNL1        0.0366
      9 C         -26.9472   -8.5593  -13.5792 C.ar    1  UNL1        0.0031
     10 C         -26.7354   -7.1730  -13.6317 C.ar    1  UNL1       -0.0000
     11 C         -25.5521   -6.6439  -13.0878 C.ar    1  UNL1        0.0004
     12 C         -24.5959   -7.4736  -12.4758 C.ar    1  UNL1        0.0317
     13 C         -23.2859   -6.8342  -12.0444 C.3     1  UNL1        0.1236
     14 C         -27.7375   -6.2803  -14.2674 C.ar    1  UNL1        0.0015
     15 C         -29.1260   -6.5806  -14.1805 C.ar    1  UNL1        0.0016
     16 C         -30.0848   -5.7413  -14.7784 C.ar    1  UNL1        0.0206
     17 C         -29.6284   -4.6143  -15.4532 C.ar    1  UNL1        0.0985
     18 N         -30.3605   -3.6824  -16.0896 N.ar    1  UNL1       -0.2241
     19 C         -29.4160   -2.8242  -16.5576 C.ar    1  UNL1        0.1750
     20 N         -28.1503   -3.1868  -16.2382 N.ar    1  UNL1       -0.3349
     21 C         -28.3036   -4.3192  -15.5421 C.ar    1  UNL1        0.0757
     22 C         -27.3216   -5.1208  -14.9666 C.ar    1  UNL1        0.0185
     23 H         -27.2624   -2.6939  -16.4810 H       1  UNL1        0.1675
     24 C         -20.1208   -9.9362  -11.1242 C.ar    1  UNL1       -0.0163
     25 C         -19.3312  -10.9286  -10.5257 C.ar    1  UNL1        0.0142
     26 C         -18.6850  -10.6930   -9.3121 C.ar    1  UNL1        0.1056
     27 C         -18.8281   -9.4572   -8.6782 C.ar    1  UNL1        0.0249
     28 C         -19.6323   -8.4472   -9.2322 C.ar    1  UNL1        0.0808
     29 C         -20.2791   -8.6838  -10.4764 C.ar    1  UNL1        0.0559
     30 S         -17.6685  -11.9401   -8.5958 S.O2    1  UNL1        0.0104
     31 C         -17.2559  -11.4766   -6.9296 C.3     1  UNL1        0.1816
     32 O         -16.4087  -12.0976   -9.4002 O.2     1  UNL1       -0.1686
     33 O         -18.4013  -13.2524   -8.5866 O.2     1  UNL1       -0.1686
     34 C         -19.7685   -7.1707   -8.4798 C.2     1  UNL1        0.3382
     35 O         -20.8074   -6.4640   -8.5782 O.2     1  UNL1       -0.2451
     36 O         -18.7458   -6.7513   -7.6325 O.3     1  UNL1       -0.4771
     37 H         -18.8241   -5.8868   -7.1103 H       1  UNL1        0.2954
     38 C         -20.8029  -10.2593  -12.4370 C.3     1  UNL1        0.0265
     39 C         -21.6278  -12.1564  -13.8816 C.3     1  UNL1        0.0004
     40 C         -21.2474  -11.7255  -12.4684 C.3     1  UNL1        0.0047
@<TRIPOS>BOND
     1    39    40    1
     2    40    38    1
     3    38    24    1
     4    24    25   ar
     5    25    26   ar
     6    26    30    1
     7    30    31    1
     8    30    32    2
     9    30    33    2
    10    26    27   ar
    11    27    28   ar
    12    28    34    1
    13    34    35    2
    14    34    36    1
    15    28    29   ar
    16    29     1    1
    17     1     2    2
    18     1     3   am
    19     3     4    1
    20     4     5    1
    21     5     6    1
    22     6     7    1
    23     7     8   ar
    24     8     9   ar
    25     9    10   ar
    26    10    14    1
    27    14    15   ar
    28    15    16   ar
    29    16    17   ar
    30    17    18   ar
    31    18    19   ar
    32    19    20   ar
    33    20    21   ar
    34    21    22   ar
    35    10    11   ar
    36    11    12   ar
    37    12    13    1
    38    29    24   ar
    39    13     3    1
    40    12     7   ar
    41    22    14   ar
    42    21    17   ar
    43    36    37    1
    44    20    23    1
@<TRIPOS>MOLECULE
*****
 40 44 0 0 0
SMALL
GASTEIGER

@<TRIPOS>ATOM
      1 C         -23.6879  -10.2454  -11.7889 C.2     1  UNL1        0.2493
      2 O         -24.6119  -11.0669  -11.5418 O.2     1  UNL1       -0.2699
      3 N         -23.9172   -9.1498  -12.7002 N.am    1  UNL1       -0.2680
      4 C         -22.8015   -8.5353  -13.4273 C.3     1  UNL1        0.1412
      5 C         -22.3361   -7.2785  -12.6963 C.3     1  UNL1        0.2268
      6 O         -23.4210   -6.6237  -12.0402 O.3     1  UNL1       -0.4739
      7 C         -24.6033   -6.2792  -12.7006 C.ar    1  UNL1        0.1362
      8 C         -24.9243   -4.9234  -12.8109 C.ar    1  UNL1        0.0366
      9 C         -26.0756   -4.5179  -13.4852 C.ar    1  UNL1        0.0031
     10 C         -26.9395   -5.4678  -14.0515 C.ar    1  UNL1       -0.0000
     11 C         -26.6329   -6.8330  -13.9165 C.ar    1  UNL1        0.0004
     12 C         -25.4705   -7.2569  -13.2484 C.ar    1  UNL1        0.0317
     13 C         -25.2940   -8.7506  -13.0274 C.3     1  UNL1        0.1236
     14 C         -28.1678   -5.0385  -14.7671 C.ar    1  UNL1        0.0015
     15 C         -29.4027   -5.7097  -14.5428 C.ar    1  UNL1        0.0016
     16 C         -30.5734   -5.3110  -15.2147 C.ar    1  UNL1        0.0206
     17 C         -30.4800   -4.2432  -16.1008 C.ar    1  UNL1        0.0985
     18 N         -31.4624   -3.6985  -16.8408 N.ar    1  UNL1       -0.2241
     19 C         -30.8211   -2.7029  -17.5079 C.ar    1  UNL1        0.1750
     20 N         -29.5021   -2.6155  -17.2110 N.ar    1  UNL1       -0.3349
     21 C         -29.3044   -3.5959  -16.3222 C.ar    1  UNL1        0.0757
     22 C         -28.1230   -3.9566  -15.6802 C.ar    1  UNL1        0.0185
     23 H         -28.8039   -1.9381  -17.5903 H       1  UNL1        0.1675
     24 C         -21.3793  -11.2183  -11.7267 C.ar    1  UNL1       -0.0163
     25 C         -20.1293  -11.3504  -11.1052 C.ar    1  UNL1        0.0142
     26 C         -19.8543  -10.6939   -9.9054 C.ar    1  UNL1        0.1056
     27 C         -20.8349   -9.8991   -9.3087 C.ar    1  UNL1        0.0249
     28 C         -22.1084   -9.7636   -9.8862 C.ar    1  UNL1        0.0808
     29 C         -22.3827  -10.4220  -11.1165 C.ar    1  UNL1        0.0559
     30 S         -18.2656  -10.8440   -9.1603 S.O2    1  UNL1        0.0104
     31 C         -17.7261  -12.5350   -9.2621 C.3     1  UNL1        0.1816
     32 O         -18.3353  -10.4246   -7.7186 O.2     1  UNL1       -0.1686
     33 O         -17.2824   -9.9579   -9.8726 O.2     1  UNL1       -0.1686
     34 C         -23.1147   -8.9316   -9.1724 C.2     1  UNL1        0.3382
     35 O         -23.1310   -7.6778   -9.2983 O.2     1  UNL1       -0.2451
     36 O         -24.0733   -9.5406   -8.3661 O.3     1  UNL1       -0.4771
     37 H         -24.7677   -8.9892   -7.8762 H       1  UNL1        0.2954
     38 C         -21.6167  -11.9649  -13.0226 C.3     1  UNL1        0.0265
     39 C         -20.8388  -13.8784  -14.4716 C.3     1  UNL1        0.0004
     40 C         -20.6918  -13.1827  -13.1218 C.3     1  UNL1        0.0047
@<TRIPOS>BOND
     1    39    40    1
     2    40    38    1
     3    38    24    1
     4    24    25   ar
     5    25    26   ar
     6    26    30    1
     7    30    31    1
     8    30    32    2
     9    30    33    2
    10    26    27   ar
    11    27    28   ar
    12    28    34    1
    13    34    35    2
    14    34    36    1
    15    28    29   ar
    16    29     1    1
    17     1     2    2
    18     1     3   am
    19     3     4    1
    20     4     5    1
    21     5     6    1
    22     6     7    1
    23     7     8   ar
    24     8     9   ar
    25     9    10   ar
    26    10    14    1
    27    14    15   ar
    28    15    16   ar
    29    16    17   ar
    30    17    18   ar
    31    18    19   ar
    32    19    20   ar
    33    20    21   ar
    34    21    22   ar
    35    10    11   ar
    36    11    12   ar
    37    12    13    1
    38    29    24   ar
    39    13     3    1
    40    12     7   ar
    41    22    14   ar
    42    21    17   ar
    43    36    37    1
    44    20    23    1
@<TRIPOS>MOLECULE
*****
 40 44 0 0 0
SMALL
GASTEIGER

@<TRIPOS>ATOM
      1 C         -23.2051  -11.1281  -12.9543 C.2     1  UNL1        0.2493
      2 O         -24.1306  -11.9672  -13.1246 O.2     1  UNL1       -0.2699
      3 N         -23.3265   -9.7959  -13.4965 N.am    1  UNL1       -0.2680
      4 C         -22.1324   -9.0048  -13.8117 C.3     1  UNL1        0.1412
      5 C         -21.8216   -8.0537  -12.6586 C.3     1  UNL1        0.2268
      6 O         -23.0129   -7.6194  -12.0040 O.3     1  UNL1       -0.4739
      7 C         -24.0912   -7.0602  -12.6951 C.ar    1  UNL1        0.1362
      8 C         -24.4327   -5.7333  -12.4192 C.ar    1  UNL1        0.0366
      9 C         -25.4799   -5.1125  -13.0992 C.ar    1  UNL1        0.0031
     10 C         -26.2186   -5.8169  -14.0623 C.ar    1  UNL1       -0.0000
     11 C         -25.8949   -7.1602  -14.3203 C.ar    1  UNL1        0.0004
     12 C         -24.8351   -7.7968  -13.6502 C.ar    1  UNL1        0.0317
     13 C         -24.6490   -9.2867  -13.8882 C.3     1  UNL1        0.1236
     14 C         -27.3364   -5.1590  -14.7853 C.ar    1  UNL1        0.0015
     15 C         -28.6856   -5.4212  -14.4154 C.ar    1  UNL1        0.0016
     16 C         -29.7529   -4.8026  -15.0930 C.ar    1  UNL1        0.0206
     17 C         -29.4430   -3.9308  -16.1311 C.ar    1  UNL1        0.0985
     18 N         -30.2955   -3.2353  -16.9051 N.ar    1  UNL1       -0.2241
     19 C         -29.4624   -2.5567  -17.7375 C.ar    1  UNL1        0.1750
     20 N         -28.1502   -2.8042  -17.5088 N.ar    1  UNL1       -0.3349
     21 C         -28.1570   -3.6743  -16.4923 C.ar    1  UNL1        0.0757
     22 C         -27.0713   -4.2636  -15.8504 C.ar    1  UNL1        0.0185
     23 H         -27.3263   -2.4061  -18.0117 H       1  UNL1        0.1675
     24 C         -21.0384  -12.3749  -12.7784 C.ar    1  UNL1       -0.0163
     25 C         -19.8895  -12.7248  -12.0545 C.ar    1  UNL1        0.0142
     26 C         -19.6839  -12.2418  -10.7621 C.ar    1  UNL1        0.1056
     27 C         -20.6341  -11.4040  -10.1751 C.ar    1  UNL1        0.0249
     28 C         -21.8108  -11.0525  -10.8574 C.ar    1  UNL1        0.0808
     29 C         -22.0124  -11.5342  -12.1802 C.ar    1  UNL1        0.0559
     30 S         -18.2167  -12.6641   -9.8842 S.O2    1  UNL1        0.0104
     31 C         -17.4646  -11.1832   -9.2499 C.3     1  UNL1        0.1816
     32 O         -17.2540  -13.3628  -10.8030 O.2     1  UNL1       -0.1686
     33 O         -18.5513  -13.5865   -8.7455 O.2     1  UNL1       -0.1686
     34 C         -22.7956  -10.1877  -10.1528 C.2     1  UNL1        0.3382
     35 O         -23.9958  -10.5463  -10.0142 O.2     1  UNL1       -0.2451
     36 O         -22.3896   -8.9692   -9.6142 O.3     1  UNL1       -0.4771
     37 H         -23.0465   -8.3703   -9.1283 H       1  UNL1        0.2954
     38 C         -21.2057  -12.9409  -14.1729 C.3     1  UNL1        0.0265
     39 C         -22.7426  -14.6539  -15.2073 C.3     1  UNL1        0.0004
     40 C         -21.7148  -14.3850  -14.1124 C.3     1  UNL1        0.0047
@<TRIPOS>BOND
     1    39    40    1
     2    40    38    1
     3    38    24    1
     4    24    25   ar
     5    25    26   ar
     6    26    30    1
     7    30    31    1
     8    30    32    2
     9    30    33    2
    10    26    27   ar
    11    27    28   ar
    12    28    34    1
    13    34    35    2
    14    34    36    1
    15    28    29   ar
    16    29     1    1
    17     1     2    2
    18     1     3   am
    19     3     4    1
    20     4     5    1
    21     5     6    1
    22     6     7    1
    23     7     8   ar
    24     8     9   ar
    25     9    10   ar
    26    10    14    1
    27    14    15   ar
    28    15    16   ar
    29    16    17   ar
    30    17    18   ar
    31    18    19   ar
    32    19    20   ar
    33    20    21   ar
    34    21    22   ar
    35    10    11   ar
    36    11    12   ar
    37    12    13    1
    38    29    24   ar
    39    13     3    1
    40    12     7   ar
    41    22    14   ar
    42    21    17   ar
    43    36    37    1
    44    20    23    1
@<TRIPOS>MOLECULE
*****
 40 44 0 0 0
SMALL
GASTEIGER

@<TRIPOS>ATOM
      1 C         -25.0579   -7.6770  -10.6138 C.2     1  UNL1        0.2493
      2 O         -25.6076   -7.2085   -9.5803 O.2     1  UNL1       -0.2699
      3 N         -25.7358   -7.6142  -11.8865 N.am    1  UNL1       -0.2680
      4 C         -25.4307   -8.5823  -12.9453 C.3     1  UNL1        0.1412
      5 C         -24.4267   -7.9797  -13.9249 C.3     1  UNL1        0.2268
      6 O         -24.6021   -6.5692  -14.0512 O.3     1  UNL1       -0.4739
      7 C         -25.8376   -5.9871  -14.3469 C.ar    1  UNL1        0.1362
      8 C         -25.9636   -5.2855  -15.5491 C.ar    1  UNL1        0.0366
      9 C         -27.1805   -4.7092  -15.9118 C.ar    1  UNL1        0.0031
     10 C         -28.2958   -4.8120  -15.0663 C.ar    1  UNL1       -0.0000
     11 C         -28.1629   -5.4928  -13.8437 C.ar    1  UNL1        0.0004
     12 C         -26.9453   -6.0879  -13.4688 C.ar    1  UNL1        0.0317
     13 C         -26.8542   -6.6777  -12.0706 C.3     1  UNL1        0.1236
     14 C         -29.5918   -4.1963  -15.4489 C.ar    1  UNL1        0.0015
     15 C         -29.6670   -3.3106  -16.5606 C.ar    1  UNL1        0.0016
     16 C         -30.8900   -2.7219  -16.9329 C.ar    1  UNL1        0.0206
     17 C         -32.0159   -3.0354  -16.1793 C.ar    1  UNL1        0.0985
     18 N         -33.2743   -2.5942  -16.3557 N.ar    1  UNL1       -0.2241
     19 C         -33.9541   -3.2123  -15.3540 C.ar    1  UNL1        0.1750
     20 N         -33.1741   -4.0049  -14.5802 N.ar    1  UNL1       -0.3349
     21 C         -31.9539   -3.8802  -15.1150 C.ar    1  UNL1        0.0757
     22 C         -30.7664   -4.4842  -14.7115 C.ar    1  UNL1        0.0185
     23 H         -33.4620   -4.5791  -13.7569 H       1  UNL1        0.1675
     24 C         -22.5734   -7.5280  -10.9046 C.ar    1  UNL1       -0.0163
     25 C         -21.2935   -8.0799  -10.7509 C.ar    1  UNL1        0.0142
     26 C         -21.1226   -9.3418  -10.1812 C.ar    1  UNL1        0.1056
     27 C         -22.2373  -10.0710   -9.7630 C.ar    1  UNL1        0.0249
     28 C         -23.5375   -9.5640   -9.9249 C.ar    1  UNL1        0.0808
     29 C         -23.7093   -8.2716  -10.4927 C.ar    1  UNL1        0.0559
     30 S         -19.5041  -10.0011   -9.9639 S.O2    1  UNL1        0.0104
     31 C         -19.4805  -11.6929  -10.5101 C.3     1  UNL1        0.1816
     32 O         -19.1158   -9.9360   -8.5133 O.2     1  UNL1       -0.1686
     33 O         -18.5153   -9.1999  -10.7636 O.2     1  UNL1       -0.1686
     34 C         -24.6786  -10.4151   -9.4913 C.2     1  UNL1        0.3382
     35 O         -25.1943  -11.2602  -10.2711 O.2     1  UNL1       -0.2451
     36 O         -25.1788  -10.2994   -8.1966 O.3     1  UNL1       -0.4771
     37 H         -25.9526  -10.8737   -7.8844 H       1  UNL1        0.2954
     38 C         -22.6904   -6.1580  -11.5390 C.3     1  UNL1        0.0265
     39 C         -21.7064   -5.0626   -9.4901 C.3     1  UNL1        0.0004
     40 C         -21.6031   -5.2201  -11.0041 C.3     1  UNL1        0.0047
@<TRIPOS>BOND
     1    39    40    1
     2    40    38    1
     3    38    24    1
     4    24    25   ar
     5    25    26   ar
     6    26    30    1
     7    30    31    1
     8    30    32    2
     9    30    33    2
    10    26    27   ar
    11    27    28   ar
    12    28    34    1
    13    34    35    2
    14    34    36    1
    15    28    29   ar
    16    29     1    1
    17     1     2    2
    18     1     3   am
    19     3     4    1
    20     4     5    1
    21     5     6    1
    22     6     7    1
    23     7     8   ar
    24     8     9   ar
    25     9    10   ar
    26    10    14    1
    27    14    15   ar
    28    15    16   ar
    29    16    17   ar
    30    17    18   ar
    31    18    19   ar
    32    19    20   ar
    33    20    21   ar
    34    21    22   ar
    35    10    11   ar
    36    11    12   ar
    37    12    13    1
    38    29    24   ar
    39    13     3    1
    40    12     7   ar
    41    22    14   ar
    42    21    17   ar
    43    36    37    1
    44    20    23    1
