@<TRIPOS>MOLECULE
*****
 29 31 0 0 0
SMALL
GASTEIGER

@<TRIPOS>ATOM
      1 C          46.0965   12.7815  -26.0807 C.ar    1  UNL1        0.1385
      2 C          47.3575   12.1865  -25.8795 C.ar    1  UNL1        0.0366
      3 C          47.7307   11.7372  -24.6094 C.ar    1  UNL1       -0.0011
      4 C          46.8576   11.8803  -23.5204 C.ar    1  UNL1       -0.0206
      5 C          45.6014   12.4725  -23.7215 C.ar    1  UNL1       -0.0011
      6 C          45.2286   12.9212  -24.9914 C.ar    1  UNL1        0.0366
      7 O          45.6671   13.2508  -27.3332 O.3     1  UNL1       -0.4750
      8 C          46.3226   14.2507  -28.1134 C.3     1  UNL1        0.2117
      9 C          46.1785   15.6264  -27.4576 C.3     1  UNL1        0.0931
     10 C          50.0492   17.3321  -26.7254 C.ar    1  UNL1        0.0090
     11 C          49.7790   16.0129  -26.3274 C.ar    1  UNL1       -0.0003
     12 C          48.5248   15.4485  -26.5533 C.ar    1  UNL1        0.0146
     13 C          47.5277   16.2141  -27.1649 C.ar    1  UNL1        0.0641
     14 N          47.7986   17.4920  -27.5417 N.ar    1  UNL1       -0.2356
     15 C          49.0107   18.0768  -27.3364 C.ar    1  UNL1        0.1209
     16 N          49.1893   19.4370  -27.7469 N.pl3   1  UNL1       -0.3429
     17 H          48.4039   19.9415  -28.2147 H       1  UNL1        0.1437
     18 H          50.0673   19.9711  -27.5728 H       1  UNL1        0.1437
     19 C          51.5513   18.3290  -24.9903 C.3     1  UNL1        0.0051
     20 C          51.4173   17.9118  -26.4519 C.3     1  UNL1        0.0292
     21 C          47.2554   11.3706  -22.1584 C.3     1  UNL1        0.0468
     22 C          48.6201   10.6646  -22.1967 C.3     1  UNL1        0.1369
     23 S          48.5767    9.1001  -21.2199 S.3     1  UNL1       -0.0482
     24 C          49.8020    9.7545  -20.0991 C.2     1  UNL1        0.2792
     25 O          50.1872    9.1279  -19.0780 O.2     1  UNL1       -0.2625
     26 N          50.3086   11.0308  -20.4270 N.am    1  UNL1       -0.2460
     27 C          49.6823   11.5334  -21.5915 C.2     1  UNL1        0.2392
     28 O          50.0142   12.6418  -22.0896 O.2     1  UNL1       -0.2737
     29 H          51.0457   11.5342  -19.8849 H       1  UNL1        0.1583
@<TRIPOS>BOND
     1    19    20    1
     2    20    10    1
     3    10    11   ar
     4    11    12   ar
     5    12    13   ar
     6    13     9    1
     7     9     8    1
     8     8     7    1
     9     7     1    1
    10     1     2   ar
    11     2     3   ar
    12     3     4   ar
    13     4    21    1
    14    21    22    1
    15    22    23    1
    16    23    24    1
    17    24    25    2
    18    24    26   am
    19    26    27   am
    20    27    28    2
    21     4     5   ar
    22     5     6   ar
    23    13    14   ar
    24    14    15   ar
    25    15    16    1
    26    15    10   ar
    27     6     1   ar
    28    27    22    1
    29    26    29    1
    30    16    17    1
    31    16    18    1
@<TRIPOS>MOLECULE
*****
 29 31 0 0 0
SMALL
GASTEIGER

@<TRIPOS>ATOM
      1 C          46.4363   13.5278  -23.7565 C.ar    1  UNL1        0.1385
      2 C          46.5737   12.7141  -22.6147 C.ar    1  UNL1        0.0366
      3 C          47.5780   12.9768  -21.6784 C.ar    1  UNL1       -0.0011
      4 C          48.4641   14.0479  -21.8686 C.ar    1  UNL1       -0.0206
      5 C          48.3264   14.8584  -23.0058 C.ar    1  UNL1       -0.0011
      6 C          47.3221   14.5957  -23.9415 C.ar    1  UNL1        0.0366
      7 O          45.4469   13.3127  -24.7303 O.3     1  UNL1       -0.4750
      8 C          45.2893   12.1231  -25.5037 C.3     1  UNL1        0.2117
      9 C          46.5992   11.7611  -26.2085 C.3     1  UNL1        0.0931
     10 C          46.2449   11.9998  -30.4799 C.ar    1  UNL1        0.0090
     11 C          46.0689   13.1524  -29.6975 C.ar    1  UNL1       -0.0003
     12 C          46.1750   13.0882  -28.3092 C.ar    1  UNL1        0.0146
     13 C          46.4408   11.8596  -27.6973 C.ar    1  UNL1        0.0641
     14 N          46.6044   10.7490  -28.4642 N.ar    1  UNL1       -0.2356
     15 C          46.5068   10.7731  -29.8218 C.ar    1  UNL1        0.1209
     16 N          46.6706    9.5444  -30.5387 N.pl3   1  UNL1       -0.3429
     17 H          46.8856    8.6669  -30.0151 H       1  UNL1        0.1437
     18 H          46.5540    9.4709  -31.5718 H       1  UNL1        0.1437
     19 C          45.3158   13.3520  -32.3691 C.3     1  UNL1        0.0051
     20 C          46.1099   12.1082  -31.9807 C.3     1  UNL1        0.0292
     21 C          49.5288   14.3418  -20.8424 C.3     1  UNL1        0.0468
     22 C          50.5958   13.2361  -20.8039 C.3     1  UNL1        0.1369
     23 S          50.3364   12.1248  -19.3542 S.3     1  UNL1       -0.0482
     24 C          51.9155   12.6163  -18.6828 C.2     1  UNL1        0.2792
     25 O          52.3291   12.2142  -17.5644 O.2     1  UNL1       -0.2625
     26 N          52.6722   13.4969  -19.4859 N.am    1  UNL1       -0.2460
     27 C          51.9667   13.8285  -20.6662 C.2     1  UNL1        0.2392
     28 O          52.4750   14.5691  -21.5494 O.2     1  UNL1       -0.2737
     29 H          53.6232   13.8533  -19.2427 H       1  UNL1        0.1583
@<TRIPOS>BOND
     1    19    20    1
     2    20    10    1
     3    10    11   ar
     4    11    12   ar
     5    12    13   ar
     6    13     9    1
     7     9     8    1
     8     8     7    1
     9     7     1    1
    10     1     2   ar
    11     2     3   ar
    12     3     4   ar
    13     4    21    1
    14    21    22    1
    15    22    23    1
    16    23    24    1
    17    24    25    2
    18    24    26   am
    19    26    27   am
    20    27    28    2
    21     4     5   ar
    22     5     6   ar
    23    13    14   ar
    24    14    15   ar
    25    15    16    1
    26    15    10   ar
    27     6     1   ar
    28    27    22    1
    29    26    29    1
    30    16    17    1
    31    16    18    1
@<TRIPOS>MOLECULE
*****
 29 31 0 0 0
SMALL
GASTEIGER

@<TRIPOS>ATOM
      1 C          46.0030   14.4229  -24.7189 C.ar    1  UNL1        0.1385
      2 C          45.4827   13.1273  -24.5305 C.ar    1  UNL1        0.0366
      3 C          45.9034   12.3490  -23.4482 C.ar    1  UNL1       -0.0011
      4 C          46.8529   12.8457  -22.5425 C.ar    1  UNL1       -0.0206
      5 C          47.3704   14.1365  -22.7303 C.ar    1  UNL1       -0.0011
      6 C          46.9493   14.9144  -23.8122 C.ar    1  UNL1        0.0366
      7 O          45.6178   15.2503  -25.7868 O.3     1  UNL1       -0.4750
      8 C          46.4056   15.5319  -26.9437 C.3     1  UNL1        0.2117
      9 C          45.6130   15.2381  -28.2199 C.3     1  UNL1        0.0931
     10 C          46.4732   11.3287  -29.7707 C.ar    1  UNL1        0.0090
     11 C          46.5680   11.5708  -28.3908 C.ar    1  UNL1       -0.0003
     12 C          46.2976   12.8367  -27.8742 C.ar    1  UNL1        0.0146
     13 C          45.9476   13.8729  -28.7451 C.ar    1  UNL1        0.0641
     14 N          45.8637   13.6287  -30.0799 N.ar    1  UNL1       -0.2356
     15 C          46.1216   12.4061  -30.6203 C.ar    1  UNL1        0.1209
     16 N          46.0302   12.2563  -32.0416 N.pl3   1  UNL1       -0.3429
     17 H          45.7450   13.0715  -32.6284 H       1  UNL1        0.1437
     18 H          46.2675   11.3691  -32.5345 H       1  UNL1        0.1437
     19 C          47.8702    9.2774  -29.4525 C.3     1  UNL1        0.0051
     20 C          46.7861    9.9460  -30.2928 C.3     1  UNL1        0.0292
     21 C          47.2834   12.0116  -21.3627 C.3     1  UNL1        0.0468
     22 C          48.4944   11.1299  -21.7071 C.3     1  UNL1        0.1369
     23 S          48.3519    9.4762  -20.9015 S.3     1  UNL1       -0.0482
     24 C          49.8249    9.8031  -19.9481 C.2     1  UNL1        0.2792
     25 O          50.2577    9.0040  -19.0776 O.2     1  UNL1       -0.2625
     26 N          50.4730   11.0258  -20.2269 N.am    1  UNL1       -0.2460
     27 C          49.7631   11.7556  -21.2089 C.2     1  UNL1        0.2392
     28 O          50.1876   12.8599  -21.6416 O.2     1  UNL1       -0.2737
     29 H          51.3564   11.3469  -19.7717 H       1  UNL1        0.1583
@<TRIPOS>BOND
     1    19    20    1
     2    20    10    1
     3    10    11   ar
     4    11    12   ar
     5    12    13   ar
     6    13     9    1
     7     9     8    1
     8     8     7    1
     9     7     1    1
    10     1     2   ar
    11     2     3   ar
    12     3     4   ar
    13     4    21    1
    14    21    22    1
    15    22    23    1
    16    23    24    1
    17    24    25    2
    18    24    26   am
    19    26    27   am
    20    27    28    2
    21     4     5   ar
    22     5     6   ar
    23    13    14   ar
    24    14    15   ar
    25    15    16    1
    26    15    10   ar
    27     6     1   ar
    28    27    22    1
    29    26    29    1
    30    16    17    1
    31    16    18    1
@<TRIPOS>MOLECULE
*****
 29 31 0 0 0
SMALL
GASTEIGER

@<TRIPOS>ATOM
      1 C          50.3628   10.4158  -26.8442 C.ar    1  UNL1        0.1385
      2 C          50.1445    9.3604  -27.7515 C.ar    1  UNL1        0.0366
      3 C          51.1171    9.0345  -28.7012 C.ar    1  UNL1       -0.0011
      4 C          52.3171    9.7586  -28.7666 C.ar    1  UNL1       -0.0206
      5 C          52.5342   10.8095  -27.8623 C.ar    1  UNL1       -0.0011
      6 C          51.5619   11.1348  -26.9127 C.ar    1  UNL1        0.0366
      7 O          49.4230   10.7881  -25.8688 O.3     1  UNL1       -0.4750
      8 C          48.6613   11.9957  -25.8692 C.3     1  UNL1        0.2117
      9 C          47.1719   11.6933  -26.0522 C.3     1  UNL1        0.0931
     10 C          46.1707   11.9613  -30.2180 C.ar    1  UNL1        0.0090
     11 C          45.9921   13.0753  -29.3821 C.ar    1  UNL1       -0.0003
     12 C          46.3072   13.0006  -28.0265 C.ar    1  UNL1        0.0146
     13 C          46.7870   11.7982  -27.4986 C.ar    1  UNL1        0.0641
     14 N          46.9514   10.7243  -28.3160 N.ar    1  UNL1       -0.2356
     15 C          46.6533   10.7597  -29.6439 C.ar    1  UNL1        0.1209
     16 N          46.8376    9.5676  -30.4156 N.pl3   1  UNL1       -0.3429
     17 H          47.2178    8.7102  -29.9567 H       1  UNL1        0.1437
     18 H          46.5788    9.4987  -31.4229 H       1  UNL1        0.1437
     19 C          45.8105   13.5373  -32.1277 C.3     1  UNL1        0.0051
     20 C          45.8061   12.0788  -31.6794 C.3     1  UNL1        0.0292
     21 C          53.3729    9.3859  -29.7762 C.3     1  UNL1        0.0468
     22 C          53.7217    7.8908  -29.7018 C.3     1  UNL1        0.1369
     23 S          55.5447    7.6493  -29.5522 S.3     1  UNL1       -0.0482
     24 C          55.5701    6.7965  -31.1199 C.2     1  UNL1        0.2792
     25 O          56.6369    6.3975  -31.6550 O.2     1  UNL1       -0.2625
     26 N          54.3117    6.6045  -31.7302 N.am    1  UNL1       -0.2460
     27 C          53.2837    7.1828  -30.9492 C.2     1  UNL1        0.2392
     28 O          52.0730    7.0913  -31.2851 O.2     1  UNL1       -0.2737
     29 H          54.1603    6.1030  -32.6335 H       1  UNL1        0.1583
@<TRIPOS>BOND
     1    19    20    1
     2    20    10    1
     3    10    11   ar
     4    11    12   ar
     5    12    13   ar
     6    13     9    1
     7     9     8    1
     8     8     7    1
     9     7     1    1
    10     1     2   ar
    11     2     3   ar
    12     3     4   ar
    13     4    21    1
    14    21    22    1
    15    22    23    1
    16    23    24    1
    17    24    25    2
    18    24    26   am
    19    26    27   am
    20    27    28    2
    21     4     5   ar
    22     5     6   ar
    23    13    14   ar
    24    14    15   ar
    25    15    16    1
    26    15    10   ar
    27     6     1   ar
    28    27    22    1
    29    26    29    1
    30    16    17    1
    31    16    18    1
@<TRIPOS>MOLECULE
*****
 29 31 0 0 0
SMALL
GASTEIGER

@<TRIPOS>ATOM
      1 C          50.5843    9.7474  -25.0526 C.ar    1  UNL1        0.1385
      2 C          49.6569   10.7924  -24.8720 C.ar    1  UNL1        0.0366
      3 C          48.8263   10.8117  -23.7478 C.ar    1  UNL1       -0.0011
      4 C          48.9014    9.7878  -22.7914 C.ar    1  UNL1       -0.0206
      5 C          49.8258    8.7475  -22.9715 C.ar    1  UNL1       -0.0011
      6 C          50.6562    8.7288  -24.0953 C.ar    1  UNL1        0.0366
      7 O          51.4442    9.6755  -26.1611 O.3     1  UNL1       -0.4750
      8 C          51.0471    9.7910  -27.5276 C.3     1  UNL1        0.2117
      9 C          52.1041    9.1777  -28.4496 C.3     1  UNL1        0.0931
     10 C          50.2830    6.8977  -31.5981 C.ar    1  UNL1        0.0090
     11 C          49.4945    7.3960  -30.5486 C.ar    1  UNL1       -0.0003
     12 C          50.0734    8.1325  -29.5166 C.ar    1  UNL1        0.0146
     13 C          51.4533    8.3571  -29.5241 C.ar    1  UNL1        0.0641
     14 N          52.2081    7.8657  -30.5425 N.ar    1  UNL1       -0.2356
     15 C          51.6780    7.1414  -31.5661 C.ar    1  UNL1        0.1209
     16 N          52.5608    6.6460  -32.5789 N.pl3   1  UNL1       -0.3429
     17 H          53.5797    6.8689  -32.5286 H       1  UNL1        0.1437
     18 H          52.2404    6.0372  -33.3619 H       1  UNL1        0.1437
     19 C          48.1017    6.2327  -32.6277 C.3     1  UNL1        0.0051
     20 C          49.6199    6.0935  -32.6917 C.3     1  UNL1        0.0292
     21 C          48.0211    9.8276  -21.5681 C.3     1  UNL1        0.0468
     22 C          48.2130   11.1314  -20.7771 C.3     1  UNL1        0.1369
     23 S          49.1976   10.8307  -19.2461 S.3     1  UNL1       -0.0482
     24 C          47.8056   11.3223  -18.2428 C.2     1  UNL1        0.2792
     25 O          47.8262   11.2690  -16.9857 O.2     1  UNL1       -0.2625
     26 N          46.6698   11.7688  -18.9525 N.am    1  UNL1       -0.2460
     27 C          46.8888   11.6895  -20.3478 C.2     1  UNL1        0.2392
     28 O          46.0201   12.0795  -21.1724 O.2     1  UNL1       -0.2737
     29 H          45.7893   12.1120  -18.5083 H       1  UNL1        0.1583
@<TRIPOS>BOND
     1    19    20    1
     2    20    10    1
     3    10    11   ar
     4    11    12   ar
     5    12    13   ar
     6    13     9    1
     7     9     8    1
     8     8     7    1
     9     7     1    1
    10     1     2   ar
    11     2     3   ar
    12     3     4   ar
    13     4    21    1
    14    21    22    1
    15    22    23    1
    16    23    24    1
    17    24    25    2
    18    24    26   am
    19    26    27   am
    20    27    28    2
    21     4     5   ar
    22     5     6   ar
    23    13    14   ar
    24    14    15   ar
    25    15    16    1
    26    15    10   ar
    27     6     1   ar
    28    27    22    1
    29    26    29    1
    30    16    17    1
    31    16    18    1
@<TRIPOS>MOLECULE
*****
 29 31 0 0 0
SMALL
GASTEIGER

@<TRIPOS>ATOM
      1 C          50.4857    9.6015  -24.7445 C.ar    1  UNL1        0.1385
      2 C          50.6641    8.6275  -23.7423 C.ar    1  UNL1        0.0366
      3 C          49.8462    8.6244  -22.6086 C.ar    1  UNL1       -0.0011
      4 C          48.8445    9.5944  -22.4525 C.ar    1  UNL1       -0.0206
      5 C          48.6670   10.5639  -23.4513 C.ar    1  UNL1       -0.0011
      6 C          49.4845   10.5666  -24.5847 C.ar    1  UNL1        0.0366
      7 O          51.2762    9.6540  -25.9046 O.3     1  UNL1       -0.4750
      8 C          50.7822    9.7045  -27.2431 C.3     1  UNL1        0.2117
      9 C          51.8825    9.3271  -28.2382 C.3     1  UNL1        0.0931
     10 C          50.3256    7.0048  -31.4957 C.ar    1  UNL1        0.0090
     11 C          49.4525    7.5250  -30.5269 C.ar    1  UNL1       -0.0003
     12 C          49.9448    8.2756  -29.4606 C.ar    1  UNL1        0.0146
     13 C          51.3217    8.4923  -29.3518 C.ar    1  UNL1        0.0641
     14 N          52.1585    7.9797  -30.2927 N.ar    1  UNL1       -0.2356
     15 C          51.7142    7.2412  -31.3465 C.ar    1  UNL1        0.1209
     16 N          52.6782    6.7239  -32.2706 N.pl3   1  UNL1       -0.3429
     17 H          53.6903    6.9420  -32.1356 H       1  UNL1        0.1437
     18 H          52.4227    6.1039  -33.0685 H       1  UNL1        0.1437
     19 C          48.2301    6.1536  -32.5655 C.3     1  UNL1        0.0051
     20 C          49.7543    6.1861  -32.6296 C.3     1  UNL1        0.0292
     21 C          47.9489    9.5703  -21.2400 C.3     1  UNL1        0.0468
     22 C          48.4576   10.5201  -20.1438 C.3     1  UNL1        0.1369
     23 S          48.4381   12.2691  -20.7308 S.3     1  UNL1       -0.0482
     24 C          50.2131   12.3549  -20.5638 C.2     1  UNL1        0.2792
     25 O          50.8756   13.3696  -20.9031 O.2     1  UNL1       -0.2625
     26 N          50.8321   11.2027  -20.0326 N.am    1  UNL1       -0.2460
     27 C          49.8745   10.1935  -19.7767 C.2     1  UNL1        0.2392
     28 O          50.2022    9.0930  -19.2585 O.2     1  UNL1       -0.2737
     29 H          51.8564   11.1088  -19.8520 H       1  UNL1        0.1583
@<TRIPOS>BOND
     1    19    20    1
     2    20    10    1
     3    10    11   ar
     4    11    12   ar
     5    12    13   ar
     6    13     9    1
     7     9     8    1
     8     8     7    1
     9     7     1    1
    10     1     2   ar
    11     2     3   ar
    12     3     4   ar
    13     4    21    1
    14    21    22    1
    15    22    23    1
    16    23    24    1
    17    24    25    2
    18    24    26   am
    19    26    27   am
    20    27    28    2
    21     4     5   ar
    22     5     6   ar
    23    13    14   ar
    24    14    15   ar
    25    15    16    1
    26    15    10   ar
    27     6     1   ar
    28    27    22    1
    29    26    29    1
    30    16    17    1
    31    16    18    1
@<TRIPOS>MOLECULE
*****
 29 31 0 0 0
SMALL
GASTEIGER

@<TRIPOS>ATOM
      1 C          51.2752   11.9004  -23.9497 C.ar    1  UNL1        0.1385
      2 C          50.8615   12.7273  -22.8868 C.ar    1  UNL1        0.0366
      3 C          50.4717   14.0473  -23.1308 C.ar    1  UNL1       -0.0011
      4 C          50.4950   14.5656  -24.4345 C.ar    1  UNL1       -0.0206
      5 C          50.9066   13.7413  -25.4930 C.ar    1  UNL1       -0.0011
      6 C          51.2959   12.4216  -25.2487 C.ar    1  UNL1        0.0366
      7 O          51.6772   10.5671  -23.7654 O.3     1  UNL1       -0.4750
      8 C          51.2020    9.4468  -24.5120 C.3     1  UNL1        0.2117
      9 C          50.4142    8.4932  -23.6101 C.3     1  UNL1        0.0931
     10 C          48.3207   10.5923  -20.5055 C.ar    1  UNL1        0.0090
     11 C          47.7899   10.5533  -21.8048 C.ar    1  UNL1       -0.0003
     12 C          48.4620    9.8807  -22.8239 C.ar    1  UNL1        0.0146
     13 C          49.6826    9.2580  -22.5466 C.ar    1  UNL1        0.0641
     14 N          50.1899    9.3063  -21.2861 N.ar    1  UNL1       -0.2356
     15 C          49.5626    9.9544  -20.2664 C.ar    1  UNL1        0.1209
     16 N          50.1910    9.9694  -18.9797 N.pl3   1  UNL1       -0.3429
     17 H          51.0956    9.4664  -18.8420 H       1  UNL1        0.1437
     18 H          49.8026   10.4912  -18.1653 H       1  UNL1        0.1437
     19 C          46.2888   11.9583  -19.9897 C.3     1  UNL1        0.0051
     20 C          47.5681   11.3420  -19.4312 C.3     1  UNL1        0.0292
     21 C          50.0489   15.9819  -24.6949 C.3     1  UNL1        0.0468
     22 C          50.1783   16.3499  -26.1816 C.3     1  UNL1        0.1369
     23 S          50.8373   18.0618  -26.3785 S.3     1  UNL1       -0.0482
     24 C          49.3194   18.5652  -27.1713 C.2     1  UNL1        0.2792
     25 O          49.1016   19.7543  -27.5207 O.2     1  UNL1       -0.2625
     26 N          48.3690   17.5414  -27.3747 N.am    1  UNL1       -0.2460
     27 C          48.8384   16.3126  -26.8543 C.2     1  UNL1        0.2392
     28 O          48.1673   15.2525  -26.9663 O.2     1  UNL1       -0.2737
     29 H          47.4465   17.6728  -27.8462 H       1  UNL1        0.1583
@<TRIPOS>BOND
     1    19    20    1
     2    20    10    1
     3    10    11   ar
     4    11    12   ar
     5    12    13   ar
     6    13     9    1
     7     9     8    1
     8     8     7    1
     9     7     1    1
    10     1     2   ar
    11     2     3   ar
    12     3     4   ar
    13     4    21    1
    14    21    22    1
    15    22    23    1
    16    23    24    1
    17    24    25    2
    18    24    26   am
    19    26    27   am
    20    27    28    2
    21     4     5   ar
    22     5     6   ar
    23    13    14   ar
    24    14    15   ar
    25    15    16    1
    26    15    10   ar
    27     6     1   ar
    28    27    22    1
    29    26    29    1
    30    16    17    1
    31    16    18    1
@<TRIPOS>MOLECULE
*****
 29 31 0 0 0
SMALL
GASTEIGER

@<TRIPOS>ATOM
      1 C          46.1412   12.5212  -26.2281 C.ar    1  UNL1        0.1385
      2 C          45.2261   12.6540  -25.1652 C.ar    1  UNL1        0.0366
      3 C          45.6105   12.3346  -23.8597 C.ar    1  UNL1       -0.0011
      4 C          46.9082   11.8717  -23.5943 C.ar    1  UNL1       -0.0206
      5 C          47.8195   11.7402  -24.6533 C.ar    1  UNL1       -0.0011
      6 C          47.4349   12.0599  -25.9583 C.ar    1  UNL1        0.0366
      7 O          45.8121   12.8272  -27.5590 O.3     1  UNL1       -0.4750
      8 C          46.2412   13.9861  -28.2740 C.3     1  UNL1        0.2117
      9 C          46.0928   15.2394  -27.4077 C.3     1  UNL1        0.0931
     10 C          49.8999   17.0968  -26.7118 C.ar    1  UNL1        0.0090
     11 C          48.8627   17.8294  -27.3111 C.ar    1  UNL1       -0.0003
     12 C          47.6236   17.2372  -27.5486 C.ar    1  UNL1        0.0146
     13 C          47.4253   15.8976  -27.2013 C.ar    1  UNL1        0.0641
     14 N          48.4379   15.1961  -26.6261 N.ar    1  UNL1       -0.2356
     15 C          49.6612   15.7405  -26.3802 C.ar    1  UNL1        0.1209
     16 N          50.6706   14.9114  -25.7933 N.pl3   1  UNL1       -0.3429
     17 H          50.4445   13.9231  -25.5433 H       1  UNL1        0.1437
     18 H          51.6465   15.2376  -25.6274 H       1  UNL1        0.1437
     19 C          51.3593   18.2522  -25.0398 C.3     1  UNL1        0.0051
     20 C          51.2322   17.7709  -26.4822 C.3     1  UNL1        0.0292
     21 C          47.3248   11.5534  -22.1808 C.3     1  UNL1        0.0468
     22 C          48.5958   10.6897  -22.1481 C.3     1  UNL1        0.1369
     23 S          48.3901    9.2636  -20.9958 S.3     1  UNL1       -0.0482
     24 C          49.7085    9.8909  -19.9690 C.2     1  UNL1        0.2792
     25 O          50.0397    9.3438  -18.8852 O.2     1  UNL1       -0.2625
     26 N          50.3543   11.0516  -20.4472 N.am    1  UNL1       -0.2460
     27 C          49.7659   11.4889  -21.6569 C.2     1  UNL1        0.2392
     28 O          50.2149   12.4853  -22.2833 O.2     1  UNL1       -0.2737
     29 H          51.1574   11.5220  -19.9735 H       1  UNL1        0.1583
@<TRIPOS>BOND
     1    19    20    1
     2    20    10    1
     3    10    11   ar
     4    11    12   ar
     5    12    13   ar
     6    13     9    1
     7     9     8    1
     8     8     7    1
     9     7     1    1
    10     1     2   ar
    11     2     3   ar
    12     3     4   ar
    13     4    21    1
    14    21    22    1
    15    22    23    1
    16    23    24    1
    17    24    25    2
    18    24    26   am
    19    26    27   am
    20    27    28    2
    21     4     5   ar
    22     5     6   ar
    23    13    14   ar
    24    14    15   ar
    25    15    16    1
    26    15    10   ar
    27     6     1   ar
    28    27    22    1
    29    26    29    1
    30    16    17    1
    31    16    18    1
@<TRIPOS>MOLECULE
*****
 29 31 0 0 0
SMALL
GASTEIGER

@<TRIPOS>ATOM
      1 C          50.3837   17.2997  -25.9501 C.ar    1  UNL1        0.1385
      2 C          50.1215   16.1327  -26.6944 C.ar    1  UNL1        0.0366
      3 C          50.2849   14.8728  -26.1112 C.ar    1  UNL1       -0.0011
      4 C          50.7185   14.7561  -24.7819 C.ar    1  UNL1       -0.0206
      5 C          50.9789   15.9189  -24.0408 C.ar    1  UNL1       -0.0011
      6 C          50.8152   17.1783  -24.6241 C.ar    1  UNL1        0.0366
      7 O          50.2370   18.5914  -26.4824 O.3     1  UNL1       -0.4750
      8 C          49.0022   19.1916  -26.8741 C.3     1  UNL1        0.2117
      9 C          48.0243   19.2298  -25.6970 C.3     1  UNL1        0.0931
     10 C          46.2115   15.3852  -25.0959 C.ar    1  UNL1        0.0090
     11 C          46.6904   16.1131  -23.9948 C.ar    1  UNL1       -0.0003
     12 C          47.2867   17.3598  -24.1759 C.ar    1  UNL1        0.0146
     13 C          47.4219   17.8746  -25.4687 C.ar    1  UNL1        0.0641
     14 N          46.9592   17.1591  -26.5281 N.ar    1  UNL1       -0.2356
     15 C          46.3728   15.9384  -26.3899 C.ar    1  UNL1        0.1209
     16 N          45.9407   15.2524  -27.5704 N.pl3   1  UNL1       -0.3429
     17 H          46.0581   15.7073  -28.5029 H       1  UNL1        0.1437
     18 H          45.5359   14.2921  -27.5519 H       1  UNL1        0.1437
     19 C          46.6503   12.9541  -24.6989 C.3     1  UNL1        0.0051
     20 C          45.5824   14.0322  -24.8593 C.3     1  UNL1        0.0292
     21 C          50.8680   13.3953  -24.1504 C.3     1  UNL1        0.0468
     22 C          51.6617   12.4382  -25.0540 C.3     1  UNL1        0.1369
     23 S          50.6300   10.9878  -25.5395 S.3     1  UNL1       -0.0482
     24 C          51.7513    9.8923  -24.6861 C.2     1  UNL1        0.2792
     25 O          51.5429    8.6553  -24.5868 O.2     1  UNL1       -0.2625
     26 N          52.8889   10.5056  -24.1181 N.am    1  UNL1       -0.2460
     27 C          52.8629   11.9036  -24.3324 C.2     1  UNL1        0.2392
     28 O          53.8053   12.6451  -23.9465 O.2     1  UNL1       -0.2737
     29 H          53.6466    9.9968  -23.6107 H       1  UNL1        0.1583
@<TRIPOS>BOND
     1    19    20    1
     2    20    10    1
     3    10    11   ar
     4    11    12   ar
     5    12    13   ar
     6    13     9    1
     7     9     8    1
     8     8     7    1
     9     7     1    1
    10     1     2   ar
    11     2     3   ar
    12     3     4   ar
    13     4    21    1
    14    21    22    1
    15    22    23    1
    16    23    24    1
    17    24    25    2
    18    24    26   am
    19    26    27   am
    20    27    28    2
    21     4     5   ar
    22     5     6   ar
    23    13    14   ar
    24    14    15   ar
    25    15    16    1
    26    15    10   ar
    27     6     1   ar
    28    27    22    1
    29    26    29    1
    30    16    17    1
    31    16    18    1
