@<TRIPOS>MOLECULE
*****
 52 57 0 0 0
SMALL
GASTEIGER

@<TRIPOS>ATOM
      1 N          60.1043   86.2936   11.7661 N.am    1  UNL1       -0.2945
      2 C          59.5021   87.5747   11.5153 C.2     1  UNL1        0.2483
      3 O          58.8893   88.1704   12.4430 O.2     1  UNL1       -0.2701
      4 H          60.3651   85.7042   10.9446 H       1  UNL1        0.1501
      5 C          59.5817   88.1996   10.1717 C.ar    1  UNL1        0.0808
      6 C          59.0708   87.5308    9.0448 C.ar    1  UNL1        0.0080
      7 C          59.1471   88.1117    7.7769 C.ar    1  UNL1        0.0148
      8 C          59.7396   89.3705    7.6059 C.ar    1  UNL1        0.0502
      9 C          60.2556   90.0408    8.7259 C.ar    1  UNL1        0.0443
     10 C          60.1828   89.4625    9.9971 C.ar    1  UNL1        0.1457
     11 F          60.6811   90.1502   11.0560 F       1  UNL1       -0.2040
     12 N          59.8101   89.9649    6.2961 N.pl3   1  UNL1       -0.3040
     13 C          61.0354   89.8663    5.4958 C.3     1  UNL1        0.1123
     14 C          61.2827   91.1754    4.7412 C.3     1  UNL1        0.1136
     15 N          60.0504   91.6318    4.0820 N.pl3   1  UNL1       -0.2897
     16 C          58.8264   91.7135    4.8902 C.3     1  UNL1        0.1136
     17 C          58.5838   90.3909    5.6139 C.3     1  UNL1        0.1123
     18 C          60.0856   92.2544    2.7817 C.ar    1  UNL1        0.1318
     19 C          61.3024   92.5417    2.1418 C.ar    1  UNL1        0.0343
     20 C          61.2940   93.1473    0.8844 C.ar    1  UNL1        0.0083
     21 C          60.0790   93.4893    0.2723 C.ar    1  UNL1        0.0906
     22 C          58.8849   93.1696    0.9368 C.ar    1  UNL1        0.1041
     23 N          58.9179   92.5772    2.1597 N.ar    1  UNL1       -0.2292
     24 C          60.0549   94.0980   -1.1066 C.3     1  UNL1        0.4200
     25 F          60.0323   93.1104   -2.0762 F       1  UNL1       -0.1658
     26 F          61.1848   94.8749   -1.2809 F       1  UNL1       -0.1658
     27 F          58.9323   94.8912   -1.2704 F       1  UNL1       -0.1658
     28 C          60.1162   85.6694   13.0955 C.3     1  UNL1        0.1535
     29 C          59.3833   84.3502   13.0750 C.2     1  UNL1        0.2443
     30 O          58.1248   84.3269   13.1613 O.2     1  UNL1       -0.2730
     31 N          60.1274   83.1261   12.9677 N.am    1  UNL1       -0.2825
     32 H          61.1531   83.1637   13.1658 H       1  UNL1        0.1549
     33 C          59.5402   81.8405   12.7004 C.ar    1  UNL1        0.0535
     34 C          59.4991   80.8788   13.7194 C.ar    1  UNL1        0.0353
     35 C          58.9534   79.6191   13.4611 C.ar    1  UNL1        0.1002
     36 N          58.4800   79.3222   12.2222 N.ar    1  UNL1       -0.2422
     37 C          58.5237   80.2262   11.2082 C.ar    1  UNL1        0.1002
     38 C          59.0597   81.4981   11.4243 C.ar    1  UNL1        0.0353
     39 C          61.5595   85.5097   13.6145 C.3     1  UNL1        0.0569
     40 C          63.8152   89.7733   14.7959 C.ar    1  UNL1        0.0228
     41 C          63.5344   89.7366   16.1801 C.ar    1  UNL1       -0.0004
     42 C          62.8122   88.6611   16.7400 C.ar    1  UNL1       -0.0002
     43 C          62.3682   87.6023   15.9314 C.ar    1  UNL1        0.0011
     44 C          62.6624   87.6536   14.5695 C.ar    1  UNL1        0.0129
     45 C          62.3631   86.7800   13.5417 C.ar    1  UNL1       -0.0017
     46 C          62.9138   87.3445   12.3966 C.ar    1  UNL1        0.0681
     47 N          63.5256   88.5129   12.6930 N.ar    1  UNL1       -0.3524
     48 C          63.3650   88.6963   14.0178 C.ar    1  UNL1        0.0546
     49 H          64.0181   89.1398   12.0189 H       1  UNL1        0.1660
     50 C          64.6004   90.9041   14.1940 C.3     1  UNL1        0.1701
     51 C          66.6782   91.8953   14.1808 C.3     1  UNL1        0.1746
     52 O          65.8140   91.0455   14.9007 O.3     1  UNL1       -0.3463
@<TRIPOS>BOND
     1    51    52    1
     2    52    50    1
     3    50    40    1
     4    40    41   ar
     5    41    42   ar
     6    42    43   ar
     7    43    44   ar
     8    44    45   ar
     9    45    39    1
    10    39    28    1
    11    28     1    1
    12     1     2   am
    13     2     3    2
    14     2     5    1
    15     5     6   ar
    16     6     7   ar
    17     7     8   ar
    18     8    12    1
    19    12    13    1
    20    13    14    1
    21    14    15    1
    22    15    18    1
    23    18    19   ar
    24    19    20   ar
    25    20    21   ar
    26    21    24    1
    27    24    25    1
    28    24    26    1
    29    24    27    1
    30    21    22   ar
    31    22    23   ar
    32    15    16    1
    33    16    17    1
    34     8     9   ar
    35     9    10   ar
    36    10    11    1
    37    28    29    1
    38    29    30    2
    39    29    31   am
    40    31    33    1
    41    33    34   ar
    42    34    35   ar
    43    35    36   ar
    44    36    37   ar
    45    37    38   ar
    46    45    46   ar
    47    46    47   ar
    48    47    48   ar
    49    48    40   ar
    50    48    44   ar
    51    10     5   ar
    52    38    33   ar
    53    17    12    1
    54    23    18   ar
    55     1     4    1
    56    31    32    1
    57    47    49    1
@<TRIPOS>MOLECULE
*****
 52 57 0 0 0
SMALL
GASTEIGER

@<TRIPOS>ATOM
      1 N          60.8806   88.2144   12.6067 N.am    1  UNL1       -0.2945
      2 C          59.8554   87.8751   11.6578 C.2     1  UNL1        0.2483
      3 O          58.9535   87.0533   11.9780 O.2     1  UNL1       -0.2701
      4 H          61.7486   88.6718   12.2495 H       1  UNL1        0.1501
      5 C          59.8532   88.4711   10.2988 C.ar    1  UNL1        0.0808
      6 C          59.5573   87.6787    9.1750 C.ar    1  UNL1        0.0080
      7 C          59.5583   88.2328    7.8929 C.ar    1  UNL1        0.0148
      8 C          59.8599   89.5887    7.7046 C.ar    1  UNL1        0.0502
      9 C          60.1607   90.3836    8.8215 C.ar    1  UNL1        0.0443
     10 C          60.1623   89.8328   10.1070 C.ar    1  UNL1        0.1457
     11 F          60.4449   90.6392   11.1617 F       1  UNL1       -0.2040
     12 N          59.8541   90.1538    6.3799 N.pl3   1  UNL1       -0.3040
     13 C          61.0557   90.1017    5.5402 C.3     1  UNL1        0.1123
     14 C          61.2058   91.4034    4.7480 C.3     1  UNL1        0.1136
     15 N          59.9291   91.7764    4.1216 N.pl3   1  UNL1       -0.2897
     16 C          58.7301   91.8118    4.9695 C.3     1  UNL1        0.1136
     17 C          58.5843   90.4962    5.7310 C.3     1  UNL1        0.1123
     18 C          59.8870   92.3679    2.8071 C.ar    1  UNL1        0.1318
     19 C          60.9867   93.0687    2.2855 C.ar    1  UNL1        0.0343
     20 C          60.9054   93.6289    1.0098 C.ar    1  UNL1        0.0083
     21 C          59.7246   93.5140    0.2610 C.ar    1  UNL1        0.0906
     22 C          58.6547   92.7911    0.8108 C.ar    1  UNL1        0.1041
     23 N          58.7581   92.2520    2.0542 N.ar    1  UNL1       -0.2292
     24 C          59.6411   94.0712   -1.1372 C.3     1  UNL1        0.4200
     25 F          58.4873   94.8192   -1.2967 F       1  UNL1       -0.1658
     26 F          59.6304   93.0273   -2.0432 F       1  UNL1       -0.1658
     27 F          60.7267   94.8879   -1.4027 F       1  UNL1       -0.1658
     28 C          60.8838   87.7088   13.9856 C.3     1  UNL1        0.1535
     29 C          61.4942   86.3300   14.0498 C.2     1  UNL1        0.2443
     30 O          60.9800   85.4470   14.7900 O.2     1  UNL1       -0.2730
     31 N          62.6662   86.0353   13.2731 N.am    1  UNL1       -0.2825
     32 H          63.2100   86.8424   12.8916 H       1  UNL1        0.1549
     33 C          63.1915   84.7122   13.0672 C.ar    1  UNL1        0.0535
     34 C          63.6705   83.9847   14.1654 C.ar    1  UNL1        0.0353
     35 C          64.2054   82.7091   13.9709 C.ar    1  UNL1        0.1002
     36 N          64.2765   82.1830   12.7197 N.ar    1  UNL1       -0.2422
     37 C          63.8386   82.8712   11.6326 C.ar    1  UNL1        0.1002
     38 C          63.2951   84.1495   11.7830 C.ar    1  UNL1        0.0353
     39 C          61.6030   88.6931   14.9301 C.3     1  UNL1        0.0569
     40 C          65.4085   91.7672   14.0755 C.ar    1  UNL1        0.0228
     41 C          65.4571   92.3407   15.3658 C.ar    1  UNL1       -0.0004
     42 C          64.5542   91.9312   16.3702 C.ar    1  UNL1       -0.0002
     43 C          63.5969   90.9381   16.1070 C.ar    1  UNL1        0.0011
     44 C          63.5706   90.3793   14.8299 C.ar    1  UNL1        0.0129
     45 C          62.7592   89.4049   14.2810 C.ar    1  UNL1       -0.0017
     46 C          63.1944   89.2485   12.9697 C.ar    1  UNL1        0.0681
     47 N          64.2252   90.0839   12.7111 N.ar    1  UNL1       -0.3524
     48 C          64.4462   90.7721   13.8479 C.ar    1  UNL1        0.0546
     49 H          64.7370   90.1704   11.8053 H       1  UNL1        0.1660
     50 C          66.3783   92.1824   13.0056 C.3     1  UNL1        0.1701
     51 C          65.6501   93.3919   11.1872 C.3     1  UNL1        0.1746
     52 O          65.7369   92.1027   11.7508 O.3     1  UNL1       -0.3463
@<TRIPOS>BOND
     1    51    52    1
     2    52    50    1
     3    50    40    1
     4    40    41   ar
     5    41    42   ar
     6    42    43   ar
     7    43    44   ar
     8    44    45   ar
     9    45    39    1
    10    39    28    1
    11    28     1    1
    12     1     2   am
    13     2     3    2
    14     2     5    1
    15     5     6   ar
    16     6     7   ar
    17     7     8   ar
    18     8    12    1
    19    12    13    1
    20    13    14    1
    21    14    15    1
    22    15    18    1
    23    18    19   ar
    24    19    20   ar
    25    20    21   ar
    26    21    24    1
    27    24    25    1
    28    24    26    1
    29    24    27    1
    30    21    22   ar
    31    22    23   ar
    32    15    16    1
    33    16    17    1
    34     8     9   ar
    35     9    10   ar
    36    10    11    1
    37    28    29    1
    38    29    30    2
    39    29    31   am
    40    31    33    1
    41    33    34   ar
    42    34    35   ar
    43    35    36   ar
    44    36    37   ar
    45    37    38   ar
    46    45    46   ar
    47    46    47   ar
    48    47    48   ar
    49    48    40   ar
    50    48    44   ar
    51    10     5   ar
    52    38    33   ar
    53    17    12    1
    54    23    18   ar
    55     1     4    1
    56    31    32    1
    57    47    49    1
@<TRIPOS>MOLECULE
*****
 52 57 0 0 0
SMALL
GASTEIGER

@<TRIPOS>ATOM
      1 N          61.7920   87.1476   11.8216 N.am    1  UNL1       -0.2945
      2 C          60.7431   88.0927   11.5511 C.2     1  UNL1        0.2483
      3 O          59.9488   88.4267   12.4724 O.2     1  UNL1       -0.2701
      4 H          62.2590   86.6863   11.0096 H       1  UNL1        0.1501
      5 C          60.5752   88.6711   10.1949 C.ar    1  UNL1        0.0808
      6 C          59.8652   87.9683    9.2048 C.ar    1  UNL1        0.0080
      7 C          59.7079   88.5053    7.9251 C.ar    1  UNL1        0.0148
      8 C          60.2604   89.7530    7.6047 C.ar    1  UNL1        0.0502
      9 C          60.9742   90.4571    8.5869 C.ar    1  UNL1        0.0443
     10 C          61.1355   89.9227    9.8692 C.ar    1  UNL1        0.1457
     11 F          61.8207   90.6422   10.7941 F       1  UNL1       -0.2040
     12 N          60.0897   90.3022    6.2843 N.pl3   1  UNL1       -0.3040
     13 C          61.2031   90.3113    5.3293 C.3     1  UNL1        0.1123
     14 C          61.1962   91.6108    4.5194 C.3     1  UNL1        0.1136
     15 N          59.8438   91.9014    4.0215 N.pl3   1  UNL1       -0.2897
     16 C          58.7348   91.8759    4.9845 C.3     1  UNL1        0.1136
     17 C          58.7437   90.5624    5.7635 C.3     1  UNL1        0.1123
     18 C          59.6363   92.4749    2.7147 C.ar    1  UNL1        0.1318
     19 C          60.6101   93.2864    2.1099 C.ar    1  UNL1        0.0343
     20 C          60.3703   93.8248    0.8448 C.ar    1  UNL1        0.0083
     21 C          59.1546   93.5774    0.1899 C.ar    1  UNL1        0.0906
     22 C          58.2149   92.7474    0.8205 C.ar    1  UNL1        0.1041
     23 N          58.4719   92.2321    2.0517 N.ar    1  UNL1       -0.2292
     24 C          58.9034   94.1118   -1.1971 C.3     1  UNL1        0.4200
     25 F          57.7584   94.8892   -1.2210 F       1  UNL1       -0.1658
     26 F          58.7473   93.0526   -2.0715 F       1  UNL1       -0.1658
     27 F          59.9657   94.8924   -1.6192 F       1  UNL1       -0.1658
     28 C          62.0441   86.6047   13.1628 C.3     1  UNL1        0.1535
     29 C          62.6324   87.6605   14.0668 C.2     1  UNL1        0.2443
     30 O          63.0251   87.3509   15.2251 O.2     1  UNL1       -0.2730
     31 N          62.7316   89.0168   13.6038 N.am    1  UNL1       -0.2825
     32 H          62.1655   89.2857   12.7673 H       1  UNL1        0.1549
     33 C          63.4809   90.0485   14.2695 C.ar    1  UNL1        0.0535
     34 C          64.4542   90.7605   13.5549 C.ar    1  UNL1        0.0353
     35 C          65.2038   91.7467   14.2002 C.ar    1  UNL1        0.1002
     36 N          65.0017   92.0027   15.5196 N.ar    1  UNL1       -0.2422
     37 C          64.0795   91.3162   16.2445 C.ar    1  UNL1        0.1002
     38 C          63.3071   90.3228   15.6374 C.ar    1  UNL1        0.0353
     39 C          60.7586   85.9973   13.7602 C.3     1  UNL1        0.0569
     40 C          58.2368   82.8256   10.8892 C.ar    1  UNL1        0.0228
     41 C          57.3727   83.7771   10.3026 C.ar    1  UNL1       -0.0004
     42 C          57.4676   85.1431   10.6444 C.ar    1  UNL1       -0.0002
     43 C          58.4304   85.5822   11.5676 C.ar    1  UNL1        0.0011
     44 C          59.2785   84.6286   12.1292 C.ar    1  UNL1        0.0129
     45 C          60.3017   84.7521   13.0494 C.ar    1  UNL1       -0.0017
     46 C          60.7984   83.4665   13.2335 C.ar    1  UNL1        0.0681
     47 N          60.1193   82.5833   12.4680 N.ar    1  UNL1       -0.3524
     48 C          59.1925   83.2982   11.8010 C.ar    1  UNL1        0.0546
     49 H          60.2879   81.5543   12.4161 H       1  UNL1        0.1660
     50 C          58.1565   81.3722   10.5168 C.3     1  UNL1        0.1701
     51 C          59.3682   79.5508   11.2340 C.3     1  UNL1        0.1746
     52 O          59.4472   80.8069   10.5990 O.3     1  UNL1       -0.3463
@<TRIPOS>BOND
     1    51    52    1
     2    52    50    1
     3    50    40    1
     4    40    41   ar
     5    41    42   ar
     6    42    43   ar
     7    43    44   ar
     8    44    45   ar
     9    45    39    1
    10    39    28    1
    11    28     1    1
    12     1     2   am
    13     2     3    2
    14     2     5    1
    15     5     6   ar
    16     6     7   ar
    17     7     8   ar
    18     8    12    1
    19    12    13    1
    20    13    14    1
    21    14    15    1
    22    15    18    1
    23    18    19   ar
    24    19    20   ar
    25    20    21   ar
    26    21    24    1
    27    24    25    1
    28    24    26    1
    29    24    27    1
    30    21    22   ar
    31    22    23   ar
    32    15    16    1
    33    16    17    1
    34     8     9   ar
    35     9    10   ar
    36    10    11    1
    37    28    29    1
    38    29    30    2
    39    29    31   am
    40    31    33    1
    41    33    34   ar
    42    34    35   ar
    43    35    36   ar
    44    36    37   ar
    45    37    38   ar
    46    45    46   ar
    47    46    47   ar
    48    47    48   ar
    49    48    40   ar
    50    48    44   ar
    51    10     5   ar
    52    38    33   ar
    53    17    12    1
    54    23    18   ar
    55     1     4    1
    56    31    32    1
    57    47    49    1
@<TRIPOS>MOLECULE
*****
 52 57 0 0 0
SMALL
GASTEIGER

@<TRIPOS>ATOM
      1 N          61.1847   84.1955   13.2645 N.am    1  UNL1       -0.2945
      2 C          60.1512   85.1910   13.1785 C.2     1  UNL1        0.2483
      3 O          59.2879   85.2776   14.0942 O.2     1  UNL1       -0.2701
      4 H          61.7145   83.9612   12.3958 H       1  UNL1        0.1501
      5 C          60.0798   86.1111   12.0163 C.ar    1  UNL1        0.0808
      6 C          59.4331   85.7129   10.8325 C.ar    1  UNL1        0.0080
      7 C          59.3669   86.5725    9.7337 C.ar    1  UNL1        0.0148
      8 C          59.9492   87.8462    9.7912 C.ar    1  UNL1        0.0502
      9 C          60.6002   88.2476   10.9681 C.ar    1  UNL1        0.0443
     10 C          60.6703   87.3898   12.0703 C.ar    1  UNL1        0.1457
     11 F          61.2968   87.8219   13.1943 F       1  UNL1       -0.2040
     12 N          59.8725   88.7286    8.6557 N.pl3   1  UNL1       -0.3040
     13 C          58.9222   88.4672    7.5692 C.3     1  UNL1        0.1123
     14 C          59.5569   88.8043    6.2172 C.3     1  UNL1        0.1136
     15 N          60.2169   90.1170    6.2698 N.pl3   1  UNL1       -0.2897
     16 C          61.1561   90.3722    7.3701 C.3     1  UNL1        0.1136
     17 C          60.4963   90.0547    8.7102 C.3     1  UNL1        0.1123
     18 C          60.1823   91.0159    5.1427 C.ar    1  UNL1        0.1318
     19 C          58.9923   91.6502    4.7501 C.ar    1  UNL1        0.0343
     20 C          58.9998   92.5115    3.6520 C.ar    1  UNL1        0.0083
     21 C          60.1829   92.7253    2.9290 C.ar    1  UNL1        0.0906
     22 C          61.3543   92.0864    3.3641 C.ar    1  UNL1        0.1041
     23 N          61.3231   91.2540    4.4382 N.ar    1  UNL1       -0.2292
     24 C          60.2156   93.6911    1.7721 C.3     1  UNL1        0.4200
     25 F          60.6566   93.0603    0.6216 F       1  UNL1       -0.1658
     26 F          61.0739   94.7322    2.0725 F       1  UNL1       -0.1658
     27 F          58.9530   94.2034    1.5281 F       1  UNL1       -0.1658
     28 C          61.3408   83.3128   14.4279 C.3     1  UNL1        0.1535
     29 C          61.0468   81.8797   14.0568 C.2     1  UNL1        0.2443
     30 O          61.7516   80.9480   14.5333 O.2     1  UNL1       -0.2730
     31 N          59.9696   81.5869   13.1526 N.am    1  UNL1       -0.2825
     32 H          59.5896   82.3749   12.5805 H       1  UNL1        0.1549
     33 C          59.4463   80.2685   12.9140 C.ar    1  UNL1        0.0535
     34 C          59.1650   79.8684   11.6004 C.ar    1  UNL1        0.0353
     35 C          58.6330   78.5990   11.3620 C.ar    1  UNL1        0.1002
     36 N          58.3736   77.7623   12.4012 N.ar    1  UNL1       -0.2422
     37 C          58.6170   78.1283   13.6873 C.ar    1  UNL1        0.1002
     38 C          59.1504   79.3884   13.9697 C.ar    1  UNL1        0.0353
     39 C          62.7452   83.4628   15.0469 C.3     1  UNL1        0.0569
     40 C          63.8150   88.2804   15.6022 C.ar    1  UNL1        0.0228
     41 C          63.0787   88.4824   16.7910 C.ar    1  UNL1       -0.0004
     42 C          62.3686   87.4186   17.3876 C.ar    1  UNL1       -0.0002
     43 C          62.3897   86.1367   16.8145 C.ar    1  UNL1        0.0011
     44 C          63.1286   85.9566   15.6459 C.ar    1  UNL1        0.0129
     45 C          63.3335   84.8358   14.8642 C.ar    1  UNL1       -0.0017
     46 C          64.1613   85.2483   13.8260 C.ar    1  UNL1        0.0681
     47 N          64.4581   86.5612   13.9513 N.ar    1  UNL1       -0.3524
     48 C          63.8223   86.9865   15.0602 C.ar    1  UNL1        0.0546
     49 H          65.0592   87.1220   13.3078 H       1  UNL1        0.1660
     50 C          64.5901   89.4019   14.9705 C.3     1  UNL1        0.1701
     51 C          63.5545   90.4222   13.1854 C.3     1  UNL1        0.1746
     52 O          64.3975   89.3608   13.5729 O.3     1  UNL1       -0.3463
@<TRIPOS>BOND
     1    51    52    1
     2    52    50    1
     3    50    40    1
     4    40    41   ar
     5    41    42   ar
     6    42    43   ar
     7    43    44   ar
     8    44    45   ar
     9    45    39    1
    10    39    28    1
    11    28     1    1
    12     1     2   am
    13     2     3    2
    14     2     5    1
    15     5     6   ar
    16     6     7   ar
    17     7     8   ar
    18     8    12    1
    19    12    13    1
    20    13    14    1
    21    14    15    1
    22    15    18    1
    23    18    19   ar
    24    19    20   ar
    25    20    21   ar
    26    21    24    1
    27    24    25    1
    28    24    26    1
    29    24    27    1
    30    21    22   ar
    31    22    23   ar
    32    15    16    1
    33    16    17    1
    34     8     9   ar
    35     9    10   ar
    36    10    11    1
    37    28    29    1
    38    29    30    2
    39    29    31   am
    40    31    33    1
    41    33    34   ar
    42    34    35   ar
    43    35    36   ar
    44    36    37   ar
    45    37    38   ar
    46    45    46   ar
    47    46    47   ar
    48    47    48   ar
    49    48    40   ar
    50    48    44   ar
    51    10     5   ar
    52    38    33   ar
    53    17    12    1
    54    23    18   ar
    55     1     4    1
    56    31    32    1
    57    47    49    1
@<TRIPOS>MOLECULE
*****
 52 57 0 0 0
SMALL
GASTEIGER

@<TRIPOS>ATOM
      1 N          61.9393   87.4328   11.9233 N.am    1  UNL1       -0.2945
      2 C          60.6700   87.9622   11.5050 C.2     1  UNL1        0.2483
      3 O          59.6828   87.9138   12.2888 O.2     1  UNL1       -0.2701
      4 H          62.6559   87.2373   11.1895 H       1  UNL1        0.1501
      5 C          60.5036   88.5541   10.1544 C.ar    1  UNL1        0.0808
      6 C          59.9063   87.8107    9.1206 C.ar    1  UNL1        0.0080
      7 C          59.7513   88.3605    7.8461 C.ar    1  UNL1        0.0148
      8 C          60.1938   89.6626    7.5748 C.ar    1  UNL1        0.0502
      9 C          60.7950   90.4079    8.6010 C.ar    1  UNL1        0.0443
     10 C          60.9536   89.8610    9.8782 C.ar    1  UNL1        0.1457
     11 F          61.5273   90.6203   10.8462 F       1  UNL1       -0.2040
     12 N          60.0259   90.2244    6.2594 N.pl3   1  UNL1       -0.3040
     13 C          61.1234   90.1901    5.2868 C.3     1  UNL1        0.1123
     14 C          61.1594   91.4922    4.4819 C.3     1  UNL1        0.1136
     15 N          59.8130   91.8426    4.0067 N.pl3   1  UNL1       -0.2897
     16 C          58.7193   91.8602    4.9872 C.3     1  UNL1        0.1136
     17 C          58.6842   90.5442    5.7611 C.3     1  UNL1        0.1123
     18 C          59.6097   92.4301    2.7056 C.ar    1  UNL1        0.1318
     19 C          60.5908   93.2374    2.1069 C.ar    1  UNL1        0.0343
     20 C          60.3548   93.7898    0.8472 C.ar    1  UNL1        0.0083
     21 C          59.1359   93.5606    0.1916 C.ar    1  UNL1        0.0906
     22 C          58.1887   92.7342    0.8158 C.ar    1  UNL1        0.1041
     23 N          58.4421   92.2050    2.0418 N.ar    1  UNL1       -0.2292
     24 C          58.8883   94.1102   -1.1901 C.3     1  UNL1        0.4200
     25 F          57.7461   94.8920   -1.2074 F       1  UNL1       -0.1658
     26 F          58.7295   93.0607   -2.0756 F       1  UNL1       -0.1658
     27 F          59.9540   94.8913   -1.6028 F       1  UNL1       -0.1658
     28 C          62.1724   86.9052   13.2740 C.3     1  UNL1        0.1535
     29 C          62.6430   87.9978   14.2027 C.2     1  UNL1        0.2443
     30 O          62.5588   87.8428   15.4520 O.2     1  UNL1       -0.2730
     31 N          63.1754   89.2146   13.6554 N.am    1  UNL1       -0.2825
     32 H          62.9859   89.4160   12.6473 H       1  UNL1        0.1549
     33 C          63.8671   90.2151   14.4232 C.ar    1  UNL1        0.0535
     34 C          63.3766   90.5721   15.6868 C.ar    1  UNL1        0.0353
     35 C          64.0278   91.5607   16.4284 C.ar    1  UNL1        0.1002
     36 N          65.1222   92.1853   15.9191 N.ar    1  UNL1       -0.2422
     37 C          65.6103   91.8755   14.6891 C.ar    1  UNL1        0.1002
     38 C          64.9901   90.8915   13.9151 C.ar    1  UNL1        0.0353
     39 C          60.9101   86.2039   13.8153 C.3     1  UNL1        0.0569
     40 C          61.5777   81.3390   13.0744 C.ar    1  UNL1        0.0228
     41 C          62.6062   81.1614   14.0267 C.ar    1  UNL1       -0.0004
     42 C          63.0686   82.2488   14.7983 C.ar    1  UNL1       -0.0002
     43 C          62.5068   83.5260   14.6397 C.ar    1  UNL1        0.0011
     44 C          61.4878   83.6785   13.7003 C.ar    1  UNL1        0.0129
     45 C          60.7573   84.7895   13.3246 C.ar    1  UNL1       -0.0017
     46 C          59.8746   84.3454   12.3464 C.ar    1  UNL1        0.0681
     47 N          60.0454   83.0235   12.1207 N.ar    1  UNL1       -0.3524
     48 C          61.0324   82.6252   12.9465 C.ar    1  UNL1        0.0546
     49 H          59.5135   82.4405   11.4373 H       1  UNL1        0.1660
     50 C          61.0652   80.1834   12.2623 C.3     1  UNL1        0.1701
     51 C          62.0934   79.6394   10.2756 C.3     1  UNL1        0.1746
     52 O          62.1613   79.5130   11.6780 O.3     1  UNL1       -0.3463
@<TRIPOS>BOND
     1    51    52    1
     2    52    50    1
     3    50    40    1
     4    40    41   ar
     5    41    42   ar
     6    42    43   ar
     7    43    44   ar
     8    44    45   ar
     9    45    39    1
    10    39    28    1
    11    28     1    1
    12     1     2   am
    13     2     3    2
    14     2     5    1
    15     5     6   ar
    16     6     7   ar
    17     7     8   ar
    18     8    12    1
    19    12    13    1
    20    13    14    1
    21    14    15    1
    22    15    18    1
    23    18    19   ar
    24    19    20   ar
    25    20    21   ar
    26    21    24    1
    27    24    25    1
    28    24    26    1
    29    24    27    1
    30    21    22   ar
    31    22    23   ar
    32    15    16    1
    33    16    17    1
    34     8     9   ar
    35     9    10   ar
    36    10    11    1
    37    28    29    1
    38    29    30    2
    39    29    31   am
    40    31    33    1
    41    33    34   ar
    42    34    35   ar
    43    35    36   ar
    44    36    37   ar
    45    37    38   ar
    46    45    46   ar
    47    46    47   ar
    48    47    48   ar
    49    48    40   ar
    50    48    44   ar
    51    10     5   ar
    52    38    33   ar
    53    17    12    1
    54    23    18   ar
    55     1     4    1
    56    31    32    1
    57    47    49    1
@<TRIPOS>MOLECULE
*****
 52 57 0 0 0
SMALL
GASTEIGER

@<TRIPOS>ATOM
      1 N          61.2968   89.0214   12.5398 N.am    1  UNL1       -0.2945
      2 C          61.4258   88.2135   11.3577 C.2     1  UNL1        0.2483
      3 O          61.7987   87.0126   11.4581 O.2     1  UNL1       -0.2701
      4 H          61.2527   90.0581   12.4238 H       1  UNL1        0.1501
      5 C          61.1379   88.7807   10.0170 C.ar    1  UNL1        0.0808
      6 C          60.2195   88.1485    9.1595 C.ar    1  UNL1        0.0080
      7 C          59.9479   88.6748    7.8946 C.ar    1  UNL1        0.0148
      8 C          60.5910   89.8407    7.4564 C.ar    1  UNL1        0.0502
      9 C          61.5120   90.4735    8.3056 C.ar    1  UNL1        0.0443
     10 C          61.7883   89.9494    9.5724 C.ar    1  UNL1        0.1457
     11 F          62.6750   90.5999   10.3682 F       1  UNL1       -0.2040
     12 N          60.3019   90.3799    6.1527 N.pl3   1  UNL1       -0.3040
     13 C          61.3339   90.4093    5.1107 C.3     1  UNL1        0.1123
     14 C          61.2326   91.7045    4.3005 C.3     1  UNL1        0.1136
     15 N          59.8382   91.9630    3.9128 N.pl3   1  UNL1       -0.2897
     16 C          58.8116   91.9173    4.9624 C.3     1  UNL1        0.1136
     17 C          58.9127   90.6080    5.7417 C.3     1  UNL1        0.1123
     18 C          59.5130   92.5258    2.6255 C.ar    1  UNL1        0.1318
     19 C          60.3290   93.4994    2.0264 C.ar    1  UNL1        0.0343
     20 C          59.9785   94.0213    0.7804 C.ar    1  UNL1        0.0083
     21 C          58.8059   93.5945    0.1395 C.ar    1  UNL1        0.0906
     22 C          58.0271   92.6075    0.7632 C.ar    1  UNL1        0.1041
     23 N          58.3901   92.1119    1.9757 N.ar    1  UNL1       -0.2292
     24 C          58.4423   94.1134   -1.2284 C.3     1  UNL1        0.4200
     25 F          57.2968   94.8882   -1.1681 F       1  UNL1       -0.1658
     26 F          58.2194   93.0446   -2.0761 F       1  UNL1       -0.1658
     27 F          59.4649   94.8917   -1.7427 F       1  UNL1       -0.1658
     28 C          61.4985   88.4858   13.8924 C.3     1  UNL1        0.1535
     29 C          62.2860   89.4543   14.7407 C.2     1  UNL1        0.2443
     30 O          62.0185   89.5795   15.9674 O.2     1  UNL1       -0.2730
     31 N          63.3308   90.2367   14.1409 N.am    1  UNL1       -0.2825
     32 H          63.3461   90.3062   13.0980 H       1  UNL1        0.1549
     33 C          64.2957   91.0051   14.8809 C.ar    1  UNL1        0.0535
     34 C          63.9464   91.5201   16.1369 C.ar    1  UNL1        0.0353
     35 C          64.8687   92.2885   16.8511 C.ar    1  UNL1        0.1002
     36 N          66.0933   92.5494   16.3225 N.ar    1  UNL1       -0.2422
     37 C          66.4547   92.0809   15.0989 C.ar    1  UNL1        0.1002
     38 C          65.5629   91.3070   14.3520 C.ar    1  UNL1        0.0353
     39 C          60.1498   88.1238   14.5467 C.3     1  UNL1        0.0569
     40 C          58.7903   83.9094   12.2989 C.ar    1  UNL1        0.0228
     41 C          59.8941   83.1313   12.7141 C.ar    1  UNL1       -0.0004
     42 C          60.9031   83.6895   13.5278 C.ar    1  UNL1       -0.0002
     43 C          60.8222   85.0271   13.9477 C.ar    1  UNL1        0.0011
     44 C          59.7212   85.7755   13.5336 C.ar    1  UNL1        0.0129
     45 C          59.3725   87.0901   13.7774 C.ar    1  UNL1       -0.0017
     46 C          58.1669   87.2882   13.1135 C.ar    1  UNL1        0.0681
     47 N          57.7817   86.1550   12.4851 N.ar    1  UNL1       -0.3524
     48 C          58.7354   85.2391   12.7425 C.ar    1  UNL1        0.0546
     49 H          56.9164   86.0296   11.9147 H       1  UNL1        0.1660
     50 C          57.7013   83.3184   11.4491 C.3     1  UNL1        0.1701
     51 C          57.6152   84.0820    9.2789 C.3     1  UNL1        0.1746
     52 O          57.1875   84.3225   10.6005 O.3     1  UNL1       -0.3463
@<TRIPOS>BOND
     1    51    52    1
     2    52    50    1
     3    50    40    1
     4    40    41   ar
     5    41    42   ar
     6    42    43   ar
     7    43    44   ar
     8    44    45   ar
     9    45    39    1
    10    39    28    1
    11    28     1    1
    12     1     2   am
    13     2     3    2
    14     2     5    1
    15     5     6   ar
    16     6     7   ar
    17     7     8   ar
    18     8    12    1
    19    12    13    1
    20    13    14    1
    21    14    15    1
    22    15    18    1
    23    18    19   ar
    24    19    20   ar
    25    20    21   ar
    26    21    24    1
    27    24    25    1
    28    24    26    1
    29    24    27    1
    30    21    22   ar
    31    22    23   ar
    32    15    16    1
    33    16    17    1
    34     8     9   ar
    35     9    10   ar
    36    10    11    1
    37    28    29    1
    38    29    30    2
    39    29    31   am
    40    31    33    1
    41    33    34   ar
    42    34    35   ar
    43    35    36   ar
    44    36    37   ar
    45    37    38   ar
    46    45    46   ar
    47    46    47   ar
    48    47    48   ar
    49    48    40   ar
    50    48    44   ar
    51    10     5   ar
    52    38    33   ar
    53    17    12    1
    54    23    18   ar
    55     1     4    1
    56    31    32    1
    57    47    49    1
@<TRIPOS>MOLECULE
*****
 52 57 0 0 0
SMALL
GASTEIGER

@<TRIPOS>ATOM
      1 N          60.7847   86.7569   12.0393 N.am    1  UNL1       -0.2945
      2 C          59.6377   87.4141   11.4745 C.2     1  UNL1        0.2483
      3 O          58.5562   87.4525   12.1226 O.2     1  UNL1       -0.2701
      4 H          61.5693   86.5017   11.3993 H       1  UNL1        0.1501
      5 C          59.7073   88.0377   10.1297 C.ar    1  UNL1        0.0808
      6 C          60.3037   89.3003    9.9610 C.ar    1  UNL1        0.0080
      7 C          60.3679   89.8944    8.6986 C.ar    1  UNL1        0.0148
      8 C          59.8337   89.2432    7.5782 C.ar    1  UNL1        0.0502
      9 C          59.2330   87.9851    7.7408 C.ar    1  UNL1        0.0443
     10 C          59.1650   87.3870    9.0030 C.ar    1  UNL1        0.1457
     11 F          58.5884   86.1633    9.1147 F       1  UNL1       -0.2040
     12 N          59.9082   89.8602    6.2791 N.pl3   1  UNL1       -0.3040
     13 C          61.1123   89.7198    5.4532 C.3     1  UNL1        0.1123
     14 C          61.4079   91.0308    4.7196 C.3     1  UNL1        0.1136
     15 N          60.1868   91.5586    4.0937 N.pl3   1  UNL1       -0.2897
     16 C          58.9835   91.6819    4.9271 C.3     1  UNL1        0.1136
     17 C          58.6912   90.3578    5.6295 C.3     1  UNL1        0.1123
     18 C          60.2276   92.2053    2.8053 C.ar    1  UNL1        0.1318
     19 C          59.2344   93.1179    2.4140 C.ar    1  UNL1        0.0343
     20 C          59.3084   93.7208    1.1574 C.ar    1  UNL1        0.0083
     21 C          60.3550   93.4005    0.2799 C.ar    1  UNL1        0.0906
     22 C          61.3367   92.4972    0.7155 C.ar    1  UNL1        0.1041
     23 N          61.2451   91.9246    1.9448 N.ar    1  UNL1       -0.2292
     24 C          60.4737   94.0816   -1.0596 C.3     1  UNL1        0.4200
     25 F          61.6042   94.8791   -1.1035 F       1  UNL1       -0.1658
     26 F          59.3578   94.8697   -1.2699 F       1  UNL1       -0.1658
     27 F          60.5637   93.1466   -2.0763 F       1  UNL1       -0.1658
     28 C          60.7870   86.1907   13.3945 C.3     1  UNL1        0.1535
     29 C          60.7587   84.6825   13.3456 C.2     1  UNL1        0.2443
     30 O          59.6567   84.0756   13.2499 O.2     1  UNL1       -0.2730
     31 N          61.9901   83.9464   13.4193 N.am    1  UNL1       -0.2825
     32 H          62.8379   84.4534   13.7612 H       1  UNL1        0.1549
     33 C          62.1119   82.5395   13.1457 C.ar    1  UNL1        0.0535
     34 C          62.1631   82.1002   11.8156 C.ar    1  UNL1        0.0353
     35 C          62.2559   80.7338   11.5408 C.ar    1  UNL1        0.1002
     36 N          62.2793   79.8336   12.5587 N.ar    1  UNL1       -0.2422
     37 C          62.2115   80.2267   13.8579 C.ar    1  UNL1        0.1002
     38 C          62.1195   81.5839   14.1769 C.ar    1  UNL1        0.0353
     39 C          61.9916   86.7105   14.2050 C.3     1  UNL1        0.0569
     40 C          64.2813   91.0558   13.4717 C.ar    1  UNL1        0.0228
     41 C          64.3919   91.4216   14.8319 C.ar    1  UNL1       -0.0004
     42 C          63.9020   90.5732   15.8478 C.ar    1  UNL1       -0.0002
     43 C          63.3040   89.3445   15.5242 C.ar    1  UNL1        0.0011
     44 C          63.2116   88.9986   14.1767 C.ar    1  UNL1        0.0129
     45 C          62.6839   87.8806   13.5597 C.ar    1  UNL1       -0.0017
     46 C          62.8732   88.0793   12.1966 C.ar    1  UNL1        0.0681
     47 N          63.4870   89.2626   11.9723 N.ar    1  UNL1       -0.3524
     48 C          63.6866   89.8185   13.1830 C.ar    1  UNL1        0.0546
     49 H          63.7462   89.6563   11.0408 H       1  UNL1        0.1660
     50 C          64.8177   91.9432   12.3843 C.3     1  UNL1        0.1701
     51 C          66.6394   93.2403   11.8376 C.3     1  UNL1        0.1746
     52 O          66.2021   92.1292   12.5869 O.3     1  UNL1       -0.3463
@<TRIPOS>BOND
     1    51    52    1
     2    52    50    1
     3    50    40    1
     4    40    41   ar
     5    41    42   ar
     6    42    43   ar
     7    43    44   ar
     8    44    45   ar
     9    45    39    1
    10    39    28    1
    11    28     1    1
    12     1     2   am
    13     2     3    2
    14     2     5    1
    15     5     6   ar
    16     6     7   ar
    17     7     8   ar
    18     8    12    1
    19    12    13    1
    20    13    14    1
    21    14    15    1
    22    15    18    1
    23    18    19   ar
    24    19    20   ar
    25    20    21   ar
    26    21    24    1
    27    24    25    1
    28    24    26    1
    29    24    27    1
    30    21    22   ar
    31    22    23   ar
    32    15    16    1
    33    16    17    1
    34     8     9   ar
    35     9    10   ar
    36    10    11    1
    37    28    29    1
    38    29    30    2
    39    29    31   am
    40    31    33    1
    41    33    34   ar
    42    34    35   ar
    43    35    36   ar
    44    36    37   ar
    45    37    38   ar
    46    45    46   ar
    47    46    47   ar
    48    47    48   ar
    49    48    40   ar
    50    48    44   ar
    51    10     5   ar
    52    38    33   ar
    53    17    12    1
    54    23    18   ar
    55     1     4    1
    56    31    32    1
    57    47    49    1
