@<TRIPOS>MOLECULE
*****
 90 97 0 0 0
SMALL
GASTEIGER

@<TRIPOS>ATOM
      1 C          11.0677   77.6377   23.0650 C.3     1  UNL1        0.0758
      2 C          10.5143   77.8881   24.5121 C.3     1  UNL1        0.0574
      3 C           9.5112   76.8427   24.9905 C.ar    1  UNL1       -0.0141
      4 C           9.2417   76.7599   26.3615 C.ar    1  UNL1       -0.0037
      5 C           8.2913   75.8647   26.8609 C.ar    1  UNL1        0.0085
      6 C           8.0422   75.8280   28.2369 C.ar    1  UNL1        0.0370
      7 C           7.0497   74.9934   28.7669 C.ar    1  UNL1        0.1402
      8 C           6.3421   74.1250   27.9127 C.ar    1  UNL1        0.0459
      9 C           5.2861   73.2059   28.4799 C.3     1  UNL1        0.0374
     10 C           6.5796   74.1598   26.5158 C.ar    1  UNL1        0.1354
     11 O           5.8517   73.3287   25.6559 O.3     1  UNL1       -0.5056
     12 C           7.5554   75.0410   25.9788 C.ar    1  UNL1        0.0673
     13 C           7.7985   75.1407   24.5835 C.ar    1  UNL1        0.1389
     14 O           6.9821   74.4335   23.6945 O.3     1  UNL1       -0.5053
     15 C           8.8287   75.9884   24.0985 C.ar    1  UNL1        0.0670
     16 C           9.2712   75.9503   22.6858 C.2     1  UNL1        0.2026
     17 O           9.1416   74.9038   21.9945 O.2     1  UNL1       -0.2887
     18 C           9.9616   77.1341   22.0892 C.3     1  UNL1        0.1820
     19 H           5.1217   72.6982   25.9599 H       1  UNL1        0.2922
     20 H           6.9056   74.6507   22.7100 H       1  UNL1        0.2922
     21 C           9.9702   79.3256   24.7121 C.3     1  UNL1        0.1416
     22 O           9.9475   80.0630   23.5220 O.3     1  UNL1       -0.3816
     23 H           9.1902   79.7187   22.9833 H       1  UNL1        0.2105
     24 O           6.7287   75.0162   30.1360 O.3     1  UNL1       -0.4526
     25 C           5.4534   75.3497   30.6940 C.3     1  UNL1        0.2901
     26 C           5.5781   76.5168   31.6978 C.3     1  UNL1        0.1085
     27 C           6.1452   77.7794   31.0096 C.3     1  UNL1        0.1531
     28 C           5.6774   77.8423   29.5326 C.3     1  UNL1        0.1648
     29 O           5.5021   79.1794   29.1305 O.3     1  UNL1       -0.3795
     30 C           4.3888   77.0003   29.3043 C.3     1  UNL1        0.1480
     31 C           3.9306   77.0945   27.8474 C.3     1  UNL1        0.0349
     32 O           4.5495   75.6202   29.6272 O.3     1  UNL1       -0.3205
     33 H           4.7218   79.5420   29.6261 H       1  UNL1        0.2105
     34 O           7.5667   77.7860   31.0197 O.3     1  UNL1       -0.3301
     35 C           8.1190   79.0552   30.7064 C.3     1  UNL1        0.2376
     36 C           8.7319   78.9847   29.2945 C.3     1  UNL1        0.0931
     37 C           9.8966   79.9793   29.1193 C.3     1  UNL1        0.1446
     38 O           9.9461   80.4062   27.7819 O.3     1  UNL1       -0.3817
     39 C           9.7239   81.1826   30.0594 C.3     1  UNL1        0.1644
     40 O          10.8197   82.0504   29.9174 O.3     1  UNL1       -0.3795
     41 C           9.6246   80.6784   31.5295 C.3     1  UNL1        0.1469
     42 C           8.8115   81.6294   32.4151 C.3     1  UNL1        0.0348
     43 O           9.1323   79.3481   31.6513 O.3     1  UNL1       -0.3304
     44 H          10.8702   80.7284   27.6149 H       1  UNL1        0.2104
     45 H          10.5458   82.9233   30.3020 H       1  UNL1        0.2105
     46 O           8.9866   78.1322   21.8423 O.3     1  UNL1       -0.3249
     47 C           7.8253   77.6060   21.2182 C.3     1  UNL1        0.2380
     48 C           6.5782   78.4643   21.5411 C.3     1  UNL1        0.0935
     49 C           5.6235   78.4664   20.3512 C.3     1  UNL1        0.1519
     50 C           6.3414   79.1101   19.1572 C.3     1  UNL1        0.1648
     51 O           5.6337   78.7951   17.9853 O.3     1  UNL1       -0.3795
     52 C           7.8191   78.6180   19.0485 C.3     1  UNL1        0.1469
     53 C           8.8405   79.7326   19.3322 C.3     1  UNL1        0.0348
     54 O           8.0722   77.4510   19.8233 O.3     1  UNL1       -0.3304
     55 H           5.9234   79.4449   17.2925 H       1  UNL1        0.2105
     56 O           4.4662   79.2265   20.6697 O.3     1  UNL1       -0.3302
     57 C           3.5285   78.4640   21.4083 C.3     1  UNL1        0.2376
     58 C           2.5669   79.4390   22.1112 C.3     1  UNL1        0.0931
     59 C           1.5028   78.6821   22.9305 C.3     1  UNL1        0.1450
     60 O           0.3289   78.5505   22.1693 O.3     1  UNL1       -0.3817
     61 C           2.0118   77.2939   23.3962 C.3     1  UNL1        0.1715
     62 C           3.5526   77.3450   23.5394 C.3     1  UNL1        0.1473
     63 C           4.0998   76.0465   24.1337 C.3     1  UNL1        0.0348
     64 O           4.2192   77.5933   22.3072 O.3     1  UNL1       -0.3304
     65 H          -0.4076   78.3662   22.8090 H       1  UNL1        0.2104
     66 O           1.6638   76.3046   22.4339 O.3     1  UNL1       -0.3279
     67 C           2.6934   76.1144   21.4825 C.3     1  UNL1        0.2376
     68 C           2.1740   76.5579   20.0999 C.3     1  UNL1        0.0907
     69 C           2.8946   75.8247   18.9363 C.3     1  UNL1        0.1201
     70 C           2.9447   76.7510   17.7028 C.3     1  UNL1        0.0321
     71 O           2.1518   74.6670   18.6227 O.3     1  UNL1       -0.3841
     72 C           4.3234   75.4319   19.4003 C.3     1  UNL1        0.1620
     73 O           5.0164   74.7460   18.3857 O.3     1  UNL1       -0.3796
     74 C           4.2297   74.5255   20.6628 C.3     1  UNL1        0.1468
     75 C           5.4882   74.6194   21.5318 C.3     1  UNL1        0.0348
     76 O           3.0636   74.7464   21.4505 O.3     1  UNL1       -0.3304
     77 H           2.5921   74.2125   17.8575 H       1  UNL1        0.2103
     78 H           5.4997   75.4262   17.8479 H       1  UNL1        0.2105
     79 C          12.2971   76.6714   23.1156 C.3     1  UNL1        0.1778
     80 C          12.1429   74.3885   23.5489 C.3     1  UNL1        0.1746
     81 O          12.0732   75.6825   24.1087 O.3     1  UNL1       -0.3460
     82 C          13.6144   77.3816   23.4030 C.2     1  UNL1        0.2064
     83 O          14.4976   77.3149   22.5600 O.2     1  UNL1       -0.2909
     84 C          13.8868   78.1892   24.6642 C.3     1  UNL1        0.1970
     85 O          13.2788   77.6113   25.7927 O.3     1  UNL1       -0.3752
     86 H          13.8377   76.8464   26.0882 H       1  UNL1        0.2110
     87 C          15.4043   78.4154   24.9051 C.3     1  UNL1        0.1445
     88 C          15.9657   79.5928   24.0953 C.3     1  UNL1        0.0348
     89 O          15.6563   78.6173   26.2735 O.3     1  UNL1       -0.3815
     90 H          15.1599   79.4316   26.5523 H       1  UNL1        0.2105
@<TRIPOS>BOND
     1    80    81    1
     2    81    79    1
     3    79    82    1
     4    82    83    2
     5    82    84    1
     6    84    85    1
     7    84    87    1
     8    87    88    1
     9    87    89    1
    10    79     1    1
    11     1     2    1
    12     2    21    1
    13    21    22    1
    14     2     3    1
    15     3     4   ar
    16     4     5   ar
    17     5     6   ar
    18     6     7   ar
    19     7    24    1
    20    24    25    1
    21    25    26    1
    22    26    27    1
    23    27    34    1
    24    34    35    1
    25    35    36    1
    26    36    37    1
    27    37    38    1
    28    37    39    1
    29    39    40    1
    30    39    41    1
    31    41    42    1
    32    41    43    1
    33    27    28    1
    34    28    29    1
    35    28    30    1
    36    30    31    1
    37    30    32    1
    38     7     8   ar
    39     8     9    1
    40     8    10   ar
    41    10    11    1
    42    10    12   ar
    43    12    13   ar
    44    13    14    1
    45    13    15   ar
    46    15    16    1
    47    16    17    2
    48    16    18    1
    49    18    46    1
    50    46    47    1
    51    47    48    1
    52    48    49    1
    53    49    56    1
    54    56    57    1
    55    57    58    1
    56    58    59    1
    57    59    60    1
    58    59    61    1
    59    61    66    1
    60    66    67    1
    61    67    68    1
    62    68    69    1
    63    69    70    1
    64    69    71    1
    65    69    72    1
    66    72    73    1
    67    72    74    1
    68    74    75    1
    69    74    76    1
    70    61    62    1
    71    62    63    1
    72    62    64    1
    73    49    50    1
    74    50    51    1
    75    50    52    1
    76    52    53    1
    77    52    54    1
    78    18     1    1
    79    54    47    1
    80    15     3   ar
    81    64    57    1
    82    12     5   ar
    83    76    67    1
    84    32    25    1
    85    43    35    1
    86    85    86    1
    87    89    90    1
    88    22    23    1
    89    38    44    1
    90    40    45    1
    91    29    33    1
    92    11    19    1
    93    14    20    1
    94    60    65    1
    95    71    77    1
    96    73    78    1
    97    51    55    1
@<TRIPOS>MOLECULE
*****
 90 97 0 0 0
SMALL
GASTEIGER

@<TRIPOS>ATOM
      1 C          10.4701   76.0295   23.0577 C.3     1  UNL1        0.0758
      2 C          10.1766   76.5445   24.5109 C.3     1  UNL1        0.0574
      3 C           9.1399   75.7228   25.2711 C.ar    1  UNL1       -0.0141
      4 C           9.0736   75.8610   26.6623 C.ar    1  UNL1       -0.0037
      5 C           8.1098   75.1821   27.4134 C.ar    1  UNL1        0.0085
      6 C           8.0698   75.3633   28.7998 C.ar    1  UNL1        0.0370
      7 C           7.0765   74.7538   29.5773 C.ar    1  UNL1        0.1402
      8 C           6.1486   73.8877   28.9661 C.ar    1  UNL1        0.0459
      9 C           5.0886   73.2091   29.8013 C.3     1  UNL1        0.0374
     10 C           6.1738   73.7035   27.5610 C.ar    1  UNL1        0.1354
     11 O           5.2297   72.8761   26.9413 O.3     1  UNL1       -0.5056
     12 C           7.1553   74.3601   26.7719 C.ar    1  UNL1        0.0673
     13 C           7.1940   74.2391   25.3578 C.ar    1  UNL1        0.1389
     14 O           6.1734   73.5418   24.7026 O.3     1  UNL1       -0.5053
     15 C           8.2327   74.8621   24.6175 C.ar    1  UNL1        0.0670
     16 C           8.4479   74.5755   23.1806 C.2     1  UNL1        0.2026
     17 O           8.0905   73.4752   22.6790 O.2     1  UNL1       -0.2887
     18 C           9.1764   75.5611   22.3253 C.3     1  UNL1        0.1820
     19 H           4.4841   72.4002   27.4316 H       1  UNL1        0.2922
     20 H           5.9750   73.6352   23.7156 H       1  UNL1        0.2922
     21 C           9.8453   78.0578   24.5617 C.3     1  UNL1        0.1416
     22 O          10.5681   78.7343   25.5518 O.3     1  UNL1       -0.3816
     23 H          11.4980   78.8230   25.2207 H       1  UNL1        0.2105
     24 O           6.9721   75.0026   30.9575 O.3     1  UNL1       -0.4526
     25 C           5.7968   75.4453   31.6445 C.3     1  UNL1        0.2901
     26 C           6.0477   76.7930   32.3558 C.3     1  UNL1        0.1085
     27 C           6.4506   77.8870   31.3407 C.3     1  UNL1        0.1531
     28 C           5.7422   77.6469   29.9825 C.3     1  UNL1        0.1648
     29 O           5.4583   78.8736   29.3541 O.3     1  UNL1       -0.3795
     30 C           4.4621   76.7781   30.1506 C.3     1  UNL1        0.1480
     31 C           3.7654   76.5727   28.8039 C.3     1  UNL1        0.0349
     32 O           4.7198   75.4931   30.7138 O.3     1  UNL1       -0.3205
     33 H           4.7595   79.3313   29.8911 H       1  UNL1        0.2105
     34 O           7.8529   77.8932   31.1084 O.3     1  UNL1       -0.3301
     35 C           8.3454   79.1643   30.7132 C.3     1  UNL1        0.2376
     36 C           8.9301   79.0401   29.2931 C.3     1  UNL1        0.0931
     37 C          10.0485   80.0694   29.0360 C.3     1  UNL1        0.1446
     38 O          10.0514   80.4230   27.6766 O.3     1  UNL1       -0.3817
     39 C           9.8465   81.3152   29.9129 C.3     1  UNL1        0.1644
     40 O          10.9021   82.2170   29.6977 O.3     1  UNL1       -0.3795
     41 C           9.7999   80.8898   31.4103 C.3     1  UNL1        0.1469
     42 C           8.9675   81.8552   32.2617 C.3     1  UNL1        0.0348
     43 O           9.3658   79.5496   31.6162 O.3     1  UNL1       -0.3304
     44 H          10.9575   80.7722   27.4702 H       1  UNL1        0.2104
     45 H          10.6007   83.0982   30.0404 H       1  UNL1        0.2105
     46 O           8.3018   76.6445   22.0621 O.3     1  UNL1       -0.3249
     47 C           8.2691   76.9861   20.6848 C.3     1  UNL1        0.2380
     48 C           6.8147   77.1705   20.1879 C.3     1  UNL1        0.0935
     49 C           6.7632   78.2532   19.1143 C.3     1  UNL1        0.1519
     50 C           7.2174   79.5778   19.7421 C.3     1  UNL1        0.1648
     51 O           7.5236   80.4813   18.7109 O.3     1  UNL1       -0.3795
     52 C           8.4558   79.3728   20.6705 C.3     1  UNL1        0.1469
     53 C           8.1350   79.6189   22.1546 C.3     1  UNL1        0.0348
     54 O           9.1016   78.1213   20.4634 O.3     1  UNL1       -0.3304
     55 H           7.5195   81.3886   19.1145 H       1  UNL1        0.2105
     56 O           5.4314   78.3902   18.6389 O.3     1  UNL1       -0.3302
     57 C           4.5119   77.6837   19.4523 C.3     1  UNL1        0.2376
     58 C           3.5056   76.9725   18.5298 C.3     1  UNL1        0.0931
     59 C           2.4732   76.1672   19.3436 C.3     1  UNL1        0.1450
     60 O           2.8828   74.8255   19.4266 O.3     1  UNL1       -0.3817
     61 C           2.2607   76.7634   20.7586 C.3     1  UNL1        0.1715
     62 C           2.5510   78.2835   20.7129 C.3     1  UNL1        0.1473
     63 C           2.2202   78.9538   22.0472 C.3     1  UNL1        0.0348
     64 O           3.9013   78.5837   20.3799 O.3     1  UNL1       -0.3304
     65 H           2.0762   74.2939   19.6560 H       1  UNL1        0.2104
     66 O           3.1504   76.1447   21.6815 O.3     1  UNL1       -0.3279
     67 C           3.1906   76.8369   22.9145 C.3     1  UNL1        0.2376
     68 C           4.6148   76.7251   23.4954 C.3     1  UNL1        0.0907
     69 C           4.6306   76.8383   25.0439 C.3     1  UNL1        0.1201
     70 C           5.9639   77.4712   25.4956 C.3     1  UNL1        0.0321
     71 O           4.5253   75.5369   25.5783 O.3     1  UNL1       -0.3841
     72 C           3.4202   77.6997   25.4955 C.3     1  UNL1        0.1620
     73 O           3.3767   77.8195   26.8969 O.3     1  UNL1       -0.3796
     74 C           2.0997   77.0449   24.9937 C.3     1  UNL1        0.1468
     75 C           0.9787   78.0748   24.8180 C.3     1  UNL1        0.0348
     76 O           2.2508   76.2673   23.8099 O.3     1  UNL1       -0.3304
     77 H           4.5674   75.6025   26.5681 H       1  UNL1        0.2103
     78 H           3.8989   78.6281   27.1394 H       1  UNL1        0.2105
     79 C          11.5682   74.9157   23.0899 C.3     1  UNL1        0.1778
     80 C          13.0015   76.7508   23.0532 C.3     1  UNL1        0.1746
     81 O          12.7765   75.4656   23.5920 O.3     1  UNL1       -0.3460
     82 C          11.8320   74.2855   21.7278 C.2     1  UNL1        0.2064
     83 O          11.7137   74.9916   20.7366 O.2     1  UNL1       -0.2909
     84 C          12.2583   72.8376   21.5295 C.3     1  UNL1        0.1970
     85 O          13.5678   72.6138   21.9900 O.3     1  UNL1       -0.3752
     86 H          13.5391   72.5342   22.9788 H       1  UNL1        0.2110
     87 C          11.2632   71.8348   22.1747 C.3     1  UNL1        0.1445
     88 C          11.2554   71.9087   23.7082 C.3     1  UNL1        0.0348
     89 O           9.9641   72.0516   21.6823 O.3     1  UNL1       -0.3815
     90 H           9.6995   72.9759   21.9327 H       1  UNL1        0.2105
@<TRIPOS>BOND
     1    80    81    1
     2    81    79    1
     3    79    82    1
     4    82    83    2
     5    82    84    1
     6    84    85    1
     7    84    87    1
     8    87    88    1
     9    87    89    1
    10    79     1    1
    11     1     2    1
    12     2    21    1
    13    21    22    1
    14     2     3    1
    15     3     4   ar
    16     4     5   ar
    17     5     6   ar
    18     6     7   ar
    19     7    24    1
    20    24    25    1
    21    25    26    1
    22    26    27    1
    23    27    34    1
    24    34    35    1
    25    35    36    1
    26    36    37    1
    27    37    38    1
    28    37    39    1
    29    39    40    1
    30    39    41    1
    31    41    42    1
    32    41    43    1
    33    27    28    1
    34    28    29    1
    35    28    30    1
    36    30    31    1
    37    30    32    1
    38     7     8   ar
    39     8     9    1
    40     8    10   ar
    41    10    11    1
    42    10    12   ar
    43    12    13   ar
    44    13    14    1
    45    13    15   ar
    46    15    16    1
    47    16    17    2
    48    16    18    1
    49    18    46    1
    50    46    47    1
    51    47    48    1
    52    48    49    1
    53    49    56    1
    54    56    57    1
    55    57    58    1
    56    58    59    1
    57    59    60    1
    58    59    61    1
    59    61    66    1
    60    66    67    1
    61    67    68    1
    62    68    69    1
    63    69    70    1
    64    69    71    1
    65    69    72    1
    66    72    73    1
    67    72    74    1
    68    74    75    1
    69    74    76    1
    70    61    62    1
    71    62    63    1
    72    62    64    1
    73    49    50    1
    74    50    51    1
    75    50    52    1
    76    52    53    1
    77    52    54    1
    78    18     1    1
    79    54    47    1
    80    15     3   ar
    81    64    57    1
    82    12     5   ar
    83    76    67    1
    84    32    25    1
    85    43    35    1
    86    85    86    1
    87    89    90    1
    88    22    23    1
    89    38    44    1
    90    40    45    1
    91    29    33    1
    92    11    19    1
    93    14    20    1
    94    60    65    1
    95    71    77    1
    96    73    78    1
    97    51    55    1
@<TRIPOS>MOLECULE
*****
 90 97 0 0 0
SMALL
GASTEIGER

@<TRIPOS>ATOM
      1 C           7.7475   76.2089   21.3057 C.3     1  UNL1        0.0758
      2 C           8.4618   77.6039   21.2215 C.3     1  UNL1        0.0574
      3 C           8.8410   78.1980   22.5747 C.ar    1  UNL1       -0.0141
      4 C           9.7854   79.2306   22.6051 C.ar    1  UNL1       -0.0037
      5 C          10.1351   79.8584   23.8041 C.ar    1  UNL1        0.0085
      6 C          11.0713   80.8975   23.7849 C.ar    1  UNL1        0.0370
      7 C          11.3962   81.5957   24.9552 C.ar    1  UNL1        0.1402
      8 C          10.8280   81.1994   26.1819 C.ar    1  UNL1        0.0459
      9 C          11.1906   81.9328   27.4516 C.3     1  UNL1        0.0374
     10 C           9.8715   80.1538   26.2122 C.ar    1  UNL1        0.1354
     11 O           9.2723   79.7812   27.4213 O.3     1  UNL1       -0.5056
     12 C           9.5120   79.4796   25.0150 C.ar    1  UNL1        0.0673
     13 C           8.5291   78.4554   24.9897 C.ar    1  UNL1        0.1389
     14 O           7.8090   78.1690   26.1544 O.3     1  UNL1       -0.5053
     15 C           8.2496   77.7657   23.7807 C.ar    1  UNL1        0.0670
     16 C           7.4107   76.5457   23.7535 C.2     1  UNL1        0.2026
     17 O           7.3174   75.8011   24.7668 O.2     1  UNL1       -0.2887
     18 C           6.7324   76.1362   22.4862 C.3     1  UNL1        0.1820
     19 H           9.4544   80.2333   28.3075 H       1  UNL1        0.2922
     20 H           6.9315   77.6668   26.1616 H       1  UNL1        0.2922
     21 C           7.6894   78.6282   20.3517 C.3     1  UNL1        0.1416
     22 O           6.4410   78.1489   19.9365 O.3     1  UNL1       -0.3816
     23 H           5.8422   78.1813   20.7255 H       1  UNL1        0.2105
     24 O          12.2660   82.7005   24.9307 O.3     1  UNL1       -0.4526
     25 C          13.6944   82.6466   25.0067 C.3     1  UNL1        0.2901
     26 C          14.3363   83.7279   24.1102 C.3     1  UNL1        0.1085
     27 C          13.8863   85.1423   24.5419 C.3     1  UNL1        0.1531
     28 C          13.6618   85.1900   26.0754 C.3     1  UNL1        0.1648
     29 O          13.9945   86.4606   26.5803 O.3     1  UNL1       -0.3795
     30 C          14.4450   84.0596   26.8037 C.3     1  UNL1        0.1480
     31 C          14.2294   84.1383   28.3165 C.3     1  UNL1        0.0349
     32 O          14.0789   82.7495   26.3742 O.3     1  UNL1       -0.3205
     33 H          14.9781   86.5687   26.4965 H       1  UNL1        0.2105
     34 O          12.6707   85.5196   23.9091 O.3     1  UNL1       -0.3301
     35 C          12.7729   86.7398   23.1915 C.3     1  UNL1        0.2376
     36 C          11.9356   86.6191   21.9037 C.3     1  UNL1        0.0931
     37 C          12.4795   87.5160   20.7740 C.3     1  UNL1        0.1446
     38 O          11.4142   87.9368   19.9608 O.3     1  UNL1       -0.3817
     39 C          13.2191   88.7298   21.3582 C.3     1  UNL1        0.1644
     40 O          13.7468   89.5059   20.3127 O.3     1  UNL1       -0.3795
     41 C          14.3636   88.2361   22.2917 C.3     1  UNL1        0.1469
     42 C          14.6918   89.2503   23.3933 C.3     1  UNL1        0.0348
     43 O          14.1328   86.9501   22.8573 O.3     1  UNL1       -0.3304
     44 H          11.8017   88.1830   19.0805 H       1  UNL1        0.2104
     45 H          13.9537   90.3983   20.6943 H       1  UNL1        0.2105
     46 O           5.6275   76.9994   22.2812 O.3     1  UNL1       -0.3249
     47 C           4.4446   76.5133   22.8971 C.3     1  UNL1        0.2380
     48 C           4.3685   76.9442   24.3819 C.3     1  UNL1        0.0935
     49 C           2.9158   77.1813   24.7829 C.3     1  UNL1        0.1519
     50 C           2.3610   78.3305   23.9306 C.3     1  UNL1        0.1648
     51 O           0.9590   78.3187   24.0196 O.3     1  UNL1       -0.3795
     52 C           2.8119   78.2040   22.4412 C.3     1  UNL1        0.1469
     53 C           3.7786   79.3218   22.0145 C.3     1  UNL1        0.0348
     54 O           3.3158   76.9111   22.1234 O.3     1  UNL1       -0.3304
     55 H           0.6459   79.2140   23.7254 H       1  UNL1        0.2105
     56 O           2.8529   77.5411   26.1559 O.3     1  UNL1       -0.3302
     57 C           3.9507   77.0190   26.8828 C.3     1  UNL1        0.2376
     58 C           3.8741   75.4827   26.8272 C.3     1  UNL1        0.0931
     59 C           5.0478   74.8361   27.5893 C.3     1  UNL1        0.1450
     60 O           6.0750   74.5146   26.6859 O.3     1  UNL1       -0.3817
     61 C           5.5797   75.7552   28.7187 C.3     1  UNL1        0.1715
     62 C           4.4265   76.6612   29.2151 C.3     1  UNL1        0.1473
     63 C           4.8527   77.4908   30.4272 C.3     1  UNL1        0.0348
     64 O           3.9404   77.5452   28.2118 O.3     1  UNL1       -0.3304
     65 H           6.6442   73.8334   27.1306 H       1  UNL1        0.2104
     66 O           6.6343   76.5709   28.2204 O.3     1  UNL1       -0.3279
     67 C           7.9009   76.1093   28.6493 C.3     1  UNL1        0.2376
     68 C           8.9916   76.8532   27.8523 C.3     1  UNL1        0.0907
     69 C          10.3011   76.0275   27.7326 C.3     1  UNL1        0.1201
     70 C          11.5056   76.9894   27.6561 C.3     1  UNL1        0.0321
     71 O          10.2319   75.2683   26.5455 O.3     1  UNL1       -0.3841
     72 C          10.4134   75.0856   28.9619 C.3     1  UNL1        0.1620
     73 O          11.5779   74.2986   28.8942 O.3     1  UNL1       -0.3796
     74 C           9.1662   74.1554   29.0204 C.3     1  UNL1        0.1468
     75 C           8.8675   73.6844   30.4476 C.3     1  UNL1        0.0348
     76 O           7.9981   74.7129   28.4257 O.3     1  UNL1       -0.3304
     77 H          11.0814   74.7633   26.4490 H       1  UNL1        0.2103
     78 H          12.2998   74.8010   29.3545 H       1  UNL1        0.2105
     79 C           8.8083   75.0606   21.3657 C.3     1  UNL1        0.1778
     80 C           7.9139   72.9307   21.6602 C.3     1  UNL1        0.1746
     81 O           8.3912   74.0884   22.3118 O.3     1  UNL1       -0.3460
     82 C          10.2065   75.5459   21.7286 C.2     1  UNL1        0.2064
     83 O          10.7524   76.3382   20.9741 O.2     1  UNL1       -0.2909
     84 C          10.9530   75.1231   22.9862 C.3     1  UNL1        0.1970
     85 O          10.0700   74.8249   24.0390 O.3     1  UNL1       -0.3752
     86 H           9.6961   73.9191   23.8826 H       1  UNL1        0.2110
     87 C          11.9272   73.9419   22.7263 C.3     1  UNL1        0.1445
     88 C          11.4002   72.6062   23.2698 C.3     1  UNL1        0.0348
     89 O          12.1938   73.8229   21.3509 O.3     1  UNL1       -0.3815
     90 H          11.3313   73.6371   20.8939 H       1  UNL1        0.2105
@<TRIPOS>BOND
     1    80    81    1
     2    81    79    1
     3    79    82    1
     4    82    83    2
     5    82    84    1
     6    84    85    1
     7    84    87    1
     8    87    88    1
     9    87    89    1
    10    79     1    1
    11     1     2    1
    12     2    21    1
    13    21    22    1
    14     2     3    1
    15     3     4   ar
    16     4     5   ar
    17     5     6   ar
    18     6     7   ar
    19     7    24    1
    20    24    25    1
    21    25    26    1
    22    26    27    1
    23    27    34    1
    24    34    35    1
    25    35    36    1
    26    36    37    1
    27    37    38    1
    28    37    39    1
    29    39    40    1
    30    39    41    1
    31    41    42    1
    32    41    43    1
    33    27    28    1
    34    28    29    1
    35    28    30    1
    36    30    31    1
    37    30    32    1
    38     7     8   ar
    39     8     9    1
    40     8    10   ar
    41    10    11    1
    42    10    12   ar
    43    12    13   ar
    44    13    14    1
    45    13    15   ar
    46    15    16    1
    47    16    17    2
    48    16    18    1
    49    18    46    1
    50    46    47    1
    51    47    48    1
    52    48    49    1
    53    49    56    1
    54    56    57    1
    55    57    58    1
    56    58    59    1
    57    59    60    1
    58    59    61    1
    59    61    66    1
    60    66    67    1
    61    67    68    1
    62    68    69    1
    63    69    70    1
    64    69    71    1
    65    69    72    1
    66    72    73    1
    67    72    74    1
    68    74    75    1
    69    74    76    1
    70    61    62    1
    71    62    63    1
    72    62    64    1
    73    49    50    1
    74    50    51    1
    75    50    52    1
    76    52    53    1
    77    52    54    1
    78    18     1    1
    79    54    47    1
    80    15     3   ar
    81    64    57    1
    82    12     5   ar
    83    76    67    1
    84    32    25    1
    85    43    35    1
    86    85    86    1
    87    89    90    1
    88    22    23    1
    89    38    44    1
    90    40    45    1
    91    29    33    1
    92    11    19    1
    93    14    20    1
    94    60    65    1
    95    71    77    1
    96    73    78    1
    97    51    55    1
@<TRIPOS>MOLECULE
*****
 90 97 0 0 0
SMALL
GASTEIGER

@<TRIPOS>ATOM
      1 C          11.0983   77.4144   23.1269 C.3     1  UNL1        0.0758
      2 C          10.5775   77.7054   24.5786 C.3     1  UNL1        0.0574
      3 C           9.5469   76.7027   25.0888 C.ar    1  UNL1       -0.0141
      4 C           9.2971   76.6496   26.4649 C.ar    1  UNL1       -0.0037
      5 C           8.3247   75.7955   26.9930 C.ar    1  UNL1        0.0085
      6 C           8.0969   75.7879   28.3732 C.ar    1  UNL1        0.0370
      7 C           7.0850   74.9963   28.9316 C.ar    1  UNL1        0.1402
      8 C           6.3340   74.1404   28.1021 C.ar    1  UNL1        0.0459
      9 C           5.2563   73.2670   28.7000 C.3     1  UNL1        0.0374
     10 C           6.5497   74.1462   26.7012 C.ar    1  UNL1        0.1354
     11 O           5.7797   73.3282   25.8658 O.3     1  UNL1       -0.5056
     12 C           7.5465   74.9848   26.1355 C.ar    1  UNL1        0.0673
     13 C           7.7701   75.0554   24.7351 C.ar    1  UNL1        0.1389
     14 O           6.9154   74.3638   23.8701 O.3     1  UNL1       -0.5053
     15 C           8.8209   75.8595   24.2210 C.ar    1  UNL1        0.0670
     16 C           9.2388   75.7851   22.8022 C.2     1  UNL1        0.2026
     17 O           9.0618   74.7335   22.1292 O.2     1  UNL1       -0.2887
     18 C           9.9597   76.9351   22.1766 C.3     1  UNL1        0.1820
     19 H           5.0335   72.7280   26.1910 H       1  UNL1        0.2922
     20 H           6.8304   74.5689   22.8837 H       1  UNL1        0.2922
     21 C          10.0867   79.1637   24.7650 C.3     1  UNL1        0.1416
     22 O           9.9845   79.8564   23.5525 O.3     1  UNL1       -0.3816
     23 H           9.1775   79.5131   23.0908 H       1  UNL1        0.2105
     24 O           6.7873   75.0505   30.3050 O.3     1  UNL1       -0.4526
     25 C           5.5260   75.4120   30.8773 C.3     1  UNL1        0.2901
     26 C           5.6773   76.6178   31.8303 C.3     1  UNL1        0.1085
     27 C           6.2337   77.8492   31.0795 C.3     1  UNL1        0.1531
     28 C           5.7334   77.8550   29.6119 C.3     1  UNL1        0.1648
     29 O           5.5542   79.1756   29.1603 O.3     1  UNL1       -0.3795
     30 C           4.4368   77.0104   29.4461 C.3     1  UNL1        0.1480
     31 C           3.9467   77.0482   27.9971 C.3     1  UNL1        0.0349
     32 O           4.5995   75.6436   29.8206 O.3     1  UNL1       -0.3205
     33 H           4.7864   79.5614   29.6581 H       1  UNL1        0.2105
     34 O           7.6550   77.8496   31.0579 O.3     1  UNL1       -0.3301
     35 C           8.2057   79.1156   30.7289 C.3     1  UNL1        0.2376
     36 C           8.8142   79.0299   29.3160 C.3     1  UNL1        0.0931
     37 C           9.9778   80.0230   29.1261 C.3     1  UNL1        0.1446
     38 O          10.0228   80.4352   27.7840 O.3     1  UNL1       -0.3817
     39 C           9.8074   81.2365   30.0535 C.3     1  UNL1        0.1644
     40 O          10.9023   82.1032   29.8985 O.3     1  UNL1       -0.3795
     41 C           9.7130   80.7485   31.5293 C.3     1  UNL1        0.1469
     42 C           8.9022   81.7088   32.4070 C.3     1  UNL1        0.0348
     43 O           9.2218   79.4194   31.6673 O.3     1  UNL1       -0.3304
     44 H          10.9462   80.7560   27.6105 H       1  UNL1        0.2104
     45 H          10.6292   82.9802   30.2743 H       1  UNL1        0.2105
     46 O           9.0158   77.9628   21.9297 O.3     1  UNL1       -0.3249
     47 C           7.8513   77.4775   21.2791 C.3     1  UNL1        0.2380
     48 C           6.6209   78.3600   21.6012 C.3     1  UNL1        0.0935
     49 C           5.6840   78.4085   20.3982 C.3     1  UNL1        0.1519
     50 C           6.4347   79.0572   19.2273 C.3     1  UNL1        0.1648
     51 O           5.7367   78.7824   18.0396 O.3     1  UNL1       -0.3795
     52 C           7.9014   78.5310   19.1299 C.3     1  UNL1        0.1469
     53 C           8.9454   79.6144   19.4497 C.3     1  UNL1        0.0348
     54 O           8.1147   77.3433   19.8851 O.3     1  UNL1       -0.3304
     55 H           6.0523   79.4380   17.3638 H       1  UNL1        0.2105
     56 O           4.5411   79.1906   20.7152 O.3     1  UNL1       -0.3302
     57 C           3.5816   78.4421   21.4400 C.3     1  UNL1        0.2376
     58 C           2.6220   79.4312   22.1257 C.3     1  UNL1        0.0931
     59 C           1.5349   78.6900   22.9292 C.3     1  UNL1        0.1450
     60 O           0.3717   78.5725   22.1494 O.3     1  UNL1       -0.3817
     61 C           2.0179   77.2962   23.4054 C.3     1  UNL1        0.1715
     62 C           3.5567   77.3272   23.5732 C.3     1  UNL1        0.1473
     63 C           4.0771   76.0226   24.1785 C.3     1  UNL1        0.0348
     64 O           4.2463   77.5641   22.3514 O.3     1  UNL1       -0.3304
     65 H          -0.3774   78.3993   22.7776 H       1  UNL1        0.2104
     66 O           1.6723   76.3097   22.4394 O.3     1  UNL1       -0.3279
     67 C           2.7098   76.1122   21.4982 C.3     1  UNL1        0.2376
     68 C           2.2084   76.5630   20.1113 C.3     1  UNL1        0.0907
     69 C           2.9344   75.8258   18.9535 C.3     1  UNL1        0.1201
     70 C           3.0052   76.7541   17.7225 C.3     1  UNL1        0.0321
     71 O           2.1846   74.6754   18.6299 O.3     1  UNL1       -0.3841
     72 C           4.3549   75.4194   19.4312 C.3     1  UNL1        0.1620
     73 O           5.0521   74.7295   18.4223 O.3     1  UNL1       -0.3796
     74 C           4.2402   74.5114   20.6908 C.3     1  UNL1        0.1468
     75 C           5.4906   74.5924   21.5728 C.3     1  UNL1        0.0348
     76 O           3.0681   74.7411   21.4671 O.3     1  UNL1       -0.3304
     77 H           2.6286   74.2184   17.8684 H       1  UNL1        0.2103
     78 H           5.5468   75.4064   17.8909 H       1  UNL1        0.2105
     79 C          12.2943   76.4069   23.1730 C.3     1  UNL1        0.1778
     80 C          14.3631   77.3469   23.6827 C.3     1  UNL1        0.1746
     81 O          13.4542   77.0347   22.6487 O.3     1  UNL1       -0.3460
     82 C          12.0306   75.1181   22.4039 C.2     1  UNL1        0.2064
     83 O          11.8090   75.2012   21.2044 O.2     1  UNL1       -0.2909
     84 C          12.0518   73.7327   23.0346 C.3     1  UNL1        0.1970
     85 O          10.9108   73.5036   23.8237 O.3     1  UNL1       -0.3752
     86 H          10.1552   73.2838   23.2191 H       1  UNL1        0.2110
     87 C          12.2345   72.6064   21.9810 C.3     1  UNL1        0.1445
     88 C          10.9410   71.8218   21.7194 C.3     1  UNL1        0.0348
     89 O          12.7177   73.1413   20.7738 O.3     1  UNL1       -0.3815
     90 H          12.0412   73.7884   20.4411 H       1  UNL1        0.2105
@<TRIPOS>BOND
     1    80    81    1
     2    81    79    1
     3    79    82    1
     4    82    83    2
     5    82    84    1
     6    84    85    1
     7    84    87    1
     8    87    88    1
     9    87    89    1
    10    79     1    1
    11     1     2    1
    12     2    21    1
    13    21    22    1
    14     2     3    1
    15     3     4   ar
    16     4     5   ar
    17     5     6   ar
    18     6     7   ar
    19     7    24    1
    20    24    25    1
    21    25    26    1
    22    26    27    1
    23    27    34    1
    24    34    35    1
    25    35    36    1
    26    36    37    1
    27    37    38    1
    28    37    39    1
    29    39    40    1
    30    39    41    1
    31    41    42    1
    32    41    43    1
    33    27    28    1
    34    28    29    1
    35    28    30    1
    36    30    31    1
    37    30    32    1
    38     7     8   ar
    39     8     9    1
    40     8    10   ar
    41    10    11    1
    42    10    12   ar
    43    12    13   ar
    44    13    14    1
    45    13    15   ar
    46    15    16    1
    47    16    17    2
    48    16    18    1
    49    18    46    1
    50    46    47    1
    51    47    48    1
    52    48    49    1
    53    49    56    1
    54    56    57    1
    55    57    58    1
    56    58    59    1
    57    59    60    1
    58    59    61    1
    59    61    66    1
    60    66    67    1
    61    67    68    1
    62    68    69    1
    63    69    70    1
    64    69    71    1
    65    69    72    1
    66    72    73    1
    67    72    74    1
    68    74    75    1
    69    74    76    1
    70    61    62    1
    71    62    63    1
    72    62    64    1
    73    49    50    1
    74    50    51    1
    75    50    52    1
    76    52    53    1
    77    52    54    1
    78    18     1    1
    79    54    47    1
    80    15     3   ar
    81    64    57    1
    82    12     5   ar
    83    76    67    1
    84    32    25    1
    85    43    35    1
    86    85    86    1
    87    89    90    1
    88    22    23    1
    89    38    44    1
    90    40    45    1
    91    29    33    1
    92    11    19    1
    93    14    20    1
    94    60    65    1
    95    71    77    1
    96    73    78    1
    97    51    55    1
@<TRIPOS>MOLECULE
*****
 90 97 0 0 0
SMALL
GASTEIGER

@<TRIPOS>ATOM
      1 C          10.5791   76.4553   23.2519 C.3     1  UNL1        0.0758
      2 C          10.2587   76.8779   24.7291 C.3     1  UNL1        0.0574
      3 C           9.1693   76.0452   25.3982 C.ar    1  UNL1       -0.0141
      4 C           9.0640   76.0877   26.7933 C.ar    1  UNL1       -0.0037
      5 C           8.0530   75.3952   27.4657 C.ar    1  UNL1        0.0085
      6 C           7.9757   75.4799   28.8598 C.ar    1  UNL1        0.0370
      7 C           6.9369   74.8559   29.5626 C.ar    1  UNL1        0.1402
      8 C           5.9981   74.0712   28.8645 C.ar    1  UNL1        0.0459
      9 C           4.8882   73.3767   29.6179 C.3     1  UNL1        0.0374
     10 C           6.0610   73.9853   27.4511 C.ar    1  UNL1        0.1354
     11 O           5.1077   73.2403   26.7468 O.3     1  UNL1       -0.5056
     12 C           7.0901   74.6576   26.7398 C.ar    1  UNL1        0.0673
     13 C           7.1691   74.6348   25.3223 C.ar    1  UNL1        0.1389
     14 O           6.1452   74.0250   24.5896 O.3     1  UNL1       -0.5053
     15 C           8.2527   75.2679   24.6588 C.ar    1  UNL1        0.0670
     16 C           8.5027   75.0750   23.2120 C.2     1  UNL1        0.2026
     17 O           8.1217   74.0272   22.6230 O.2     1  UNL1       -0.2887
     18 C           9.2932   76.0896   22.4507 C.3     1  UNL1        0.1820
     19 H           4.3302   72.7601   27.1800 H       1  UNL1        0.2922
     20 H           5.9817   74.1950   23.6065 H       1  UNL1        0.2922
     21 C           9.9809   78.3954   24.8781 C.3     1  UNL1        0.1416
     22 O          11.0923   79.1020   25.3537 O.3     1  UNL1       -0.3816
     23 H          11.7356   79.1679   24.6026 H       1  UNL1        0.2105
     24 O           6.7979   75.0109   30.9535 O.3     1  UNL1       -0.4526
     25 C           5.6251   75.4695   31.6343 C.3     1  UNL1        0.2901
     26 C           5.9066   76.7840   32.3946 C.3     1  UNL1        0.1085
     27 C           6.3635   77.8969   31.4240 C.3     1  UNL1        0.1531
     28 C           5.6729   77.7253   30.0464 C.3     1  UNL1        0.1648
     29 O           5.4408   78.9807   29.4546 O.3     1  UNL1       -0.3795
     30 C           4.3624   76.8943   30.1629 C.3     1  UNL1        0.1480
     31 C           3.6844   76.7565   28.7981 C.3     1  UNL1        0.0349
     32 O           4.5677   75.5836   30.6871 O.3     1  UNL1       -0.3205
     33 H           4.7475   79.4434   29.9944 H       1  UNL1        0.2105
     34 O           7.7694   77.8643   31.2165 O.3     1  UNL1       -0.3301
     35 C           8.2975   79.1106   30.7899 C.3     1  UNL1        0.2376
     36 C           8.8891   78.9316   29.3786 C.3     1  UNL1        0.0931
     37 C          10.0357   79.9241   29.1018 C.3     1  UNL1        0.1446
     38 O          10.0577   80.2392   27.7331 O.3     1  UNL1       -0.3817
     39 C           9.8596   81.1989   29.9419 C.3     1  UNL1        0.1644
     40 O          10.9398   82.0668   29.7101 O.3     1  UNL1       -0.3795
     41 C           9.7911   80.8171   31.4501 C.3     1  UNL1        0.1469
     42 C           8.9778   81.8271   32.2676 C.3     1  UNL1        0.0348
     43 O           9.3209   79.4948   31.6900 O.3     1  UNL1       -0.3304
     44 H          10.9740   80.5591   27.5243 H       1  UNL1        0.2104
     45 H          10.6589   82.9649   30.0256 H       1  UNL1        0.2105
     46 O           8.4672   77.2216   22.2403 O.3     1  UNL1       -0.3249
     47 C           7.8152   77.1839   20.9800 C.3     1  UNL1        0.2380
     48 C           6.3779   77.7508   21.0758 C.3     1  UNL1        0.0935
     49 C           6.0095   78.4615   19.7771 C.3     1  UNL1        0.1519
     50 C           6.9694   79.6433   19.5842 C.3     1  UNL1        0.1648
     51 O           6.8878   80.0743   18.2496 O.3     1  UNL1       -0.3795
     52 C           8.4376   79.2480   19.9388 C.3     1  UNL1        0.1469
     53 C           8.9619   79.9678   21.1930 C.3     1  UNL1        0.0348
     54 O           8.6294   77.8393   20.0113 O.3     1  UNL1       -0.3304
     55 H           7.2668   80.9917   18.2214 H       1  UNL1        0.2105
     56 O           4.6768   78.9469   19.8608 O.3     1  UNL1       -0.3302
     57 C           3.7443   77.8896   19.9979 C.3     1  UNL1        0.2376
     58 C           3.1143   77.9862   21.3990 C.3     1  UNL1        0.0931
     59 C           2.0736   76.8710   21.6225 C.3     1  UNL1        0.1450
     60 O           0.7880   77.3644   21.3425 O.3     1  UNL1       -0.3817
     61 C           2.3777   75.6166   20.7640 C.3     1  UNL1        0.1715
     62 C           3.9023   75.5417   20.5047 C.3     1  UNL1        0.1473
     63 C           4.2813   74.2476   19.7833 C.3     1  UNL1        0.0348
     64 O           4.3937   76.6411   19.7469 O.3     1  UNL1       -0.3304
     65 H           0.1444   76.7574   21.7931 H       1  UNL1        0.2104
     66 O           1.6951   75.7073   19.5183 O.3     1  UNL1       -0.3279
     67 C           0.4772   74.9877   19.5348 C.3     1  UNL1        0.2376
     68 C           0.7957   73.4800   19.4750 C.3     1  UNL1        0.0907
     69 C          -0.3598   72.6579   18.8427 C.3     1  UNL1        0.1201
     70 C          -0.3767   71.2433   19.4599 C.3     1  UNL1        0.0321
     71 O          -0.1190   72.5608   17.4560 O.3     1  UNL1       -0.3841
     72 C          -1.7004   73.3977   19.1006 C.3     1  UNL1        0.1620
     73 O          -2.7824   72.7019   18.5306 O.3     1  UNL1       -0.3796
     74 C          -1.6304   74.8288   18.4912 C.3     1  UNL1        0.1468
     75 C          -2.5681   75.8051   19.2092 C.3     1  UNL1        0.0348
     76 O          -0.3128   75.3656   18.4203 O.3     1  UNL1       -0.3304
     77 H          -0.8390   72.0084   17.0530 H       1  UNL1        0.2103
     78 H          -3.1253   72.0753   19.2200 H       1  UNL1        0.2105
     79 C          11.6346   75.3007   23.2363 C.3     1  UNL1        0.1778
     80 C          13.0437   77.1520   23.1340 C.3     1  UNL1        0.1746
     81 O          12.9048   75.8243   23.5927 O.3     1  UNL1       -0.3460
     82 C          11.7426   74.5967   21.8892 C.2     1  UNL1        0.2064
     83 O          11.8217   75.2895   20.8848 O.2     1  UNL1       -0.2909
     84 C          11.7833   73.0842   21.7217 C.3     1  UNL1        0.1970
     85 O          13.1020   72.5961   21.7275 O.3     1  UNL1       -0.3752
     86 H          13.4154   72.5617   22.6684 H       1  UNL1        0.2110
     87 C          10.9138   72.3488   22.7777 C.3     1  UNL1        0.1445
     88 C           9.8969   71.3879   22.1454 C.3     1  UNL1        0.0348
     89 O          11.7321   71.6474   23.6806 O.3     1  UNL1       -0.3815
     90 H          12.2450   70.9748   23.1592 H       1  UNL1        0.2105
@<TRIPOS>BOND
     1    80    81    1
     2    81    79    1
     3    79    82    1
     4    82    83    2
     5    82    84    1
     6    84    85    1
     7    84    87    1
     8    87    88    1
     9    87    89    1
    10    79     1    1
    11     1     2    1
    12     2    21    1
    13    21    22    1
    14     2     3    1
    15     3     4   ar
    16     4     5   ar
    17     5     6   ar
    18     6     7   ar
    19     7    24    1
    20    24    25    1
    21    25    26    1
    22    26    27    1
    23    27    34    1
    24    34    35    1
    25    35    36    1
    26    36    37    1
    27    37    38    1
    28    37    39    1
    29    39    40    1
    30    39    41    1
    31    41    42    1
    32    41    43    1
    33    27    28    1
    34    28    29    1
    35    28    30    1
    36    30    31    1
    37    30    32    1
    38     7     8   ar
    39     8     9    1
    40     8    10   ar
    41    10    11    1
    42    10    12   ar
    43    12    13   ar
    44    13    14    1
    45    13    15   ar
    46    15    16    1
    47    16    17    2
    48    16    18    1
    49    18    46    1
    50    46    47    1
    51    47    48    1
    52    48    49    1
    53    49    56    1
    54    56    57    1
    55    57    58    1
    56    58    59    1
    57    59    60    1
    58    59    61    1
    59    61    66    1
    60    66    67    1
    61    67    68    1
    62    68    69    1
    63    69    70    1
    64    69    71    1
    65    69    72    1
    66    72    73    1
    67    72    74    1
    68    74    75    1
    69    74    76    1
    70    61    62    1
    71    62    63    1
    72    62    64    1
    73    49    50    1
    74    50    51    1
    75    50    52    1
    76    52    53    1
    77    52    54    1
    78    18     1    1
    79    54    47    1
    80    15     3   ar
    81    64    57    1
    82    12     5   ar
    83    76    67    1
    84    32    25    1
    85    43    35    1
    86    85    86    1
    87    89    90    1
    88    22    23    1
    89    38    44    1
    90    40    45    1
    91    29    33    1
    92    11    19    1
    93    14    20    1
    94    60    65    1
    95    71    77    1
    96    73    78    1
    97    51    55    1
@<TRIPOS>MOLECULE
*****
 90 97 0 0 0
SMALL
GASTEIGER

@<TRIPOS>ATOM
      1 C          11.0895   77.5349   23.0554 C.3     1  UNL1        0.0758
      2 C          10.5240   77.7959   24.4960 C.3     1  UNL1        0.0574
      3 C           9.5154   76.7552   24.9728 C.ar    1  UNL1       -0.0141
      4 C           9.2340   76.6821   26.3420 C.ar    1  UNL1       -0.0037
      5 C           8.2781   75.7917   26.8393 C.ar    1  UNL1        0.0085
      6 C           8.0172   75.7647   28.2133 C.ar    1  UNL1        0.0370
      7 C           7.0189   74.9352   28.7405 C.ar    1  UNL1        0.1402
      8 C           6.3173   74.0620   27.8862 C.ar    1  UNL1        0.0459
      9 C           5.2552   73.1482   28.4506 C.3     1  UNL1        0.0374
     10 C           6.5668   74.0870   26.4912 C.ar    1  UNL1        0.1354
     11 O           5.8451   73.2511   25.6307 O.3     1  UNL1       -0.5056
     12 C           7.5485   74.9631   25.9566 C.ar    1  UNL1        0.0673
     13 C           7.8037   75.0530   24.5628 C.ar    1  UNL1        0.1389
     14 O           6.9939   74.3409   23.6716 O.3     1  UNL1       -0.5053
     15 C           8.8393   75.8959   24.0809 C.ar    1  UNL1        0.0670
     16 C           9.2938   75.8476   22.6723 C.2     1  UNL1        0.2026
     17 O           9.1685   74.7966   21.9870 O.2     1  UNL1       -0.2887
     18 C           9.9910   77.0262   22.0736 C.3     1  UNL1        0.1820
     19 H           5.1116   72.6237   25.9328 H       1  UNL1        0.2922
     20 H           6.9261   74.5515   22.6851 H       1  UNL1        0.2922
     21 C           9.9804   79.2355   24.6815 C.3     1  UNL1        0.1416
     22 O           8.7981   79.4609   23.9661 O.3     1  UNL1       -0.3816
     23 H           8.0727   78.9919   24.4519 H       1  UNL1        0.2105
     24 O           6.6863   74.9678   30.1066 O.3     1  UNL1       -0.4526
     25 C           5.4078   75.3105   30.6516 C.3     1  UNL1        0.2901
     26 C           5.5294   76.4826   31.6499 C.3     1  UNL1        0.1085
     27 C           6.1087   77.7385   30.9597 C.3     1  UNL1        0.1531
     28 C           5.6541   77.7955   29.4784 C.3     1  UNL1        0.1648
     29 O           5.4888   79.1311   29.0673 O.3     1  UNL1       -0.3795
     30 C           4.3634   76.9584   29.2434 C.3     1  UNL1        0.1480
     31 C           3.9184   77.0466   27.7821 C.3     1  UNL1        0.0349
     32 O           4.5145   75.5794   29.5754 O.3     1  UNL1       -0.3205
     33 H           4.7060   79.5002   29.5540 H       1  UNL1        0.2105
     34 O           7.5300   77.7383   30.9822 O.3     1  UNL1       -0.3301
     35 C           8.0912   79.0047   30.6730 C.3     1  UNL1        0.2376
     36 C           8.6952   78.9373   29.2572 C.3     1  UNL1        0.0931
     37 C           9.8672   79.9231   29.0808 C.3     1  UNL1        0.1446
     38 O           9.9124   80.3574   27.7457 O.3     1  UNL1       -0.3817
     39 C           9.7101   81.1224   30.0289 C.3     1  UNL1        0.1644
     40 O          10.8122   81.9817   29.8855 O.3     1  UNL1       -0.3795
     41 C           9.6151   80.6104   31.4965 C.3     1  UNL1        0.1469
     42 C           8.8152   81.5631   32.3924 C.3     1  UNL1        0.0348
     43 O           9.1124   79.2836   31.6136 O.3     1  UNL1       -0.3304
     44 H          10.8382   80.6728   27.5750 H       1  UNL1        0.2104
     45 H          10.5480   82.8547   30.2767 H       1  UNL1        0.2105
     46 O           9.0196   78.0241   21.8116 O.3     1  UNL1       -0.3249
     47 C           8.0080   77.5694   20.9257 C.3     1  UNL1        0.2380
     48 C           6.6298   78.1707   21.2935 C.3     1  UNL1        0.0935
     49 C           5.8052   78.3975   20.0301 C.3     1  UNL1        0.1519
     50 C           6.5422   79.4149   19.1487 C.3     1  UNL1        0.1648
     51 O           6.0027   79.3596   17.8527 O.3     1  UNL1       -0.3795
     52 C           8.0768   79.1295   19.1110 C.3     1  UNL1        0.1469
     53 C           8.9036   80.2251   19.8053 C.3     1  UNL1        0.0348
     54 O           8.4095   77.8285   19.5831 O.3     1  UNL1       -0.3304
     55 H           6.2676   80.2008   17.3962 H       1  UNL1        0.2105
     56 O           4.5294   78.9154   20.3801 O.3     1  UNL1       -0.3302
     57 C           3.5503   77.8937   20.4403 C.3     1  UNL1        0.2376
     58 C           2.7613   78.0640   21.7509 C.3     1  UNL1        0.0931
     59 C           1.6625   76.9911   21.8859 C.3     1  UNL1        0.1450
     60 O           0.4378   77.5128   21.4358 O.3     1  UNL1       -0.3817
     61 C           2.0223   75.6955   21.1146 C.3     1  UNL1        0.1715
     62 C           3.5633   75.5635   21.0439 C.3     1  UNL1        0.1473
     63 C           3.9798   74.2312   20.4190 C.3     1  UNL1        0.0348
     64 O           4.1804   76.6169   20.3131 O.3     1  UNL1       -0.3304
     65 H          -0.2761   76.9440   21.8263 H       1  UNL1        0.2104
     66 O           1.4970   75.7590   19.7932 O.3     1  UNL1       -0.3279
     67 C           0.3002   75.0150   19.6691 C.3     1  UNL1        0.2376
     68 C           0.6628   73.5296   19.4682 C.3     1  UNL1        0.0907
     69 C          -0.4361   72.7541   18.6924 C.3     1  UNL1        0.1201
     70 C          -0.4453   71.2820   19.1558 C.3     1  UNL1        0.0321
     71 O          -0.1229   72.8104   17.3179 O.3     1  UNL1       -0.3841
     72 C          -1.8079   73.4326   18.9548 C.3     1  UNL1        0.1620
     73 O          -2.8402   72.7777   18.2580 O.3     1  UNL1       -0.3796
     74 C          -1.7466   74.9216   18.5037 C.3     1  UNL1        0.1468
     75 C          -2.7461   75.7951   19.2693 C.3     1  UNL1        0.0348
     76 O          -0.4425   75.4918   18.5599 O.3     1  UNL1       -0.3304
     77 H          -0.8060   72.2883   16.8213 H       1  UNL1        0.2103
     78 H          -3.2001   72.0739   18.8585 H       1  UNL1        0.2105
     79 C          12.3169   76.5673   23.1230 C.3     1  UNL1        0.1778
     80 C          12.1407   74.2816   23.5325 C.3     1  UNL1        0.1746
     81 O          12.0724   75.5707   24.1036 O.3     1  UNL1       -0.3460
     82 C          13.6286   77.2740   23.4426 C.2     1  UNL1        0.2064
     83 O          14.5287   77.2130   22.6173 O.2     1  UNL1       -0.2909
     84 C          13.8759   78.0718   24.7152 C.3     1  UNL1        0.1970
     85 O          13.2991   77.4516   25.8376 O.3     1  UNL1       -0.3752
     86 H          13.8905   76.7056   26.1174 H       1  UNL1        0.2110
     87 C          15.3845   78.3558   24.9511 C.3     1  UNL1        0.1445
     88 C          15.9421   79.4294   24.0058 C.3     1  UNL1        0.0348
     89 O          15.6062   78.7372   26.2861 O.3     1  UNL1       -0.3815
     90 H          15.0911   79.5711   26.4487 H       1  UNL1        0.2105
@<TRIPOS>BOND
     1    80    81    1
     2    81    79    1
     3    79    82    1
     4    82    83    2
     5    82    84    1
     6    84    85    1
     7    84    87    1
     8    87    88    1
     9    87    89    1
    10    79     1    1
    11     1     2    1
    12     2    21    1
    13    21    22    1
    14     2     3    1
    15     3     4   ar
    16     4     5   ar
    17     5     6   ar
    18     6     7   ar
    19     7    24    1
    20    24    25    1
    21    25    26    1
    22    26    27    1
    23    27    34    1
    24    34    35    1
    25    35    36    1
    26    36    37    1
    27    37    38    1
    28    37    39    1
    29    39    40    1
    30    39    41    1
    31    41    42    1
    32    41    43    1
    33    27    28    1
    34    28    29    1
    35    28    30    1
    36    30    31    1
    37    30    32    1
    38     7     8   ar
    39     8     9    1
    40     8    10   ar
    41    10    11    1
    42    10    12   ar
    43    12    13   ar
    44    13    14    1
    45    13    15   ar
    46    15    16    1
    47    16    17    2
    48    16    18    1
    49    18    46    1
    50    46    47    1
    51    47    48    1
    52    48    49    1
    53    49    56    1
    54    56    57    1
    55    57    58    1
    56    58    59    1
    57    59    60    1
    58    59    61    1
    59    61    66    1
    60    66    67    1
    61    67    68    1
    62    68    69    1
    63    69    70    1
    64    69    71    1
    65    69    72    1
    66    72    73    1
    67    72    74    1
    68    74    75    1
    69    74    76    1
    70    61    62    1
    71    62    63    1
    72    62    64    1
    73    49    50    1
    74    50    51    1
    75    50    52    1
    76    52    53    1
    77    52    54    1
    78    18     1    1
    79    54    47    1
    80    15     3   ar
    81    64    57    1
    82    12     5   ar
    83    76    67    1
    84    32    25    1
    85    43    35    1
    86    85    86    1
    87    89    90    1
    88    22    23    1
    89    38    44    1
    90    40    45    1
    91    29    33    1
    92    11    19    1
    93    14    20    1
    94    60    65    1
    95    71    77    1
    96    73    78    1
    97    51    55    1
@<TRIPOS>MOLECULE
*****
 90 97 0 0 0
SMALL
GASTEIGER

@<TRIPOS>ATOM
      1 C           7.7693   76.1534   21.4084 C.3     1  UNL1        0.0758
      2 C           8.4316   77.5691   21.2652 C.3     1  UNL1        0.0574
      3 C           8.8863   78.1860   22.5844 C.ar    1  UNL1       -0.0141
      4 C           9.7976   79.2476   22.5416 C.ar    1  UNL1       -0.0037
      5 C          10.2108   79.8960   23.7089 C.ar    1  UNL1        0.0085
      6 C          11.1103   80.9634   23.6172 C.ar    1  UNL1        0.0370
      7 C          11.4946   81.6812   24.7572 C.ar    1  UNL1        0.1402
      8 C          11.0270   81.2779   26.0234 C.ar    1  UNL1        0.0459
      9 C          11.4549   82.0329   27.2597 C.3     1  UNL1        0.0374
     10 C          10.1083   80.2036   26.1277 C.ar    1  UNL1        0.1354
     11 O           9.6078   79.8228   27.3785 O.3     1  UNL1       -0.5056
     12 C           9.6868   79.5084   24.9632 C.ar    1  UNL1        0.0673
     13 C           8.7372   78.4541   25.0137 C.ar    1  UNL1        0.1389
     14 O           8.1103   78.1555   26.2282 O.3     1  UNL1       -0.5053
     15 C           8.3952   77.7459   23.8319 C.ar    1  UNL1        0.0670
     16 C           7.5952   76.5004   23.8716 C.2     1  UNL1        0.2026
     17 O           7.5969   75.7618   24.8936 O.2     1  UNL1       -0.2887
     18 C           6.8426   76.0593   22.6580 C.3     1  UNL1        0.1820
     19 H           9.8375   80.2878   28.2467 H       1  UNL1        0.2922
     20 H           7.2518   77.6265   26.3006 H       1  UNL1        0.2922
     21 C           7.5681   78.5616   20.4457 C.3     1  UNL1        0.1416
     22 O           6.3981   77.9743   19.9491 O.3     1  UNL1       -0.3816
     23 H           5.7773   77.8746   20.7152 H       1  UNL1        0.2105
     24 O          12.3254   82.8122   24.6643 O.3     1  UNL1       -0.4526
     25 C          13.7544   82.8135   24.7473 C.3     1  UNL1        0.2901
     26 C          14.3604   83.8895   23.8199 C.3     1  UNL1        0.1085
     27 C          13.8564   85.2990   24.2059 C.3     1  UNL1        0.1531
     28 C          13.6229   85.3858   25.7363 C.3     1  UNL1        0.1648
     29 O          13.9061   86.6828   26.2026 O.3     1  UNL1       -0.3795
     30 C          14.4437   84.3082   26.5023 C.3     1  UNL1        0.1480
     31 C          14.2180   84.4256   28.0111 C.3     1  UNL1        0.0349
     32 O          14.1282   82.9728   26.1123 O.3     1  UNL1       -0.3205
     33 H          14.8853   86.8247   26.1191 H       1  UNL1        0.2105
     34 O          12.6308   85.6113   23.5571 O.3     1  UNL1       -0.3301
     35 C          12.6925   86.8097   22.7992 C.3     1  UNL1        0.2376
     36 C          11.8379   86.6279   21.5301 C.3     1  UNL1        0.0931
     37 C          12.3423   87.5001   20.3633 C.3     1  UNL1        0.1446
     38 O          11.2546   87.8694   19.5549 O.3     1  UNL1       -0.3817
     39 C          13.0620   88.7491   20.8960 C.3     1  UNL1        0.1644
     40 O          13.5544   89.5029   19.8176 O.3     1  UNL1       -0.3795
     41 C          14.2327   88.3126   21.8256 C.3     1  UNL1        0.1469
     42 C          14.5541   89.3694   22.8885 C.3     1  UNL1        0.0348
     43 O          14.0415   87.0406   22.4359 O.3     1  UNL1       -0.3304
     44 H          11.6220   88.0959   18.6609 H       1  UNL1        0.2104
     45 H          13.7461   90.4119   20.1669 H       1  UNL1        0.2105
     46 O           5.6994   76.8862   22.5261 O.3     1  UNL1       -0.3249
     47 C           4.5427   76.2994   23.1029 C.3     1  UNL1        0.2380
     48 C           4.2090   76.9455   24.4694 C.3     1  UNL1        0.0935
     49 C           2.6979   76.9756   24.6775 C.3     1  UNL1        0.1519
     50 C           2.0766   77.8496   23.5797 C.3     1  UNL1        0.1648
     51 O           0.6955   77.5967   23.5330 O.3     1  UNL1       -0.3795
     52 C           2.7282   77.5663   22.1894 C.3     1  UNL1        0.1469
     53 C           3.5464   78.7569   21.6613 C.3     1  UNL1        0.0348
     54 O           3.4721   76.3529   22.1638 O.3     1  UNL1       -0.3304
     55 H           0.2809   78.3596   23.0511 H       1  UNL1        0.2105
     56 O           2.4028   77.5369   25.9489 O.3     1  UNL1       -0.3302
     57 C           3.4891   77.3946   26.8467 C.3     1  UNL1        0.2376
     58 C           4.1388   76.0216   26.5975 C.3     1  UNL1        0.0931
     59 C           5.3433   75.7948   27.5326 C.3     1  UNL1        0.1450
     60 O           6.5299   76.1390   26.8632 O.3     1  UNL1       -0.3817
     61 C           5.2080   76.5949   28.8535 C.3     1  UNL1        0.1715
     62 C           3.7054   76.7961   29.1682 C.3     1  UNL1        0.1473
     63 C           3.5061   77.4551   30.5338 C.3     1  UNL1        0.0348
     64 O           3.0300   77.5758   28.1882 O.3     1  UNL1       -0.3304
     65 H           7.2716   75.6897   27.3467 H       1  UNL1        0.2104
     66 O           5.8311   77.8669   28.7131 O.3     1  UNL1       -0.3279
     67 C           7.0913   77.9064   29.3547 C.3     1  UNL1        0.2376
     68 C           7.1693   79.1889   30.2075 C.3     1  UNL1        0.0907
     69 C           8.6300   79.6759   30.4077 C.3     1  UNL1        0.1201
     70 C           8.7465   80.3934   31.7693 C.3     1  UNL1        0.0321
     71 O           8.9334   80.5847   29.3721 O.3     1  UNL1       -0.3841
     72 C           9.5808   78.4503   30.3371 C.3     1  UNL1        0.1620
     73 O          10.9237   78.8394   30.4952 O.3     1  UNL1       -0.3796
     74 C           9.4096   77.7376   28.9634 C.3     1  UNL1        0.1468
     75 C           9.7764   76.2517   29.0379 C.3     1  UNL1        0.0348
     76 O           8.1207   77.9033   28.3802 O.3     1  UNL1       -0.3304
     77 H           9.8559   80.9228   29.5151 H       1  UNL1        0.2103
     78 H          11.1290   78.8009   31.4656 H       1  UNL1        0.2105
     79 C           8.8673   75.0391   21.4004 C.3     1  UNL1        0.1778
     80 C           7.9608   72.9127   21.6836 C.3     1  UNL1        0.1746
     81 O           8.5179   74.0325   22.3381 O.3     1  UNL1       -0.3460
     82 C          10.2625   75.5610   21.7216 C.2     1  UNL1        0.2064
     83 O          10.7577   76.3798   20.9605 O.2     1  UNL1       -0.2909
     84 C          11.0651   75.1432   22.9458 C.3     1  UNL1        0.1970
     85 O          10.2333   74.8912   24.0512 O.3     1  UNL1       -0.3752
     86 H           9.8274   73.9931   23.9350 H       1  UNL1        0.2110
     87 C          11.9918   73.9302   22.6594 C.3     1  UNL1        0.1445
     88 C          11.4627   72.6222   23.2646 C.3     1  UNL1        0.0348
     89 O          12.1749   73.7726   21.2743 O.3     1  UNL1       -0.3815
     90 H          11.2829   73.5999   20.8722 H       1  UNL1        0.2105
@<TRIPOS>BOND
     1    80    81    1
     2    81    79    1
     3    79    82    1
     4    82    83    2
     5    82    84    1
     6    84    85    1
     7    84    87    1
     8    87    88    1
     9    87    89    1
    10    79     1    1
    11     1     2    1
    12     2    21    1
    13    21    22    1
    14     2     3    1
    15     3     4   ar
    16     4     5   ar
    17     5     6   ar
    18     6     7   ar
    19     7    24    1
    20    24    25    1
    21    25    26    1
    22    26    27    1
    23    27    34    1
    24    34    35    1
    25    35    36    1
    26    36    37    1
    27    37    38    1
    28    37    39    1
    29    39    40    1
    30    39    41    1
    31    41    42    1
    32    41    43    1
    33    27    28    1
    34    28    29    1
    35    28    30    1
    36    30    31    1
    37    30    32    1
    38     7     8   ar
    39     8     9    1
    40     8    10   ar
    41    10    11    1
    42    10    12   ar
    43    12    13   ar
    44    13    14    1
    45    13    15   ar
    46    15    16    1
    47    16    17    2
    48    16    18    1
    49    18    46    1
    50    46    47    1
    51    47    48    1
    52    48    49    1
    53    49    56    1
    54    56    57    1
    55    57    58    1
    56    58    59    1
    57    59    60    1
    58    59    61    1
    59    61    66    1
    60    66    67    1
    61    67    68    1
    62    68    69    1
    63    69    70    1
    64    69    71    1
    65    69    72    1
    66    72    73    1
    67    72    74    1
    68    74    75    1
    69    74    76    1
    70    61    62    1
    71    62    63    1
    72    62    64    1
    73    49    50    1
    74    50    51    1
    75    50    52    1
    76    52    53    1
    77    52    54    1
    78    18     1    1
    79    54    47    1
    80    15     3   ar
    81    64    57    1
    82    12     5   ar
    83    76    67    1
    84    32    25    1
    85    43    35    1
    86    85    86    1
    87    89    90    1
    88    22    23    1
    89    38    44    1
    90    40    45    1
    91    29    33    1
    92    11    19    1
    93    14    20    1
    94    60    65    1
    95    71    77    1
    96    73    78    1
    97    51    55    1
@<TRIPOS>MOLECULE
*****
 90 97 0 0 0
SMALL
GASTEIGER

@<TRIPOS>ATOM
      1 C          11.0866   78.9425   24.5676 C.3     1  UNL1        0.0758
      2 C           9.7013   78.5156   25.1692 C.3     1  UNL1        0.0574
      3 C           9.7908   77.4496   26.2570 C.ar    1  UNL1       -0.0141
      4 C           8.6881   77.2667   27.0994 C.ar    1  UNL1       -0.0037
      5 C           8.6811   76.2692   28.0787 C.ar    1  UNL1        0.0085
      6 C           7.5505   76.1115   28.8871 C.ar    1  UNL1        0.0370
      7 C           7.4795   75.0802   29.8325 C.ar    1  UNL1        0.1402
      8 C           8.5899   74.2346   30.0240 C.ar    1  UNL1        0.0459
      9 C           8.5293   73.1345   31.0573 C.3     1  UNL1        0.0374
     10 C           9.7374   74.3792   29.2047 C.ar    1  UNL1        0.1354
     11 O          10.8290   73.5168   29.3615 O.3     1  UNL1       -0.5056
     12 C           9.7858   75.3981   28.2165 C.ar    1  UNL1        0.0673
     13 C          10.8958   75.5547   27.3451 C.ar    1  UNL1        0.1389
     14 O          11.9312   74.6146   27.3802 O.3     1  UNL1       -0.5053
     15 C          10.9268   76.6279   26.4164 C.ar    1  UNL1        0.0670
     16 C          12.1513   76.9678   25.6562 C.2     1  UNL1        0.2026
     17 O          13.2940   76.6896   26.1109 O.2     1  UNL1       -0.2887
     18 C          12.0452   77.7288   24.3743 C.3     1  UNL1        0.1820
     19 H          10.8563   72.7508   30.0213 H       1  UNL1        0.2922
     20 H          12.6035   74.4933   26.6350 H       1  UNL1        0.2922
     21 C           8.6632   78.1298   24.0847 C.3     1  UNL1        0.1416
     22 O           9.2123   78.1095   22.7969 O.3     1  UNL1       -0.3816
     23 H           9.7674   77.2909   22.7325 H       1  UNL1        0.2105
     24 O           6.3128   74.8564   30.5853 O.3     1  UNL1       -0.4526
     25 C           5.0929   74.2903   30.0950 C.3     1  UNL1        0.2901
     26 C           3.8689   75.0517   30.6493 C.3     1  UNL1        0.1085
     27 C           3.9085   76.5397   30.2323 C.3     1  UNL1        0.1531
     28 C           4.5689   76.6895   28.8374 C.3     1  UNL1        0.1648
     29 O           3.9897   77.7612   28.1333 O.3     1  UNL1       -0.3795
     30 C           4.4979   75.3637   28.0255 C.3     1  UNL1        0.1480
     31 C           5.1332   75.5389   26.6446 C.3     1  UNL1        0.0349
     32 O           5.1440   74.2685   28.6719 O.3     1  UNL1       -0.3205
     33 H           3.0565   77.5047   27.9107 H       1  UNL1        0.2105
     34 O           4.6539   77.3215   31.1562 O.3     1  UNL1       -0.3301
     35 C           5.8397   77.8640   30.5960 C.3     1  UNL1        0.2376
     36 C           6.9146   77.9272   31.6981 C.3     1  UNL1        0.0931
     37 C           7.9332   79.0570   31.4485 C.3     1  UNL1        0.1446
     38 O           9.1836   78.6779   31.9642 O.3     1  UNL1       -0.3817
     39 C           8.0435   79.3611   29.9462 C.3     1  UNL1        0.1644
     40 O           8.9396   80.4247   29.7470 O.3     1  UNL1       -0.3795
     41 C           6.6368   79.7323   29.3906 C.3     1  UNL1        0.1469
     42 C           6.4935   79.3944   27.9023 C.3     1  UNL1        0.0348
     43 O           5.5576   79.1713   30.1305 O.3     1  UNL1       -0.3304
     44 H           9.6963   79.5129   32.1236 H       1  UNL1        0.2104
     45 H           9.2031   80.4023   28.7905 H       1  UNL1        0.2105
     46 O          11.5727   76.8419   23.3752 O.3     1  UNL1       -0.3249
     47 C          11.6196   75.4865   23.7945 C.3     1  UNL1        0.2380
     48 C          10.2218   74.8264   23.7132 C.3     1  UNL1        0.0935
     49 C          10.3612   73.3524   23.3455 C.3     1  UNL1        0.1519
     50 C          11.0065   73.2602   21.9562 C.3     1  UNL1        0.1648
     51 O          11.4701   71.9482   21.7630 O.3     1  UNL1       -0.3795
     52 C          12.1798   74.2790   21.8046 C.3     1  UNL1        0.1469
     53 C          11.8743   75.3925   20.7884 C.3     1  UNL1        0.0348
     54 O          12.6244   74.8008   23.0521 O.3     1  UNL1       -0.3304
     55 H          11.6013   71.8319   20.7856 H       1  UNL1        0.2105
     56 O           9.0766   72.7467   23.3086 O.3     1  UNL1       -0.3302
     57 C           8.0966   73.6328   22.7980 C.3     1  UNL1        0.2376
     58 C           6.9621   73.7389   23.8329 C.3     1  UNL1        0.0931
     59 C           5.8560   74.7001   23.3538 C.3     1  UNL1        0.1450
     60 O           6.0688   75.9746   23.9061 O.3     1  UNL1       -0.3817
     61 C           5.7883   74.7779   21.8071 C.3     1  UNL1        0.1715
     62 C           6.2949   73.4408   21.2133 C.3     1  UNL1        0.1473
     63 C           6.1179   73.4035   19.6947 C.3     1  UNL1        0.0348
     64 O           7.6605   73.1785   21.5148 O.3     1  UNL1       -0.3304
     65 H           5.2030   76.4576   23.8527 H       1  UNL1        0.2104
     66 O           6.6139   75.8395   21.3408 O.3     1  UNL1       -0.3279
     67 C           6.0236   76.5223   20.2515 C.3     1  UNL1        0.2376
     68 C           6.7331   77.8807   20.0793 C.3     1  UNL1        0.0907
     69 C           5.8164   78.9451   19.4179 C.3     1  UNL1        0.1201
     70 C           6.6824   79.9282   18.6020 C.3     1  UNL1        0.0321
     71 O           5.1515   79.6479   20.4447 O.3     1  UNL1       -0.3841
     72 C           4.7835   78.2228   18.5110 C.3     1  UNL1        0.1620
     73 O           3.9132   79.1436   17.8990 O.3     1  UNL1       -0.3796
     74 C           3.9537   77.2192   19.3646 C.3     1  UNL1        0.1468
     75 C           3.4078   76.0623   18.5211 C.3     1  UNL1        0.0348
     76 O           4.6433   76.7201   20.5067 O.3     1  UNL1       -0.3304
     77 H           4.5886   80.3509   20.0267 H       1  UNL1        0.2103
     78 H           4.3225   79.4047   17.0331 H       1  UNL1        0.2105
     79 C          11.7298   80.0718   25.4385 C.3     1  UNL1        0.1778
     80 C          10.8116   81.1833   27.2674 C.3     1  UNL1        0.1746
     81 O          10.7129   80.9596   25.8772 O.3     1  UNL1       -0.3460
     82 C          12.8051   80.8643   24.7052 C.2     1  UNL1        0.2064
     83 O          12.4459   81.6796   23.8678 O.2     1  UNL1       -0.2909
     84 C          14.2971   80.7196   24.9708 C.3     1  UNL1        0.1970
     85 O          14.6617   81.2827   26.2066 O.3     1  UNL1       -0.3752
     86 H          14.4100   80.6450   26.9239 H       1  UNL1        0.2110
     87 C          14.7754   79.2456   24.8688 C.3     1  UNL1        0.1445
     88 C          15.7925   79.0276   23.7395 C.3     1  UNL1        0.0348
     89 O          15.3271   78.8259   26.0921 O.3     1  UNL1       -0.3815
     90 H          16.1100   79.4074   26.2825 H       1  UNL1        0.2105
@<TRIPOS>BOND
     1    80    81    1
     2    81    79    1
     3    79    82    1
     4    82    83    2
     5    82    84    1
     6    84    85    1
     7    84    87    1
     8    87    88    1
     9    87    89    1
    10    79     1    1
    11     1     2    1
    12     2    21    1
    13    21    22    1
    14     2     3    1
    15     3     4   ar
    16     4     5   ar
    17     5     6   ar
    18     6     7   ar
    19     7    24    1
    20    24    25    1
    21    25    26    1
    22    26    27    1
    23    27    34    1
    24    34    35    1
    25    35    36    1
    26    36    37    1
    27    37    38    1
    28    37    39    1
    29    39    40    1
    30    39    41    1
    31    41    42    1
    32    41    43    1
    33    27    28    1
    34    28    29    1
    35    28    30    1
    36    30    31    1
    37    30    32    1
    38     7     8   ar
    39     8     9    1
    40     8    10   ar
    41    10    11    1
    42    10    12   ar
    43    12    13   ar
    44    13    14    1
    45    13    15   ar
    46    15    16    1
    47    16    17    2
    48    16    18    1
    49    18    46    1
    50    46    47    1
    51    47    48    1
    52    48    49    1
    53    49    56    1
    54    56    57    1
    55    57    58    1
    56    58    59    1
    57    59    60    1
    58    59    61    1
    59    61    66    1
    60    66    67    1
    61    67    68    1
    62    68    69    1
    63    69    70    1
    64    69    71    1
    65    69    72    1
    66    72    73    1
    67    72    74    1
    68    74    75    1
    69    74    76    1
    70    61    62    1
    71    62    63    1
    72    62    64    1
    73    49    50    1
    74    50    51    1
    75    50    52    1
    76    52    53    1
    77    52    54    1
    78    18     1    1
    79    54    47    1
    80    15     3   ar
    81    64    57    1
    82    12     5   ar
    83    76    67    1
    84    32    25    1
    85    43    35    1
    86    85    86    1
    87    89    90    1
    88    22    23    1
    89    38    44    1
    90    40    45    1
    91    29    33    1
    92    11    19    1
    93    14    20    1
    94    60    65    1
    95    71    77    1
    96    73    78    1
    97    51    55    1
