@<TRIPOS>MOLECULE
*****
 51 56 0 0 0
SMALL
GASTEIGER

@<TRIPOS>ATOM
      1 O         -61.0236  -46.5760  -26.1440 O.2     1  UNL1       -0.2701
      2 C         -62.1133  -45.9515  -26.2641 C.2     1  UNL1        0.2483
      3 N         -63.1279  -46.4485  -27.1523 N.am    1  UNL1       -0.2945
      4 H         -64.1008  -46.0910  -27.0279 H       1  UNL1        0.1501
      5 C         -62.3449  -44.7371  -25.4492 C.ar    1  UNL1        0.0808
      6 C         -62.1363  -44.7840  -24.0604 C.ar    1  UNL1        0.0080
      7 C         -62.3589  -43.6538  -23.2697 C.ar    1  UNL1        0.0148
      8 C         -62.7838  -42.4514  -23.8526 C.ar    1  UNL1        0.0502
      9 C         -62.9784  -42.3962  -25.2418 C.ar    1  UNL1        0.0443
     10 C         -62.7567  -43.5251  -26.0367 C.ar    1  UNL1        0.1457
     11 F         -62.8956  -43.4116  -27.3810 F       1  UNL1       -0.2040
     12 N         -63.0160  -41.2913  -23.0314 N.pl3   1  UNL1       -0.3040
     13 C         -64.1949  -40.4461  -23.2500 C.3     1  UNL1        0.1123
     14 C         -64.7573  -39.9633  -21.9104 C.3     1  UNL1        0.1136
     15 N         -63.6786  -39.4519  -21.0522 N.pl3   1  UNL1       -0.2897
     16 C         -62.4973  -40.3012  -20.8510 C.3     1  UNL1        0.1136
     17 C         -61.9365  -40.7515  -22.1982 C.3     1  UNL1        0.1123
     18 C         -63.8798  -38.3026  -20.2046 C.ar    1  UNL1        0.1318
     19 C         -64.9243  -38.2603  -19.2666 C.ar    1  UNL1        0.0343
     20 C         -65.0841  -37.1304  -18.4631 C.ar    1  UNL1        0.0083
     21 C         -64.1934  -36.0523  -18.5738 C.ar    1  UNL1        0.0906
     22 C         -63.1738  -36.1264  -19.5353 C.ar    1  UNL1        0.1041
     23 N         -63.0395  -37.2361  -20.3086 N.ar    1  UNL1       -0.2292
     24 C         -64.3847  -34.8063  -17.7471 C.3     1  UNL1        0.4200
     25 F         -65.4501  -34.0626  -18.2245 F       1  UNL1       -0.1658
     26 F         -64.6407  -35.1310  -16.4262 F       1  UNL1       -0.1658
     27 F         -63.2365  -34.0389  -17.8081 F       1  UNL1       -0.1658
     28 C         -62.9241  -47.6484  -27.9737 C.3     1  UNL1        0.1535
     29 C         -63.2269  -48.8976  -27.1826 C.2     1  UNL1        0.2443
     30 O         -63.7035  -49.9104  -27.7647 O.2     1  UNL1       -0.2730
     31 N         -62.9753  -48.9211  -25.7683 N.am    1  UNL1       -0.2825
     32 H         -62.8175  -48.0055  -25.2896 H       1  UNL1        0.1549
     33 C         -63.0325  -50.1047  -24.9527 C.ar    1  UNL1        0.0539
     34 C         -64.1917  -50.8965  -24.8787 C.ar    1  UNL1        0.0354
     35 C         -64.1880  -52.0519  -24.0937 C.ar    1  UNL1        0.1007
     36 N         -63.0665  -52.4144  -23.4174 N.ar    1  UNL1       -0.2378
     37 C         -61.9255  -51.6790  -23.4837 C.ar    1  UNL1        0.1043
     38 S         -60.4774  -52.2083  -22.5790 S.3     1  UNL1       -0.1227
     39 C         -61.8859  -50.5165  -24.2595 C.ar    1  UNL1        0.0399
     40 H         -60.8531  -51.4700  -21.4412 H       1  UNL1        0.1086
     41 C         -63.7522  -47.5816  -29.2738 C.3     1  UNL1        0.0569
     42 C         -64.0462  -46.1766  -29.7271 C.ar    1  UNL1       -0.0017
     43 C         -65.3054  -45.5997  -29.8695 C.ar    1  UNL1        0.0681
     44 N         -65.1938  -44.3089  -30.2564 N.ar    1  UNL1       -0.3523
     45 C         -63.8760  -44.0653  -30.3618 C.ar    1  UNL1        0.0563
     46 C         -63.2657  -42.8670  -30.7301 C.ar    1  UNL1        0.0170
     47 C         -61.8601  -42.8318  -30.7759 C.ar    1  UNL1        0.0015
     48 C         -61.1047  -43.9827  -30.4597 C.ar    1  UNL1        0.0001
     49 C         -61.7479  -45.1787  -30.0936 C.ar    1  UNL1        0.0012
     50 C         -63.1426  -45.1818  -30.0499 C.ar    1  UNL1        0.0131
     51 H         -65.9757  -43.6401  -30.4346 H       1  UNL1        0.1660
@<TRIPOS>BOND
     1     1     2    2
     2     2     3   am
     3     3    28    1
     4    28    41    1
     5    41    42    1
     6    42    43   ar
     7    43    44   ar
     8    44    45   ar
     9    45    46   ar
    10    46    47   ar
    11    47    48   ar
    12    48    49   ar
    13    49    50   ar
    14    28    29    1
    15    29    30    2
    16    29    31   am
    17    31    33    1
    18    33    34   ar
    19    34    35   ar
    20    35    36   ar
    21    36    37   ar
    22    37    38    1
    23    37    39   ar
    24     2     5    1
    25     5     6   ar
    26     6     7   ar
    27     7     8   ar
    28     8    12    1
    29    12    13    1
    30    13    14    1
    31    14    15    1
    32    15    18    1
    33    18    19   ar
    34    19    20   ar
    35    20    21   ar
    36    21    24    1
    37    24    25    1
    38    24    26    1
    39    24    27    1
    40    21    22   ar
    41    22    23   ar
    42    15    16    1
    43    16    17    1
    44     8     9   ar
    45     9    10   ar
    46    10    11    1
    47    50    42   ar
    48    39    33   ar
    49    10     5   ar
    50    50    45   ar
    51    17    12    1
    52    23    18   ar
    53     3     4    1
    54    44    51    1
    55    31    32    1
    56    38    40    1
@<TRIPOS>MOLECULE
*****
 51 56 0 0 0
SMALL
GASTEIGER

@<TRIPOS>ATOM
      1 O         -63.1222  -54.3097  -22.3562 O.2     1  UNL1       -0.2701
      2 C         -64.0448  -53.5779  -22.8092 C.2     1  UNL1        0.2483
      3 N         -65.4162  -53.9785  -22.6543 N.am    1  UNL1       -0.2945
      4 H         -66.1527  -53.2486  -22.7756 H       1  UNL1        0.1501
      5 C         -63.6968  -52.2915  -23.4548 C.ar    1  UNL1        0.0808
      6 C         -64.5299  -51.7728  -24.4604 C.ar    1  UNL1        0.0080
      7 C         -64.2160  -50.5665  -25.0913 C.ar    1  UNL1        0.0148
      8 C         -63.0690  -49.8491  -24.7222 C.ar    1  UNL1        0.0502
      9 C         -62.2425  -50.3562  -23.7072 C.ar    1  UNL1        0.0443
     10 C         -62.5532  -51.5633  -23.0732 C.ar    1  UNL1        0.1457
     11 F         -61.7629  -51.9857  -22.0552 F       1  UNL1       -0.2040
     12 N         -62.7485  -48.6085  -25.3797 N.pl3   1  UNL1       -0.3040
     13 C         -62.9156  -48.4678  -26.8303 C.3     1  UNL1        0.1123
     14 C         -63.4385  -47.0698  -27.1710 C.3     1  UNL1        0.1136
     15 N         -62.6710  -46.0425  -26.4518 N.pl3   1  UNL1       -0.2897
     16 C         -62.4989  -46.2005  -25.0017 C.3     1  UNL1        0.1136
     17 C         -61.9533  -47.5911  -24.6843 C.3     1  UNL1        0.1123
     18 C         -62.3457  -44.7821  -27.0725 C.ar    1  UNL1        0.1318
     19 C         -61.0925  -44.1766  -26.8838 C.ar    1  UNL1        0.0343
     20 C         -60.8155  -42.9574  -27.5040 C.ar    1  UNL1        0.0083
     21 C         -61.7731  -42.3507  -28.3304 C.ar    1  UNL1        0.0906
     22 C         -63.0191  -42.9792  -28.4791 C.ar    1  UNL1        0.1041
     23 N         -63.2671  -44.1650  -27.8628 N.ar    1  UNL1       -0.2292
     24 C         -61.5048  -41.0102  -28.9658 C.3     1  UNL1        0.4200
     25 F         -62.4537  -40.0836  -28.5697 F       1  UNL1       -0.1658
     26 F         -60.2572  -40.5365  -28.5984 F       1  UNL1       -0.1658
     27 F         -61.5499  -41.1414  -30.3412 F       1  UNL1       -0.1658
     28 C         -65.7894  -55.2494  -22.0206 C.3     1  UNL1        0.1535
     29 C         -66.7646  -55.0196  -20.8918 C.2     1  UNL1        0.2443
     30 O         -67.1805  -53.8538  -20.6476 O.2     1  UNL1       -0.2730
     31 N         -67.2076  -56.1324  -20.0983 N.am    1  UNL1       -0.2825
     32 H         -66.6654  -57.0232  -20.1687 H       1  UNL1        0.1549
     33 C         -68.2765  -56.0705  -19.1376 C.ar    1  UNL1        0.0539
     34 C         -68.1185  -55.4312  -17.8957 C.ar    1  UNL1        0.0354
     35 C         -69.1956  -55.3741  -17.0081 C.ar    1  UNL1        0.1007
     36 N         -70.3917  -55.9213  -17.3496 N.ar    1  UNL1       -0.2378
     37 C         -70.5799  -56.5299  -18.5501 C.ar    1  UNL1        0.1043
     38 S         -72.1776  -57.2255  -18.9491 S.3     1  UNL1       -0.1227
     39 C         -69.5284  -56.6073  -19.4683 C.ar    1  UNL1        0.0399
     40 H         -71.8294  -58.4748  -18.4024 H       1  UNL1        0.1086
     41 C         -66.3426  -56.2486  -23.0580 C.3     1  UNL1        0.0569
     42 C         -67.3455  -55.6408  -24.0019 C.ar    1  UNL1       -0.0017
     43 C         -67.0642  -54.9807  -25.1950 C.ar    1  UNL1        0.0681
     44 N         -68.2085  -54.6006  -25.8070 N.ar    1  UNL1       -0.3523
     45 C         -69.2101  -55.0126  -25.0107 C.ar    1  UNL1        0.0563
     46 C         -70.5786  -54.8519  -25.2237 C.ar    1  UNL1        0.0170
     47 C         -71.4597  -55.3646  -24.2542 C.ar    1  UNL1        0.0015
     48 C         -70.9590  -56.0156  -23.1050 C.ar    1  UNL1        0.0001
     49 C         -69.5729  -56.1610  -22.9155 C.ar    1  UNL1        0.0012
     50 C         -68.7236  -55.6490  -23.8972 C.ar    1  UNL1        0.0131
     51 H         -68.2923  -54.0916  -26.7149 H       1  UNL1        0.1660
@<TRIPOS>BOND
     1     1     2    2
     2     2     3   am
     3     3    28    1
     4    28    41    1
     5    41    42    1
     6    42    43   ar
     7    43    44   ar
     8    44    45   ar
     9    45    46   ar
    10    46    47   ar
    11    47    48   ar
    12    48    49   ar
    13    49    50   ar
    14    28    29    1
    15    29    30    2
    16    29    31   am
    17    31    33    1
    18    33    34   ar
    19    34    35   ar
    20    35    36   ar
    21    36    37   ar
    22    37    38    1
    23    37    39   ar
    24     2     5    1
    25     5     6   ar
    26     6     7   ar
    27     7     8   ar
    28     8    12    1
    29    12    13    1
    30    13    14    1
    31    14    15    1
    32    15    18    1
    33    18    19   ar
    34    19    20   ar
    35    20    21   ar
    36    21    24    1
    37    24    25    1
    38    24    26    1
    39    24    27    1
    40    21    22   ar
    41    22    23   ar
    42    15    16    1
    43    16    17    1
    44     8     9   ar
    45     9    10   ar
    46    10    11    1
    47    50    42   ar
    48    39    33   ar
    49    10     5   ar
    50    50    45   ar
    51    17    12    1
    52    23    18   ar
    53     3     4    1
    54    44    51    1
    55    31    32    1
    56    38    40    1
@<TRIPOS>MOLECULE
*****
 51 56 0 0 0
SMALL
GASTEIGER

@<TRIPOS>ATOM
      1 O         -60.7087  -46.9224  -25.3619 O.2     1  UNL1       -0.2701
      2 C         -61.8328  -46.3634  -25.4878 C.2     1  UNL1        0.2483
      3 N         -62.8518  -46.9800  -26.2920 N.am    1  UNL1       -0.2945
      4 H         -63.8367  -46.6611  -26.1577 H       1  UNL1        0.1501
      5 C         -62.0972  -45.0990  -24.7639 C.ar    1  UNL1        0.0808
      6 C         -62.1067  -45.0935  -23.3588 C.ar    1  UNL1        0.0080
      7 C         -62.3646  -43.9149  -22.6544 C.ar    1  UNL1        0.0148
      8 C         -62.6075  -42.7160  -23.3401 C.ar    1  UNL1        0.0502
      9 C         -62.5835  -42.7142  -24.7437 C.ar    1  UNL1        0.0443
     10 C         -62.3258  -43.8918  -25.4525 C.ar    1  UNL1        0.1457
     11 F         -62.2496  -43.8333  -26.8053 F       1  UNL1       -0.2040
     12 N         -62.8773  -41.5054  -22.6081 N.pl3   1  UNL1       -0.3040
     13 C         -64.0306  -40.6667  -22.9523 C.3     1  UNL1        0.1123
     14 C         -64.6701  -40.0974  -21.6830 C.3     1  UNL1        0.1136
     15 N         -63.6415  -39.5417  -20.7916 N.pl3   1  UNL1       -0.2897
     16 C         -62.4847  -40.3857  -20.4644 C.3     1  UNL1        0.1136
     17 C         -61.8459  -40.9230  -21.7433 C.3     1  UNL1        0.1123
     18 C         -63.8822  -38.3405  -20.0308 C.ar    1  UNL1        0.1318
     19 C         -64.9559  -38.2489  -19.1301 C.ar    1  UNL1        0.0343
     20 C         -65.1537  -37.0695  -18.4106 C.ar    1  UNL1        0.0083
     21 C         -64.2723  -35.9894  -18.5672 C.ar    1  UNL1        0.0906
     22 C         -63.2223  -36.1147  -19.4900 C.ar    1  UNL1        0.1041
     23 N         -63.0513  -37.2722  -20.1815 N.ar    1  UNL1       -0.2292
     24 C         -64.5036  -34.6930  -17.8336 C.3     1  UNL1        0.4200
     25 F         -63.3924  -33.8732  -17.9287 F       1  UNL1       -0.1658
     26 F         -65.5874  -34.0168  -18.3666 F       1  UNL1       -0.1658
     27 F         -64.7519  -34.9625  -16.5006 F       1  UNL1       -0.1658
     28 C         -62.6161  -48.2319  -27.0224 C.3     1  UNL1        0.1535
     29 C         -62.9858  -49.4248  -26.1750 C.2     1  UNL1        0.2443
     30 O         -63.8676  -50.2327  -26.5770 O.2     1  UNL1       -0.2730
     31 N         -62.3334  -49.6279  -24.9111 N.am    1  UNL1       -0.2825
     32 H         -61.8005  -48.8246  -24.5070 H       1  UNL1        0.1549
     33 C         -62.4534  -50.8217  -24.1176 C.ar    1  UNL1        0.0539
     34 C         -61.4350  -51.2318  -23.2397 C.ar    1  UNL1        0.0354
     35 C         -61.6112  -52.3842  -22.4702 C.ar    1  UNL1        0.1007
     36 N         -62.7653  -53.0957  -22.5604 N.ar    1  UNL1       -0.2378
     37 C         -63.7748  -52.7143  -23.3866 C.ar    1  UNL1        0.1043
     38 S         -65.2743  -53.6847  -23.4586 S.3     1  UNL1       -0.1227
     39 C         -63.6400  -51.5660  -24.1728 C.ar    1  UNL1        0.0399
     40 H         -64.7672  -54.4888  -24.4964 H       1  UNL1        0.1086
     41 C         -63.3617  -48.2384  -28.3731 C.3     1  UNL1        0.0569
     42 C         -63.3951  -46.8928  -29.0472 C.ar    1  UNL1       -0.0017
     43 C         -64.5209  -46.2490  -29.5536 C.ar    1  UNL1        0.0681
     44 N         -64.1887  -45.0373  -30.0534 N.ar    1  UNL1       -0.3523
     45 C         -62.8632  -44.9103  -29.8694 C.ar    1  UNL1        0.0563
     46 C         -62.0621  -43.8247  -30.2211 C.ar    1  UNL1        0.0170
     47 C         -60.6871  -43.9016  -29.9339 C.ar    1  UNL1        0.0015
     48 C         -60.1491  -45.0501  -29.3120 C.ar    1  UNL1        0.0001
     49 C         -60.9813  -46.1313  -28.9705 C.ar    1  UNL1        0.0012
     50 C         -62.3418  -46.0237  -29.2609 C.ar    1  UNL1        0.0131
     51 H         -64.8346  -44.3435  -30.4913 H       1  UNL1        0.1660
@<TRIPOS>BOND
     1     1     2    2
     2     2     3   am
     3     3    28    1
     4    28    41    1
     5    41    42    1
     6    42    43   ar
     7    43    44   ar
     8    44    45   ar
     9    45    46   ar
    10    46    47   ar
    11    47    48   ar
    12    48    49   ar
    13    49    50   ar
    14    28    29    1
    15    29    30    2
    16    29    31   am
    17    31    33    1
    18    33    34   ar
    19    34    35   ar
    20    35    36   ar
    21    36    37   ar
    22    37    38    1
    23    37    39   ar
    24     2     5    1
    25     5     6   ar
    26     6     7   ar
    27     7     8   ar
    28     8    12    1
    29    12    13    1
    30    13    14    1
    31    14    15    1
    32    15    18    1
    33    18    19   ar
    34    19    20   ar
    35    20    21   ar
    36    21    24    1
    37    24    25    1
    38    24    26    1
    39    24    27    1
    40    21    22   ar
    41    22    23   ar
    42    15    16    1
    43    16    17    1
    44     8     9   ar
    45     9    10   ar
    46    10    11    1
    47    50    42   ar
    48    39    33   ar
    49    10     5   ar
    50    50    45   ar
    51    17    12    1
    52    23    18   ar
    53     3     4    1
    54    44    51    1
    55    31    32    1
    56    38    40    1
@<TRIPOS>MOLECULE
*****
 51 56 0 0 0
SMALL
GASTEIGER

@<TRIPOS>ATOM
      1 O         -60.7635  -47.0446  -25.2955 O.2     1  UNL1       -0.2701
      2 C         -61.8657  -46.4543  -25.4648 C.2     1  UNL1        0.2483
      3 N         -62.8699  -47.0431  -26.3074 N.am    1  UNL1       -0.2945
      4 H         -63.8499  -46.6962  -26.2114 H       1  UNL1        0.1501
      5 C         -62.1218  -45.1818  -24.7522 C.ar    1  UNL1        0.0808
      6 C         -62.1832  -45.1736  -23.3484 C.ar    1  UNL1        0.0080
      7 C         -62.4345  -43.9871  -22.6550 C.ar    1  UNL1        0.0148
      8 C         -62.6187  -42.7832  -23.3501 C.ar    1  UNL1        0.0502
      9 C         -62.5428  -42.7845  -24.7518 C.ar    1  UNL1        0.0443
     10 C         -62.2915  -43.9700  -25.4497 C.ar    1  UNL1        0.1457
     11 F         -62.1637  -43.9161  -26.7988 F       1  UNL1       -0.2040
     12 N         -62.8822  -41.5644  -22.6295 N.pl3   1  UNL1       -0.3040
     13 C         -64.0472  -40.7376  -22.9625 C.3     1  UNL1        0.1123
     14 C         -64.6657  -40.1549  -21.6889 C.3     1  UNL1        0.1136
     15 N         -63.6236  -39.5807  -20.8253 N.pl3   1  UNL1       -0.2897
     16 C         -62.4553  -40.4129  -20.5093 C.3     1  UNL1        0.1136
     17 C         -61.8379  -40.9638  -21.7929 C.3     1  UNL1        0.1123
     18 C         -63.8572  -38.3706  -20.0764 C.ar    1  UNL1        0.1318
     19 C         -64.9678  -38.2402  -19.2266 C.ar    1  UNL1        0.0343
     20 C         -65.1574  -37.0535  -18.5170 C.ar    1  UNL1        0.0083
     21 C         -64.2324  -36.0051  -18.6323 C.ar    1  UNL1        0.0906
     22 C         -63.1457  -36.1684  -19.5052 C.ar    1  UNL1        0.1041
     23 N         -62.9833  -37.3323  -20.1881 N.ar    1  UNL1       -0.2292
     24 C         -64.4521  -34.7003  -17.9100 C.3     1  UNL1        0.4200
     25 F         -63.3318  -33.8934  -18.0082 F       1  UNL1       -0.1658
     26 F         -65.5268  -34.0169  -18.4522 F       1  UNL1       -0.1658
     27 F         -64.7076  -34.9562  -16.5757 F       1  UNL1       -0.1658
     28 C         -62.6418  -48.3021  -27.0277 C.3     1  UNL1        0.1535
     29 C         -62.8686  -49.4872  -26.1210 C.2     1  UNL1        0.2443
     30 O         -63.7525  -50.3399  -26.4098 O.2     1  UNL1       -0.2730
     31 N         -62.0783  -49.6318  -24.9298 N.am    1  UNL1       -0.2825
     32 H         -61.5406  -48.7977  -24.6017 H       1  UNL1        0.1549
     33 C         -62.0627  -50.8089  -24.1033 C.ar    1  UNL1        0.0539
     34 C         -60.9390  -51.1577  -23.3341 C.ar    1  UNL1        0.0354
     35 C         -60.9834  -52.2963  -22.5261 C.ar    1  UNL1        0.1007
     36 N         -62.1107  -53.0533  -22.4743 N.ar    1  UNL1       -0.2378
     37 C         -63.2187  -52.7315  -23.1924 C.ar    1  UNL1        0.1043
     38 S         -64.6766  -53.7598  -23.0792 S.3     1  UNL1       -0.1227
     39 C         -63.2170  -51.5990  -24.0124 C.ar    1  UNL1        0.0399
     40 H         -64.2532  -54.5698  -24.1495 H       1  UNL1        0.1086
     41 C         -63.5111  -48.3824  -28.2998 C.3     1  UNL1        0.0569
     42 C         -63.6758  -47.0597  -28.9992 C.ar    1  UNL1       -0.0017
     43 C         -63.1061  -45.8470  -28.6205 C.ar    1  UNL1        0.0681
     44 N         -63.4335  -44.8745  -29.5011 N.ar    1  UNL1       -0.3523
     45 C         -64.2065  -45.4609  -30.4315 C.ar    1  UNL1        0.0563
     46 C         -64.7853  -44.8604  -31.5488 C.ar    1  UNL1        0.0170
     47 C         -65.5636  -45.6664  -32.3995 C.ar    1  UNL1        0.0015
     48 C         -65.7467  -47.0380  -32.1158 C.ar    1  UNL1        0.0001
     49 C         -65.1523  -47.6161  -30.9798 C.ar    1  UNL1        0.0012
     50 C         -64.3801  -46.7939  -30.1584 C.ar    1  UNL1        0.0131
     51 H         -63.1417  -43.8727  -29.4628 H       1  UNL1        0.1660
@<TRIPOS>BOND
     1     1     2    2
     2     2     3   am
     3     3    28    1
     4    28    41    1
     5    41    42    1
     6    42    43   ar
     7    43    44   ar
     8    44    45   ar
     9    45    46   ar
    10    46    47   ar
    11    47    48   ar
    12    48    49   ar
    13    49    50   ar
    14    28    29    1
    15    29    30    2
    16    29    31   am
    17    31    33    1
    18    33    34   ar
    19    34    35   ar
    20    35    36   ar
    21    36    37   ar
    22    37    38    1
    23    37    39   ar
    24     2     5    1
    25     5     6   ar
    26     6     7   ar
    27     7     8   ar
    28     8    12    1
    29    12    13    1
    30    13    14    1
    31    14    15    1
    32    15    18    1
    33    18    19   ar
    34    19    20   ar
    35    20    21   ar
    36    21    24    1
    37    24    25    1
    38    24    26    1
    39    24    27    1
    40    21    22   ar
    41    22    23   ar
    42    15    16    1
    43    16    17    1
    44     8     9   ar
    45     9    10   ar
    46    10    11    1
    47    50    42   ar
    48    39    33   ar
    49    10     5   ar
    50    50    45   ar
    51    17    12    1
    52    23    18   ar
    53     3     4    1
    54    44    51    1
    55    31    32    1
    56    38    40    1
@<TRIPOS>MOLECULE
*****
 51 56 0 0 0
SMALL
GASTEIGER

@<TRIPOS>ATOM
      1 O         -63.6435  -55.5654  -21.8594 O.2     1  UNL1       -0.2701
      2 C         -64.5384  -54.7671  -22.2516 C.2     1  UNL1        0.2483
      3 N         -65.9230  -55.0777  -22.0241 N.am    1  UNL1       -0.2945
      4 H         -66.6143  -54.2987  -22.0956 H       1  UNL1        0.1501
      5 C         -64.1410  -53.4974  -22.9017 C.ar    1  UNL1        0.0808
      6 C         -62.9694  -52.8426  -22.4858 C.ar    1  UNL1        0.0080
      7 C         -62.5804  -51.6380  -23.0769 C.ar    1  UNL1        0.0148
      8 C         -63.3487  -51.0694  -24.1030 C.ar    1  UNL1        0.0502
      9 C         -64.5116  -51.7285  -24.5320 C.ar    1  UNL1        0.0443
     10 C         -64.9044  -52.9344  -23.9429 C.ar    1  UNL1        0.1457
     11 F         -65.9992  -53.5698  -24.4295 F       1  UNL1       -0.2040
     12 N         -62.9447  -49.8250  -24.7050 N.pl3   1  UNL1       -0.3040
     13 C         -63.6584  -49.2940  -25.8714 C.3     1  UNL1        0.1123
     14 C         -63.7740  -47.7704  -25.7743 C.3     1  UNL1        0.1136
     15 N         -62.4775  -47.1764  -25.4167 N.pl3   1  UNL1       -0.2897
     16 C         -61.7657  -47.7248  -24.2548 C.3     1  UNL1        0.1136
     17 C         -61.6385  -49.2413  -24.3824 C.3     1  UNL1        0.1123
     18 C         -62.0471  -45.9238  -25.9871 C.ar    1  UNL1        0.1318
     19 C         -62.2838  -44.7035  -25.3332 C.ar    1  UNL1        0.0343
     20 C         -61.8492  -43.5127  -25.9172 C.ar    1  UNL1        0.0083
     21 C         -61.1591  -43.5346  -27.1383 C.ar    1  UNL1        0.0906
     22 C         -60.9582  -44.7727  -27.7680 C.ar    1  UNL1        0.1041
     23 N         -61.3930  -45.9191  -27.1814 N.ar    1  UNL1       -0.2292
     24 C         -60.7285  -42.2522  -27.8036 C.3     1  UNL1        0.4200
     25 F         -60.3370  -42.4877  -29.1102 F       1  UNL1       -0.1658
     26 F         -61.7678  -41.3382  -27.8210 F       1  UNL1       -0.1658
     27 F         -59.6650  -41.7120  -27.1049 F       1  UNL1       -0.1658
     28 C         -66.3452  -56.3300  -21.3843 C.3     1  UNL1        0.1535
     29 C         -67.1610  -56.0509  -20.1456 C.2     1  UNL1        0.2443
     30 O         -66.5845  -55.9025  -19.0332 O.2     1  UNL1       -0.2730
     31 N         -68.5918  -55.9625  -20.2423 N.am    1  UNL1       -0.2825
     32 H         -69.0414  -56.3275  -21.1124 H       1  UNL1        0.1549
     33 C         -69.4509  -55.5063  -19.1825 C.ar    1  UNL1        0.0539
     34 C         -70.4684  -54.5633  -19.4095 C.ar    1  UNL1        0.0354
     35 C         -71.2942  -54.1729  -18.3526 C.ar    1  UNL1        0.1007
     36 N         -71.1230  -54.7119  -17.1170 N.ar    1  UNL1       -0.2378
     37 C         -70.1598  -55.6387  -16.8713 C.ar    1  UNL1        0.1043
     38 S         -69.9853  -56.3196  -15.2276 S.3     1  UNL1       -0.1227
     39 C         -69.3129  -56.0584  -17.9016 C.ar    1  UNL1        0.0399
     40 H         -69.0747  -55.3149  -14.8505 H       1  UNL1        0.1086
     41 C         -67.1056  -57.2344  -22.3765 C.3     1  UNL1        0.0569
     42 C         -67.7214  -56.4812  -23.5252 C.ar    1  UNL1       -0.0017
     43 C         -67.0764  -56.0800  -24.6919 C.ar    1  UNL1        0.0681
     44 N         -67.9445  -55.4618  -25.5243 N.ar    1  UNL1       -0.3523
     45 C         -69.1315  -55.4668  -24.8934 C.ar    1  UNL1        0.0563
     46 C         -70.3373  -54.9439  -25.3589 C.ar    1  UNL1        0.0170
     47 C         -71.4677  -55.0584  -24.5293 C.ar    1  UNL1        0.0015
     48 C         -71.3680  -55.6826  -23.2662 C.ar    1  UNL1        0.0001
     49 C         -70.1376  -56.1990  -22.8217 C.ar    1  UNL1        0.0012
     50 C         -69.0355  -56.0774  -23.6688 C.ar    1  UNL1        0.0131
     51 H         -67.7317  -55.0640  -26.4659 H       1  UNL1        0.1660
@<TRIPOS>BOND
     1     1     2    2
     2     2     3   am
     3     3    28    1
     4    28    41    1
     5    41    42    1
     6    42    43   ar
     7    43    44   ar
     8    44    45   ar
     9    45    46   ar
    10    46    47   ar
    11    47    48   ar
    12    48    49   ar
    13    49    50   ar
    14    28    29    1
    15    29    30    2
    16    29    31   am
    17    31    33    1
    18    33    34   ar
    19    34    35   ar
    20    35    36   ar
    21    36    37   ar
    22    37    38    1
    23    37    39   ar
    24     2     5    1
    25     5     6   ar
    26     6     7   ar
    27     7     8   ar
    28     8    12    1
    29    12    13    1
    30    13    14    1
    31    14    15    1
    32    15    18    1
    33    18    19   ar
    34    19    20   ar
    35    20    21   ar
    36    21    24    1
    37    24    25    1
    38    24    26    1
    39    24    27    1
    40    21    22   ar
    41    22    23   ar
    42    15    16    1
    43    16    17    1
    44     8     9   ar
    45     9    10   ar
    46    10    11    1
    47    50    42   ar
    48    39    33   ar
    49    10     5   ar
    50    50    45   ar
    51    17    12    1
    52    23    18   ar
    53     3     4    1
    54    44    51    1
    55    31    32    1
    56    38    40    1
@<TRIPOS>MOLECULE
*****
 51 56 0 0 0
SMALL
GASTEIGER

@<TRIPOS>ATOM
      1 O         -60.1704  -46.9374  -24.3250 O.2     1  UNL1       -0.2701
      2 C         -61.2174  -46.3037  -24.6319 C.2     1  UNL1        0.2483
      3 N         -62.0444  -46.7694  -25.7110 N.am    1  UNL1       -0.2945
      4 H         -63.0231  -46.4102  -25.7636 H       1  UNL1        0.1501
      5 C         -61.5999  -45.1120  -23.8407 C.ar    1  UNL1        0.0808
      6 C         -61.9501  -43.9232  -24.5030 C.ar    1  UNL1        0.0080
      7 C         -62.3039  -42.7830  -23.7774 C.ar    1  UNL1        0.0148
      8 C         -62.3251  -42.8112  -22.3755 C.ar    1  UNL1        0.0502
      9 C         -61.9908  -44.0014  -21.7104 C.ar    1  UNL1        0.0443
     10 C         -61.6362  -45.1449  -22.4331 C.ar    1  UNL1        0.1457
     11 F         -61.3816  -46.2908  -21.7538 F       1  UNL1       -0.2040
     12 N         -62.6860  -41.6310  -21.6332 N.pl3   1  UNL1       -0.3040
     13 C         -61.6511  -40.7736  -21.0455 C.3     1  UNL1        0.1123
     14 C         -62.0496  -39.3004  -21.1689 C.3     1  UNL1        0.1136
     15 N         -63.4439  -39.1059  -20.7449 N.pl3   1  UNL1       -0.2897
     16 C         -64.4699  -39.9789  -21.3301 C.3     1  UNL1        0.1136
     17 C         -64.0665  -41.4436  -21.1748 C.3     1  UNL1        0.1123
     18 C         -63.8451  -37.9290  -20.0143 C.ar    1  UNL1        0.1318
     19 C         -63.0434  -36.7760  -19.9890 C.ar    1  UNL1        0.0343
     20 C         -63.4682  -35.6565  -19.2721 C.ar    1  UNL1        0.0083
     21 C         -64.6994  -35.6726  -18.5999 C.ar    1  UNL1        0.0906
     22 C         -65.4625  -36.8500  -18.6353 C.ar    1  UNL1        0.1041
     23 N         -65.0269  -37.9288  -19.3378 N.ar    1  UNL1       -0.2292
     24 C         -65.1464  -34.4882  -17.7814 C.3     1  UNL1        0.4200
     25 F         -64.3065  -33.4075  -17.9876 F       1  UNL1       -0.1658
     26 F         -66.4315  -34.1106  -18.1302 F       1  UNL1       -0.1658
     27 F         -65.1243  -34.8268  -16.4413 F       1  UNL1       -0.1658
     28 C         -61.6879  -47.9464  -26.5134 C.3     1  UNL1        0.1535
     29 C         -62.0894  -49.2184  -25.8073 C.2     1  UNL1        0.2443
     30 O         -62.9748  -49.9638  -26.3096 O.2     1  UNL1       -0.2730
     31 N         -61.4632  -49.5678  -24.5623 N.am    1  UNL1       -0.2825
     32 H         -60.9267  -48.8216  -24.0643 H       1  UNL1        0.1549
     33 C         -61.6142  -50.8387  -23.9057 C.ar    1  UNL1        0.0539
     34 C         -60.5381  -51.4680  -23.2560 C.ar    1  UNL1        0.0354
     35 C         -60.7425  -52.6890  -22.6091 C.ar    1  UNL1        0.1007
     36 N         -61.9769  -53.2571  -22.5968 N.ar    1  UNL1       -0.2378
     37 C         -63.0402  -52.6639  -23.2005 C.ar    1  UNL1        0.1043
     38 S         -64.6432  -53.4533  -23.1456 S.3     1  UNL1       -0.1227
     39 C         -62.8793  -51.4403  -23.8577 C.ar    1  UNL1        0.0399
     40 H         -64.3958  -54.1584  -24.3383 H       1  UNL1        0.1086
     41 C         -62.2975  -47.8623  -27.9282 C.3     1  UNL1        0.0569
     42 C         -62.7857  -46.4853  -28.2910 C.ar    1  UNL1       -0.0017
     43 C         -64.1122  -46.0929  -28.4490 C.ar    1  UNL1        0.0681
     44 N         -64.1847  -44.7734  -28.7353 N.ar    1  UNL1       -0.3523
     45 C         -62.9164  -44.3288  -28.7618 C.ar    1  UNL1        0.0563
     46 C         -62.4828  -43.0277  -29.0132 C.ar    1  UNL1        0.0170
     47 C         -61.0981  -42.7801  -28.9914 C.ar    1  UNL1        0.0015
     48 C         -60.1881  -43.8272  -28.7254 C.ar    1  UNL1        0.0001
     49 C         -60.6544  -45.1307  -28.4774 C.ar    1  UNL1        0.0012
     50 C         -62.0331  -45.3448  -28.4985 C.ar    1  UNL1        0.0131
     51 H         -65.0524  -44.2165  -28.9002 H       1  UNL1        0.1660
@<TRIPOS>BOND
     1     1     2    2
     2     2     3   am
     3     3    28    1
     4    28    41    1
     5    41    42    1
     6    42    43   ar
     7    43    44   ar
     8    44    45   ar
     9    45    46   ar
    10    46    47   ar
    11    47    48   ar
    12    48    49   ar
    13    49    50   ar
    14    28    29    1
    15    29    30    2
    16    29    31   am
    17    31    33    1
    18    33    34   ar
    19    34    35   ar
    20    35    36   ar
    21    36    37   ar
    22    37    38    1
    23    37    39   ar
    24     2     5    1
    25     5     6   ar
    26     6     7   ar
    27     7     8   ar
    28     8    12    1
    29    12    13    1
    30    13    14    1
    31    14    15    1
    32    15    18    1
    33    18    19   ar
    34    19    20   ar
    35    20    21   ar
    36    21    24    1
    37    24    25    1
    38    24    26    1
    39    24    27    1
    40    21    22   ar
    41    22    23   ar
    42    15    16    1
    43    16    17    1
    44     8     9   ar
    45     9    10   ar
    46    10    11    1
    47    50    42   ar
    48    39    33   ar
    49    10     5   ar
    50    50    45   ar
    51    17    12    1
    52    23    18   ar
    53     3     4    1
    54    44    51    1
    55    31    32    1
    56    38    40    1
@<TRIPOS>MOLECULE
*****
 51 56 0 0 0
SMALL
GASTEIGER

@<TRIPOS>ATOM
      1 O         -59.6728  -46.5735  -24.1855 O.2     1  UNL1       -0.2701
      2 C         -60.7681  -46.0165  -24.4719 C.2     1  UNL1        0.2483
      3 N         -61.5912  -46.5547  -25.5197 N.am    1  UNL1       -0.2945
      4 H         -62.5930  -46.2627  -25.5497 H       1  UNL1        0.1501
      5 C         -61.2079  -44.8397  -23.6881 C.ar    1  UNL1        0.0808
      6 C         -61.6177  -43.6744  -24.3579 C.ar    1  UNL1        0.0080
      7 C         -62.0264  -42.5481  -23.6394 C.ar    1  UNL1        0.0148
      8 C         -62.0440  -42.5676  -22.2374 C.ar    1  UNL1        0.0502
      9 C         -61.6502  -43.7352  -21.5648 C.ar    1  UNL1        0.0443
     10 C         -61.2405  -44.8646  -22.2803 C.ar    1  UNL1        0.1457
     11 F         -60.9284  -45.9918  -21.5936 F       1  UNL1       -0.2040
     12 N         -62.4619  -41.4016  -21.5025 N.pl3   1  UNL1       -0.3040
     13 C         -61.4743  -40.4309  -21.0187 C.3     1  UNL1        0.1123
     14 C         -62.0207  -39.0069  -21.1518 C.3     1  UNL1        0.1136
     15 N         -63.3926  -38.9297  -20.6289 N.pl3   1  UNL1       -0.2897
     16 C         -64.3697  -39.9150  -21.1105 C.3     1  UNL1        0.1136
     17 C         -63.8170  -41.3291  -20.9461 C.3     1  UNL1        0.1123
     18 C         -63.8510  -37.7712  -19.9026 C.ar    1  UNL1        0.1318
     19 C         -63.0101  -36.6685  -19.6799 C.ar    1  UNL1        0.0343
     20 C         -63.4922  -35.5651  -18.9743 C.ar    1  UNL1        0.0083
     21 C         -64.8159  -35.5459  -18.5101 C.ar    1  UNL1        0.0906
     22 C         -65.6183  -36.6747  -18.7380 C.ar    1  UNL1        0.1041
     23 N         -65.1259  -37.7388  -19.4253 N.ar    1  UNL1       -0.2292
     24 C         -65.3334  -34.3819  -17.7041 C.3     1  UNL1        0.4200
     25 F         -66.6664  -34.1438  -17.9908 F       1  UNL1       -0.1658
     26 F         -65.2212  -34.6382  -16.3485 F       1  UNL1       -0.1658
     27 F         -64.5977  -33.2526  -18.0115 F       1  UNL1       -0.1658
     28 C         -61.1786  -47.7186  -26.3141 C.3     1  UNL1        0.1535
     29 C         -61.6735  -48.9989  -25.6864 C.2     1  UNL1        0.2443
     30 O         -62.5420  -49.6954  -26.2800 O.2     1  UNL1       -0.2730
     31 N         -61.1548  -49.4119  -24.4118 N.am    1  UNL1       -0.2825
     32 H         -60.6337  -48.7023  -23.8485 H       1  UNL1        0.1549
     33 C         -61.3963  -50.6982  -23.8148 C.ar    1  UNL1        0.0539
     34 C         -60.3849  -51.4000  -23.1360 C.ar    1  UNL1        0.0354
     35 C         -60.6770  -52.6337  -22.5494 C.ar    1  UNL1        0.1007
     36 N         -61.9340  -53.1445  -22.6233 N.ar    1  UNL1       -0.2378
     37 C         -62.9366  -52.4810  -23.2571 C.ar    1  UNL1        0.1043
     38 S         -64.5733  -53.1975  -23.3163 S.3     1  UNL1       -0.1227
     39 C         -62.6874  -51.2424  -23.8560 C.ar    1  UNL1        0.0399
     40 H         -64.2938  -53.8682  -24.5217 H       1  UNL1        0.1086
     41 C         -61.6412  -47.5858  -27.7799 C.3     1  UNL1        0.0569
     42 C         -60.9082  -46.5177  -28.5467 C.ar    1  UNL1       -0.0017
     43 C         -59.5343  -46.2922  -28.5433 C.ar    1  UNL1        0.0681
     44 N         -59.2191  -45.2765  -29.3784 N.ar    1  UNL1       -0.3523
     45 C         -60.3812  -44.8567  -29.9078 C.ar    1  UNL1        0.0563
     46 C         -60.5658  -43.8277  -30.8303 C.ar    1  UNL1        0.0170
     47 C         -61.8785  -43.5530  -31.2552 C.ar    1  UNL1        0.0015
     48 C         -62.9651  -44.3021  -30.7518 C.ar    1  UNL1        0.0001
     49 C         -62.7488  -45.3332  -29.8200 C.ar    1  UNL1        0.0012
     50 C         -61.4357  -45.5876  -29.4224 C.ar    1  UNL1        0.0131
     51 H         -58.2647  -44.8990  -29.5709 H       1  UNL1        0.1660
@<TRIPOS>BOND
     1     1     2    2
     2     2     3   am
     3     3    28    1
     4    28    41    1
     5    41    42    1
     6    42    43   ar
     7    43    44   ar
     8    44    45   ar
     9    45    46   ar
    10    46    47   ar
    11    47    48   ar
    12    48    49   ar
    13    49    50   ar
    14    28    29    1
    15    29    30    2
    16    29    31   am
    17    31    33    1
    18    33    34   ar
    19    34    35   ar
    20    35    36   ar
    21    36    37   ar
    22    37    38    1
    23    37    39   ar
    24     2     5    1
    25     5     6   ar
    26     6     7   ar
    27     7     8   ar
    28     8    12    1
    29    12    13    1
    30    13    14    1
    31    14    15    1
    32    15    18    1
    33    18    19   ar
    34    19    20   ar
    35    20    21   ar
    36    21    24    1
    37    24    25    1
    38    24    26    1
    39    24    27    1
    40    21    22   ar
    41    22    23   ar
    42    15    16    1
    43    16    17    1
    44     8     9   ar
    45     9    10   ar
    46    10    11    1
    47    50    42   ar
    48    39    33   ar
    49    10     5   ar
    50    50    45   ar
    51    17    12    1
    52    23    18   ar
    53     3     4    1
    54    44    51    1
    55    31    32    1
    56    38    40    1
@<TRIPOS>MOLECULE
*****
 51 56 0 0 0
SMALL
GASTEIGER

@<TRIPOS>ATOM
      1 O         -61.3752  -42.6949  -19.5058 O.2     1  UNL1       -0.2701
      2 C         -62.0047  -42.0349  -20.3777 C.2     1  UNL1        0.2483
      3 N         -62.9735  -41.0547  -19.9707 N.am    1  UNL1       -0.2945
      4 H         -63.2669  -40.3401  -20.6729 H       1  UNL1        0.1501
      5 C         -61.6985  -42.2521  -21.8101 C.ar    1  UNL1        0.0808
      6 C         -62.7286  -42.1585  -22.7611 C.ar    1  UNL1        0.0080
      7 C         -62.4656  -42.3702  -24.1168 C.ar    1  UNL1        0.0148
      8 C         -61.1659  -42.6690  -24.5503 C.ar    1  UNL1        0.0502
      9 C         -60.1311  -42.7480  -23.6049 C.ar    1  UNL1        0.0443
     10 C         -60.3902  -42.5368  -22.2471 C.ar    1  UNL1        0.1457
     11 F         -59.3515  -42.5603  -21.3753 F       1  UNL1       -0.2040
     12 N         -60.9023  -42.8907  -25.9486 N.pl3   1  UNL1       -0.3040
     13 C         -60.8339  -44.2531  -26.4882 C.3     1  UNL1        0.1123
     14 C         -61.4690  -44.3049  -27.8803 C.3     1  UNL1        0.1136
     15 N         -60.9785  -43.1968  -28.7128 N.pl3   1  UNL1       -0.2897
     16 C         -61.0398  -41.8385  -28.1571 C.3     1  UNL1        0.1136
     17 C         -60.3794  -41.8020  -26.7806 C.3     1  UNL1        0.1123
     18 C         -60.7191  -43.3777  -30.1198 C.ar    1  UNL1        0.1318
     19 C         -59.6852  -44.2146  -30.5706 C.ar    1  UNL1        0.0343
     20 C         -59.4678  -44.3650  -31.9410 C.ar    1  UNL1        0.0083
     21 C         -60.2913  -43.7037  -32.8644 C.ar    1  UNL1        0.0906
     22 C         -61.3020  -42.8630  -32.3731 C.ar    1  UNL1        0.1041
     23 N         -61.4931  -42.7300  -31.0341 N.ar    1  UNL1       -0.2292
     24 C         -60.0358  -43.8185  -34.3456 C.3     1  UNL1        0.4200
     25 F         -59.2864  -42.7455  -34.7962 F       1  UNL1       -0.1658
     26 F         -59.3428  -44.9817  -34.6329 F       1  UNL1       -0.1658
     27 F         -61.2447  -43.8369  -35.0158 F       1  UNL1       -0.1658
     28 C         -63.2983  -40.8206  -18.5580 C.3     1  UNL1        0.1535
     29 C         -63.9086  -39.4534  -18.3675 C.2     1  UNL1        0.2443
     30 O         -64.7701  -39.2696  -17.4642 O.2     1  UNL1       -0.2730
     31 N         -63.5073  -38.3709  -19.2228 N.am    1  UNL1       -0.2825
     32 H         -62.9889  -38.6122  -20.0977 H       1  UNL1        0.1549
     33 C         -63.8633  -36.9934  -19.0109 C.ar    1  UNL1        0.0539
     34 C         -62.9012  -36.0235  -18.6798 C.ar    1  UNL1        0.0354
     35 C         -63.2934  -34.6934  -18.5112 C.ar    1  UNL1        0.1007
     36 N         -64.5942  -34.3384  -18.6798 N.ar    1  UNL1       -0.2378
     37 C         -65.5436  -35.2503  -19.0174 C.ar    1  UNL1        0.1043
     38 S         -67.2385  -34.7248  -19.2339 S.3     1  UNL1       -0.1227
     39 C         -65.1932  -36.5918  -19.1975 C.ar    1  UNL1        0.0399
     40 H         -67.5391  -34.9561  -17.8785 H       1  UNL1        0.1086
     41 C         -64.2102  -41.9347  -18.0033 C.3     1  UNL1        0.0569
     42 C         -64.9869  -42.6612  -19.0687 C.ar    1  UNL1       -0.0017
     43 C         -65.1410  -44.0400  -19.1850 C.ar    1  UNL1        0.0681
     44 N         -65.9364  -44.3405  -20.2365 N.ar    1  UNL1       -0.3523
     45 C         -66.2846  -43.1646  -20.7868 C.ar    1  UNL1        0.0563
     46 C         -67.1024  -42.9615  -21.8976 C.ar    1  UNL1        0.0170
     47 C         -67.3383  -41.6364  -22.3072 C.ar    1  UNL1        0.0015
     48 C         -66.7553  -40.5567  -21.6076 C.ar    1  UNL1        0.0001
     49 C         -65.9323  -40.7920  -20.4915 C.ar    1  UNL1        0.0012
     50 C         -65.7222  -42.1160  -20.1043 C.ar    1  UNL1        0.0131
     51 H         -66.2209  -45.2943  -20.5523 H       1  UNL1        0.1660
@<TRIPOS>BOND
     1     1     2    2
     2     2     3   am
     3     3    28    1
     4    28    41    1
     5    41    42    1
     6    42    43   ar
     7    43    44   ar
     8    44    45   ar
     9    45    46   ar
    10    46    47   ar
    11    47    48   ar
    12    48    49   ar
    13    49    50   ar
    14    28    29    1
    15    29    30    2
    16    29    31   am
    17    31    33    1
    18    33    34   ar
    19    34    35   ar
    20    35    36   ar
    21    36    37   ar
    22    37    38    1
    23    37    39   ar
    24     2     5    1
    25     5     6   ar
    26     6     7   ar
    27     7     8   ar
    28     8    12    1
    29    12    13    1
    30    13    14    1
    31    14    15    1
    32    15    18    1
    33    18    19   ar
    34    19    20   ar
    35    20    21   ar
    36    21    24    1
    37    24    25    1
    38    24    26    1
    39    24    27    1
    40    21    22   ar
    41    22    23   ar
    42    15    16    1
    43    16    17    1
    44     8     9   ar
    45     9    10   ar
    46    10    11    1
    47    50    42   ar
    48    39    33   ar
    49    10     5   ar
    50    50    45   ar
    51    17    12    1
    52    23    18   ar
    53     3     4    1
    54    44    51    1
    55    31    32    1
    56    38    40    1
