@<TRIPOS>MOLECULE
*****
 36 40 0 0 0
SMALL
GASTEIGER

@<TRIPOS>ATOM
      1 C          -7.7644   -8.3242   30.2996 C.ar    1  UNL1        0.0673
      2 C          -7.6779   -6.9178   30.1938 C.ar    1  UNL1        0.0170
      3 C          -8.7678   -6.1004   30.5683 C.ar    1  UNL1        0.0142
      4 C          -9.9538   -6.6739   31.0633 C.ar    1  UNL1        0.0748
      5 CL        -11.3067   -5.6634   31.5422 Cl      1  UNL1       -0.0807
      6 C         -10.0051   -8.0644   31.1658 C.ar    1  UNL1        0.0875
      7 N         -10.9988   -8.8320   31.6345 N.ar    1  UNL1       -0.3366
      8 C         -10.5110  -10.0980   31.5446 C.ar    1  UNL1        0.1406
      9 N          -9.2492  -10.1476   31.0396 N.ar    1  UNL1       -0.2258
     10 C          -8.9574   -8.8566   30.8018 C.ar    1  UNL1        0.1125
     11 H         -11.9206   -8.5080   31.9999 H       1  UNL1        0.1674
     12 N          -5.8295  -11.4286   28.6779 N.3     1  UNL1       -0.2647
     13 C          -5.3534  -11.2619   30.0642 C.3     1  UNL1        0.0941
     14 C          -6.2825  -10.2936   30.8037 C.3     1  UNL1        0.1082
     15 N          -6.6575   -9.1690   29.9381 N.pl3   1  UNL1       -0.3034
     16 C          -5.8730   -8.9072   28.7268 C.3     1  UNL1        0.1082
     17 C          -5.7586  -10.1838   27.8729 C.3     1  UNL1        0.0941
     18 C          -5.2395  -12.5964   27.9859 C.3     1  UNL1        0.1200
     19 N          -7.2957  -15.3530   26.6751 N.ar    1  UNL1       -0.3128
     20 C          -7.9595  -14.9410   27.7730 C.ar    1  UNL1        0.1780
     21 N          -7.3421  -13.9191   28.4002 N.ar    1  UNL1       -0.2273
     22 C          -6.2474  -13.6716   27.6506 C.ar    1  UNL1        0.0885
     23 C          -6.2224  -14.5437   26.5717 C.ar    1  UNL1        0.0537
     24 C          -5.1396  -14.6866   25.5410 C.3     1  UNL1        0.0514
     25 C          -8.8225  -15.9260   24.8441 C.3     1  UNL1        0.0265
     26 C          -7.7164  -16.4213   25.7680 C.3     1  UNL1        0.1073
     27 C         -11.2520  -11.3165   31.9589 C.ar    1  UNL1        0.0339
     28 C         -10.6305  -12.2629   32.7878 C.ar    1  UNL1        0.0027
     29 C         -11.3085  -13.4159   33.1887 C.ar    1  UNL1       -0.0042
     30 C         -12.6339  -13.6669   32.7739 C.ar    1  UNL1       -0.0228
     31 C         -13.2500  -12.7092   31.9361 C.ar    1  UNL1       -0.0042
     32 C         -12.5693  -11.5555   31.5363 C.ar    1  UNL1        0.0027
     33 C         -13.3476  -14.9531   33.2391 C.3     1  UNL1        0.0189
     34 C         -13.0825  -15.1735   34.7445 C.3     1  UNL1        0.0044
     35 C         -12.8067  -16.1595   32.4413 C.3     1  UNL1        0.0044
     36 C         -14.8811  -14.9044   33.0348 C.3     1  UNL1        0.0044
@<TRIPOS>BOND
     1    25    26    1
     2    26    19    1
     3    19    20   ar
     4    20    21   ar
     5    21    22   ar
     6    22    18    1
     7    18    12    1
     8    12    13    1
     9    13    14    1
    10    14    15    1
    11    15     1    1
    12     1     2   ar
    13     2     3   ar
    14     3     4   ar
    15     4     5    1
    16     4     6   ar
    17     6     7   ar
    18     7     8   ar
    19     8    27    1
    20    27    28   ar
    21    28    29   ar
    22    29    30   ar
    23    30    33    1
    24    33    34    1
    25    33    35    1
    26    33    36    1
    27    30    31   ar
    28    31    32   ar
    29     8     9   ar
    30     9    10   ar
    31    15    16    1
    32    16    17    1
    33    22    23   ar
    34    23    24    1
    35    23    19   ar
    36    17    12    1
    37    10     1   ar
    38    10     6   ar
    39    32    27   ar
    40     7    11    1
@<TRIPOS>MOLECULE
*****
 36 40 0 0 0
SMALL
GASTEIGER

@<TRIPOS>ATOM
      1 C         -11.7394  -10.0693   31.2778 C.ar    1  UNL1        0.0673
      2 C         -12.6265  -10.1314   32.3758 C.ar    1  UNL1        0.0170
      3 C         -12.8948  -11.3627   33.0146 C.ar    1  UNL1        0.0142
      4 C         -12.2737  -12.5462   32.5739 C.ar    1  UNL1        0.0748
      5 CL        -12.5928  -14.0770   33.3712 Cl      1  UNL1       -0.0807
      6 C         -11.3950  -12.4511   31.4943 C.ar    1  UNL1        0.0875
      7 N         -10.6656  -13.4192   30.9224 N.ar    1  UNL1       -0.3366
      8 C          -9.9644  -12.7765   29.9509 C.ar    1  UNL1        0.1406
      9 N         -10.2280  -11.4433   29.8977 N.ar    1  UNL1       -0.2258
     10 C         -11.1368  -11.2659   30.8728 C.ar    1  UNL1        0.1125
     11 H         -10.6415  -14.4266   31.1922 H       1  UNL1        0.1674
     12 N          -9.7684   -6.6906   30.4348 N.3     1  UNL1       -0.2647
     13 C         -11.1991   -6.3640   30.5872 C.3     1  UNL1        0.0941
     14 C         -11.9266   -7.5617   31.2069 C.3     1  UNL1        0.1082
     15 N         -11.4432   -8.8207   30.6276 N.pl3   1  UNL1       -0.3034
     16 C         -10.6868   -8.7853   29.3714 C.3     1  UNL1        0.1082
     17 C          -9.5113   -7.7960   29.4785 C.3     1  UNL1        0.0941
     18 C          -8.9140   -5.5070   30.1904 C.3     1  UNL1        0.1200
     19 N          -5.5468   -6.2186   31.4947 N.ar    1  UNL1       -0.3128
     20 C          -5.3475   -5.9779   30.1839 C.ar    1  UNL1        0.1780
     21 N          -6.4917   -5.6966   29.5278 N.ar    1  UNL1       -0.2273
     22 C          -7.4500   -5.7504   30.4766 C.ar    1  UNL1        0.0885
     23 C          -6.8694   -6.0553   31.6993 C.ar    1  UNL1        0.0537
     24 C          -7.5709   -6.3094   33.0027 C.3     1  UNL1        0.0514
     25 C          -4.6965   -7.9403   33.0193 C.3     1  UNL1        0.0265
     26 C          -4.5086   -6.5280   32.4782 C.3     1  UNL1        0.1073
     27 C          -8.9960  -13.4344   29.0371 C.ar    1  UNL1        0.0339
     28 C          -9.4243  -14.4749   28.1987 C.ar    1  UNL1        0.0027
     29 C          -8.5305  -15.1079   27.3324 C.ar    1  UNL1       -0.0042
     30 C          -7.1735  -14.7251   27.2734 C.ar    1  UNL1       -0.0228
     31 C          -6.7510  -13.6783   28.1246 C.ar    1  UNL1       -0.0042
     32 C          -7.6478  -13.0459   28.9908 C.ar    1  UNL1        0.0027
     33 C          -6.2184  -15.4500   26.3025 C.3     1  UNL1        0.0189
     34 C          -6.9669  -15.7768   24.9919 C.3     1  UNL1        0.0044
     35 C          -5.7230  -16.7612   26.9506 C.3     1  UNL1        0.0044
     36 C          -4.9728  -14.6082   25.9343 C.3     1  UNL1        0.0044
@<TRIPOS>BOND
     1    25    26    1
     2    26    19    1
     3    19    20   ar
     4    20    21   ar
     5    21    22   ar
     6    22    18    1
     7    18    12    1
     8    12    13    1
     9    13    14    1
    10    14    15    1
    11    15     1    1
    12     1     2   ar
    13     2     3   ar
    14     3     4   ar
    15     4     5    1
    16     4     6   ar
    17     6     7   ar
    18     7     8   ar
    19     8    27    1
    20    27    28   ar
    21    28    29   ar
    22    29    30   ar
    23    30    33    1
    24    33    34    1
    25    33    35    1
    26    33    36    1
    27    30    31   ar
    28    31    32   ar
    29     8     9   ar
    30     9    10   ar
    31    15    16    1
    32    16    17    1
    33    22    23   ar
    34    23    24    1
    35    23    19   ar
    36    17    12    1
    37    10     1   ar
    38    10     6   ar
    39    32    27   ar
    40     7    11    1
@<TRIPOS>MOLECULE
*****
 36 40 0 0 0
SMALL
GASTEIGER

@<TRIPOS>ATOM
      1 C          -7.8996   -8.1289   30.0922 C.ar    1  UNL1        0.0673
      2 C          -7.9423   -6.7341   29.8701 C.ar    1  UNL1        0.0170
      3 C          -9.1314   -6.0060   30.0981 C.ar    1  UNL1        0.0142
      4 C         -10.2901   -6.6570   30.5610 C.ar    1  UNL1        0.0748
      5 CL        -11.7668   -5.7562   30.8585 Cl      1  UNL1       -0.0807
      6 C         -10.2137   -8.0328   30.7809 C.ar    1  UNL1        0.0875
      7 N         -11.1606   -8.8585   31.2474 N.ar    1  UNL1       -0.3366
      8 C         -10.5469  -10.0706   31.3012 C.ar    1  UNL1        0.1406
      9 N          -9.2518  -10.0303   30.8878 N.ar    1  UNL1       -0.2258
     10 C          -9.0697   -8.7394   30.5582 C.ar    1  UNL1        0.1125
     11 H         -12.1344   -8.6030   31.5208 H       1  UNL1        0.1674
     12 N          -5.4877  -10.9456   28.5888 N.3     1  UNL1       -0.2647
     13 C          -5.3110  -10.9210   30.0533 C.3     1  UNL1        0.0941
     14 C          -6.4286  -10.0825   30.6822 C.3     1  UNL1        0.1082
     15 N          -6.6919   -8.8814   29.8806 N.pl3   1  UNL1       -0.3034
     16 C          -5.6981   -8.4504   28.8917 C.3     1  UNL1        0.1082
     17 C          -5.3348   -9.6143   27.9509 C.3     1  UNL1        0.0941
     18 C          -4.6987  -12.0011   27.9152 C.3     1  UNL1        0.1200
     19 N          -7.1376  -14.6818   27.2743 N.ar    1  UNL1       -0.3128
     20 C          -6.1800  -14.8801   26.3472 C.ar    1  UNL1        0.1780
     21 N          -5.1849  -13.9734   26.4265 N.ar    1  UNL1       -0.2273
     22 C          -5.5302  -13.1789   27.4614 C.ar    1  UNL1        0.0885
     23 C          -6.7285  -13.6229   28.0017 C.ar    1  UNL1        0.0537
     24 C          -7.5263  -12.9800   29.0997 C.3     1  UNL1        0.0514
     25 C          -8.6921  -16.2227   26.1691 C.3     1  UNL1        0.0265
     26 C          -8.3318  -15.5056   27.4647 C.3     1  UNL1        0.1073
     27 C         -11.1953  -11.3218   31.7699 C.ar    1  UNL1        0.0339
     28 C         -10.4825  -12.2135   32.5859 C.ar    1  UNL1        0.0027
     29 C         -11.0724  -13.3959   33.0372 C.ar    1  UNL1       -0.0042
     30 C         -12.3977  -13.7322   32.6876 C.ar    1  UNL1       -0.0228
     31 C         -13.1062  -12.8292   31.8622 C.ar    1  UNL1       -0.0042
     32 C         -12.5135  -11.6459   31.4119 C.ar    1  UNL1        0.0027
     33 C         -13.0125  -15.0484   33.2072 C.3     1  UNL1        0.0189
     34 C         -12.7031  -15.2026   34.7123 C.3     1  UNL1        0.0044
     35 C         -12.4064  -16.2401   32.4345 C.3     1  UNL1        0.0044
     36 C         -14.5495  -15.1101   33.0353 C.3     1  UNL1        0.0044
@<TRIPOS>BOND
     1    25    26    1
     2    26    19    1
     3    19    20   ar
     4    20    21   ar
     5    21    22   ar
     6    22    18    1
     7    18    12    1
     8    12    13    1
     9    13    14    1
    10    14    15    1
    11    15     1    1
    12     1     2   ar
    13     2     3   ar
    14     3     4   ar
    15     4     5    1
    16     4     6   ar
    17     6     7   ar
    18     7     8   ar
    19     8    27    1
    20    27    28   ar
    21    28    29   ar
    22    29    30   ar
    23    30    33    1
    24    33    34    1
    25    33    35    1
    26    33    36    1
    27    30    31   ar
    28    31    32   ar
    29     8     9   ar
    30     9    10   ar
    31    15    16    1
    32    16    17    1
    33    22    23   ar
    34    23    24    1
    35    23    19   ar
    36    17    12    1
    37    10     1   ar
    38    10     6   ar
    39    32    27   ar
    40     7    11    1
@<TRIPOS>MOLECULE
*****
 36 40 0 0 0
SMALL
GASTEIGER

@<TRIPOS>ATOM
      1 C          -5.8032   -7.9343   30.2017 C.ar    1  UNL1        0.0673
      2 C          -4.5159   -7.8532   29.6248 C.ar    1  UNL1        0.0170
      3 C          -3.7991   -9.0262   29.2988 C.ar    1  UNL1        0.0142
      4 C          -4.3608  -10.2951   29.5336 C.ar    1  UNL1        0.0748
      5 CL         -3.4807  -11.7561   29.1192 Cl      1  UNL1       -0.0807
      6 C          -5.6374  -10.3425   30.0946 C.ar    1  UNL1        0.0875
      7 N          -6.3872  -11.4170   30.3765 N.ar    1  UNL1       -0.3366
      8 C          -7.5439  -10.8957   30.8653 C.ar    1  UNL1        0.1406
      9 N          -7.5437   -9.5360   30.8962 N.ar    1  UNL1       -0.2258
     10 C          -6.3305   -9.2133   30.4143 C.ar    1  UNL1        0.1125
     11 H          -6.1294  -12.4167   30.2266 H       1  UNL1        0.1674
     12 N          -8.9976   -5.5864   30.7444 N.3     1  UNL1       -0.2647
     13 C          -8.0076   -4.8402   29.9447 C.3     1  UNL1        0.0941
     14 C          -6.9191   -5.8045   29.4619 C.3     1  UNL1        0.1082
     15 N          -6.5524   -6.7492   30.5238 N.pl3   1  UNL1       -0.3034
     16 C          -6.9336   -6.4509   31.9083 C.3     1  UNL1        0.1082
     17 C          -8.4416   -6.1516   31.9990 C.3     1  UNL1        0.0941
     18 C         -10.2638   -4.8498   30.9560 C.3     1  UNL1        0.1200
     19 N         -12.7824   -7.4473   31.6304 N.ar    1  UNL1       -0.3128
     20 C         -13.1651   -6.4104   32.4011 C.ar    1  UNL1        0.1780
     21 N         -12.3433   -5.3472   32.2866 N.ar    1  UNL1       -0.2273
     22 C         -11.4103   -5.7334   31.3911 C.ar    1  UNL1        0.0885
     23 C         -11.6866   -7.0255   30.9678 C.ar    1  UNL1        0.0537
     24 C         -10.8579   -7.8811   30.0531 C.3     1  UNL1        0.0514
     25 C         -12.6179   -9.8493   32.0949 C.3     1  UNL1        0.0265
     26 C         -13.4746   -8.7311   31.5130 C.3     1  UNL1        0.1073
     27 C          -8.7069  -11.7028   31.3143 C.ar    1  UNL1        0.0339
     28 C          -8.9761  -11.8360   32.6850 C.ar    1  UNL1        0.0027
     29 C         -10.0638  -12.5908   33.1291 C.ar    1  UNL1       -0.0042
     30 C         -10.9226  -13.2426   32.2185 C.ar    1  UNL1       -0.0228
     31 C         -10.6409  -13.1053   30.8399 C.ar    1  UNL1       -0.0042
     32 C          -9.5515  -12.3489   30.3978 C.ar    1  UNL1        0.0027
     33 C         -12.1134  -14.0670   32.7503 C.3     1  UNL1        0.0189
     34 C         -13.4315  -13.3207   32.4498 C.3     1  UNL1        0.0044
     35 C         -11.9679  -14.2567   34.2759 C.3     1  UNL1        0.0044
     36 C         -12.2133  -15.4725   32.1096 C.3     1  UNL1        0.0044
@<TRIPOS>BOND
     1    25    26    1
     2    26    19    1
     3    19    20   ar
     4    20    21   ar
     5    21    22   ar
     6    22    18    1
     7    18    12    1
     8    12    13    1
     9    13    14    1
    10    14    15    1
    11    15     1    1
    12     1     2   ar
    13     2     3   ar
    14     3     4   ar
    15     4     5    1
    16     4     6   ar
    17     6     7   ar
    18     7     8   ar
    19     8    27    1
    20    27    28   ar
    21    28    29   ar
    22    29    30   ar
    23    30    33    1
    24    33    34    1
    25    33    35    1
    26    33    36    1
    27    30    31   ar
    28    31    32   ar
    29     8     9   ar
    30     9    10   ar
    31    15    16    1
    32    16    17    1
    33    22    23   ar
    34    23    24    1
    35    23    19   ar
    36    17    12    1
    37    10     1   ar
    38    10     6   ar
    39    32    27   ar
    40     7    11    1
@<TRIPOS>MOLECULE
*****
 36 40 0 0 0
SMALL
GASTEIGER

@<TRIPOS>ATOM
      1 C          -5.7283   -8.2149   31.8684 C.ar    1  UNL1        0.0673
      2 C          -4.3173   -8.1442   31.8902 C.ar    1  UNL1        0.0170
      3 C          -3.5456   -9.2810   32.2193 C.ar    1  UNL1        0.0142
      4 C          -4.1701  -10.5057   32.5202 C.ar    1  UNL1        0.0748
      5 CL         -3.2168  -11.9249   32.9174 Cl      1  UNL1       -0.0807
      6 C          -5.5643  -10.5467   32.4803 C.ar    1  UNL1        0.0875
      7 N          -6.3762  -11.5919   32.6914 N.ar    1  UNL1       -0.3366
      8 C          -7.6234  -11.0895   32.4895 C.ar    1  UNL1        0.1406
      9 N          -7.6186   -9.7704   32.1580 N.ar    1  UNL1       -0.2258
     10 C          -6.3124   -9.4512   32.1673 C.ar    1  UNL1        0.1125
     11 H          -6.0921  -12.5660   32.9337 H       1  UNL1        0.1674
     12 N          -8.9779   -6.1267   30.8238 N.3     1  UNL1       -0.2647
     13 C          -7.8654   -5.7187   29.9448 C.3     1  UNL1        0.0941
     14 C          -6.7051   -6.7059   30.1085 C.3     1  UNL1        0.1082
     15 N          -6.5273   -7.0707   31.5191 N.pl3   1  UNL1       -0.3034
     16 C          -7.1477   -6.2391   32.5559 C.3     1  UNL1        0.1082
     17 C          -8.6493   -6.0523   32.2692 C.3     1  UNL1        0.0941
     18 C         -10.2645   -5.4751   30.4913 C.3     1  UNL1        0.1200
     19 N         -12.8887   -7.8831   31.4188 N.ar    1  UNL1       -0.3128
     20 C         -13.3622   -6.6980   31.8513 C.ar    1  UNL1        0.1780
     21 N         -12.5179   -5.6775   31.5974 N.ar    1  UNL1       -0.2273
     22 C         -11.4731   -6.2502   30.9635 C.ar    1  UNL1        0.0885
     23 C         -11.7045   -7.6121   30.8339 C.ar    1  UNL1        0.0537
     24 C         -10.7667   -8.6469   30.2816 C.3     1  UNL1        0.0514
     25 C         -12.8682  -10.0677   32.5320 C.3     1  UNL1        0.0265
     26 C         -13.5750   -9.1712   31.5223 C.3     1  UNL1        0.1073
     27 C          -8.8765  -11.8787   32.6006 C.ar    1  UNL1        0.0339
     28 C          -9.3527  -12.2573   33.8650 C.ar    1  UNL1        0.0027
     29 C         -10.5283  -13.0001   33.9924 C.ar    1  UNL1       -0.0042
     30 C         -11.2712  -13.3942   32.8591 C.ar    1  UNL1       -0.0228
     31 C         -10.7812  -13.0110   31.5895 C.ar    1  UNL1       -0.0042
     32 C          -9.6042  -12.2671   31.4646 C.ar    1  UNL1        0.0027
     33 C         -12.5649  -14.2145   33.0431 C.3     1  UNL1        0.0189
     34 C         -13.7660  -13.4109   32.4987 C.3     1  UNL1        0.0044
     35 C         -12.7809  -14.5057   34.5441 C.3     1  UNL1        0.0044
     36 C         -12.5335  -15.5724   32.3010 C.3     1  UNL1        0.0044
@<TRIPOS>BOND
     1    25    26    1
     2    26    19    1
     3    19    20   ar
     4    20    21   ar
     5    21    22   ar
     6    22    18    1
     7    18    12    1
     8    12    13    1
     9    13    14    1
    10    14    15    1
    11    15     1    1
    12     1     2   ar
    13     2     3   ar
    14     3     4   ar
    15     4     5    1
    16     4     6   ar
    17     6     7   ar
    18     7     8   ar
    19     8    27    1
    20    27    28   ar
    21    28    29   ar
    22    29    30   ar
    23    30    33    1
    24    33    34    1
    25    33    35    1
    26    33    36    1
    27    30    31   ar
    28    31    32   ar
    29     8     9   ar
    30     9    10   ar
    31    15    16    1
    32    16    17    1
    33    22    23   ar
    34    23    24    1
    35    23    19   ar
    36    17    12    1
    37    10     1   ar
    38    10     6   ar
    39    32    27   ar
    40     7    11    1
@<TRIPOS>MOLECULE
*****
 36 40 0 0 0
SMALL
GASTEIGER

@<TRIPOS>ATOM
      1 C          -9.6368   -7.0222   31.2108 C.ar    1  UNL1        0.0673
      2 C         -10.0963   -5.6928   31.0768 C.ar    1  UNL1        0.0170
      3 C         -11.4770   -5.3998   31.1381 C.ar    1  UNL1        0.0142
      4 C         -12.4167   -6.4269   31.3447 C.ar    1  UNL1        0.0748
      5 CL        -14.1325   -6.0680   31.4345 Cl      1  UNL1       -0.0807
      6 C         -11.9316   -7.7278   31.4836 C.ar    1  UNL1        0.0875
      7 N         -12.6173   -8.8548   31.7197 N.ar    1  UNL1       -0.3366
      8 C         -11.6587   -9.8156   31.8014 C.ar    1  UNL1        0.1406
      9 N         -10.4008   -9.3286   31.6274 N.ar    1  UNL1       -0.2258
     10 C         -10.6007   -8.0150   31.4210 C.ar    1  UNL1        0.1125
     11 H         -13.6503   -8.9468   31.8325 H       1  UNL1        0.1674
     12 N          -6.3124   -9.1043   30.4205 N.3     1  UNL1       -0.2647
     13 C          -6.2501   -8.6513   31.8232 C.3     1  UNL1        0.0941
     14 C          -7.6259   -8.1249   32.2448 C.3     1  UNL1        0.1082
     15 N          -8.2331   -7.3344   31.1673 N.pl3   1  UNL1       -0.3034
     16 C          -7.3859   -6.8485   30.0730 C.3     1  UNL1        0.1082
     17 C          -6.5849   -8.0101   29.4557 C.3     1  UNL1        0.0941
     18 C          -5.1670   -9.9524   30.0212 C.3     1  UNL1        0.1200
     19 N          -6.6747  -12.9518   28.5126 N.ar    1  UNL1       -0.3128
     20 C          -5.5484  -12.7560   27.7994 C.ar    1  UNL1        0.1780
     21 N          -4.8522  -11.6779   28.2140 N.ar    1  UNL1       -0.2273
     22 C          -5.5707  -11.1846   29.2444 C.ar    1  UNL1        0.0885
     23 C          -6.6904  -11.9788   29.4458 C.ar    1  UNL1        0.0537
     24 C          -7.8106  -11.7442   30.4181 C.3     1  UNL1        0.0514
     25 C          -7.0833  -15.0608   27.3305 C.3     1  UNL1        0.0265
     26 C          -7.6297  -14.0447   28.3263 C.3     1  UNL1        0.1073
     27 C         -11.9277  -11.2523   32.0645 C.ar    1  UNL1        0.0339
     28 C         -13.0353  -11.6236   32.8419 C.ar    1  UNL1        0.0027
     29 C         -13.3065  -12.9684   33.1023 C.ar    1  UNL1       -0.0042
     30 C         -12.4785  -13.9931   32.5962 C.ar    1  UNL1       -0.0228
     31 C         -11.3631  -13.6086   31.8171 C.ar    1  UNL1       -0.0042
     32 C         -11.0940  -12.2616   31.5576 C.ar    1  UNL1        0.0027
     33 C         -12.8129  -15.4668   32.9071 C.3     1  UNL1        0.0189
     34 C         -14.3458  -15.6535   32.9291 C.3     1  UNL1        0.0044
     35 C         -12.2303  -15.8473   34.2856 C.3     1  UNL1        0.0044
     36 C         -12.2349  -16.4537   31.8641 C.3     1  UNL1        0.0044
@<TRIPOS>BOND
     1    25    26    1
     2    26    19    1
     3    19    20   ar
     4    20    21   ar
     5    21    22   ar
     6    22    18    1
     7    18    12    1
     8    12    13    1
     9    13    14    1
    10    14    15    1
    11    15     1    1
    12     1     2   ar
    13     2     3   ar
    14     3     4   ar
    15     4     5    1
    16     4     6   ar
    17     6     7   ar
    18     7     8   ar
    19     8    27    1
    20    27    28   ar
    21    28    29   ar
    22    29    30   ar
    23    30    33    1
    24    33    34    1
    25    33    35    1
    26    33    36    1
    27    30    31   ar
    28    31    32   ar
    29     8     9   ar
    30     9    10   ar
    31    15    16    1
    32    16    17    1
    33    22    23   ar
    34    23    24    1
    35    23    19   ar
    36    17    12    1
    37    10     1   ar
    38    10     6   ar
    39    32    27   ar
    40     7    11    1
@<TRIPOS>MOLECULE
*****
 36 40 0 0 0
SMALL
GASTEIGER

@<TRIPOS>ATOM
      1 C          -7.5879  -12.0072   29.8436 C.ar    1  UNL1        0.0673
      2 C          -6.5151  -11.1097   30.0441 C.ar    1  UNL1        0.0170
      3 C          -5.3461  -11.1991   29.2558 C.ar    1  UNL1        0.0142
      4 C          -5.2358  -12.1774   28.2501 C.ar    1  UNL1        0.0748
      5 CL         -3.7914  -12.2856   27.2587 Cl      1  UNL1       -0.0807
      6 C          -6.3157  -13.0422   28.0692 C.ar    1  UNL1        0.0875
      7 N          -6.4605  -14.0207   27.1647 N.ar    1  UNL1       -0.3366
      8 C          -7.7047  -14.5135   27.4054 C.ar    1  UNL1        0.1406
      9 N          -8.3415  -13.8768   28.4246 N.ar    1  UNL1       -0.2258
     10 C          -7.4434  -12.9618   28.8302 C.ar    1  UNL1        0.1125
     11 H          -5.7702  -14.3073   26.4370 H       1  UNL1        0.1674
     12 N         -10.9577  -10.4325   31.3188 N.3     1  UNL1       -0.2647
     13 C         -10.1700  -10.9720   32.4435 C.3     1  UNL1        0.0941
     14 C          -8.7543  -11.2989   31.9569 C.3     1  UNL1        0.1082
     15 N          -8.7913  -11.9183   30.6267 N.pl3   1  UNL1       -0.3034
     16 C         -10.0575  -12.4660   30.1287 C.3     1  UNL1        0.1082
     17 C         -11.1752  -11.4109   30.2242 C.3     1  UNL1        0.0941
     18 C         -12.2033   -9.7535   31.7406 C.3     1  UNL1        0.1200
     19 N         -11.6902   -6.2202   30.8477 N.ar    1  UNL1       -0.3128
     20 C         -12.5584   -6.1763   31.8772 C.ar    1  UNL1        0.1780
     21 N         -12.8731   -7.4020   32.3437 N.ar    1  UNL1       -0.2273
     22 C         -12.1565   -8.2516   31.5781 C.ar    1  UNL1        0.0885
     23 C         -11.4087   -7.5256   30.6622 C.ar    1  UNL1        0.0537
     24 C         -10.5472   -8.0662   29.5573 C.3     1  UNL1        0.0514
     25 C          -9.6148   -5.1244   30.1377 C.3     1  UNL1        0.0265
     26 C         -11.1376   -5.0643   30.1408 C.3     1  UNL1        0.1073
     27 C          -8.3324  -15.6223   26.6424 C.ar    1  UNL1        0.0339
     28 C          -8.5931  -15.4664   25.2725 C.ar    1  UNL1        0.0027
     29 C          -9.1833  -16.4956   24.5361 C.ar    1  UNL1       -0.0042
     30 C          -9.5369  -17.7197   25.1430 C.ar    1  UNL1       -0.0228
     31 C          -9.2734  -17.8657   26.5243 C.ar    1  UNL1       -0.0042
     32 C          -8.6822  -16.8339   27.2593 C.ar    1  UNL1        0.0027
     33 C         -10.1872  -18.8317   24.2939 C.3     1  UNL1        0.0189
     34 C         -10.0416  -20.1864   25.0209 C.3     1  UNL1        0.0044
     35 C          -9.4848  -18.9086   22.9209 C.3     1  UNL1        0.0044
     36 C         -11.6954  -18.5964   24.0375 C.3     1  UNL1        0.0044
@<TRIPOS>BOND
     1    25    26    1
     2    26    19    1
     3    19    20   ar
     4    20    21   ar
     5    21    22   ar
     6    22    18    1
     7    18    12    1
     8    12    13    1
     9    13    14    1
    10    14    15    1
    11    15     1    1
    12     1     2   ar
    13     2     3   ar
    14     3     4   ar
    15     4     5    1
    16     4     6   ar
    17     6     7   ar
    18     7     8   ar
    19     8    27    1
    20    27    28   ar
    21    28    29   ar
    22    29    30   ar
    23    30    33    1
    24    33    34    1
    25    33    35    1
    26    33    36    1
    27    30    31   ar
    28    31    32   ar
    29     8     9   ar
    30     9    10   ar
    31    15    16    1
    32    16    17    1
    33    22    23   ar
    34    23    24    1
    35    23    19   ar
    36    17    12    1
    37    10     1   ar
    38    10     6   ar
    39    32    27   ar
    40     7    11    1
@<TRIPOS>MOLECULE
*****
 36 40 0 0 0
SMALL
GASTEIGER

@<TRIPOS>ATOM
      1 C          -5.7954  -12.2133   28.0157 C.ar    1  UNL1        0.0673
      2 C          -4.8187  -11.2497   27.6780 C.ar    1  UNL1        0.0170
      3 C          -4.8003   -9.9901   28.3177 C.ar    1  UNL1        0.0142
      4 C          -5.7485   -9.6789   29.3100 C.ar    1  UNL1        0.0748
      5 CL         -5.7232   -8.1207   30.1176 Cl      1  UNL1       -0.0807
      6 C          -6.6936  -10.6546   29.6289 C.ar    1  UNL1        0.0875
      7 N          -7.6642  -10.6080   30.5519 N.ar    1  UNL1       -0.3366
      8 C          -8.2592  -11.8278   30.4696 C.ar    1  UNL1        0.1406
      9 N          -7.6938  -12.6336   29.5312 N.ar    1  UNL1       -0.2258
     10 C          -6.7172  -11.8693   29.0112 C.ar    1  UNL1        0.1125
     11 H          -7.8817   -9.8133   31.1917 H       1  UNL1        0.1674
     12 N          -6.7160  -15.0203   25.3167 N.3     1  UNL1       -0.2647
     13 C          -6.9392  -15.5834   26.6620 C.3     1  UNL1        0.0941
     14 C          -6.8949  -14.4532   27.6956 C.3     1  UNL1        0.1082
     15 N          -5.8171  -13.5062   27.3854 N.pl3   1  UNL1       -0.3034
     16 C          -4.7580  -13.9093   26.4542 C.3     1  UNL1        0.1082
     17 C          -5.3668  -14.4282   25.1382 C.3     1  UNL1        0.0941
     18 C          -7.0907  -15.9409   24.2201 C.3     1  UNL1        0.1200
     19 N          -4.6519  -16.0624   21.4665 N.ar    1  UNL1       -0.3128
     20 C          -5.5169  -15.0975   21.0971 C.ar    1  UNL1        0.1780
     21 N          -6.5018  -14.9101   21.9991 N.ar    1  UNL1       -0.2273
     22 C          -6.2315  -15.7903   22.9858 C.ar    1  UNL1        0.0885
     23 C          -5.0779  -16.4939   22.6706 C.ar    1  UNL1        0.0537
     24 C          -4.4691  -17.6342   23.4350 C.3     1  UNL1        0.0514
     25 C          -3.8651  -17.4114   19.5762 C.3     1  UNL1        0.0265
     26 C          -3.4671  -16.4852   20.7191 C.3     1  UNL1        0.1073
     27 C          -9.4009  -12.2656   31.3125 C.ar    1  UNL1        0.0339
     28 C         -10.5312  -12.8407   30.7120 C.ar    1  UNL1        0.0027
     29 C         -11.6161  -13.2586   31.4854 C.ar    1  UNL1       -0.0042
     30 C         -11.6122  -13.1152   32.8893 C.ar    1  UNL1       -0.0228
     31 C         -10.4704  -12.5313   33.4845 C.ar    1  UNL1       -0.0042
     32 C          -9.3854  -12.1141   32.7081 C.ar    1  UNL1        0.0027
     33 C         -12.8311  -13.5897   33.7075 C.3     1  UNL1        0.0189
     34 C         -13.5406  -14.7373   32.9562 C.3     1  UNL1        0.0044
     35 C         -13.8149  -12.4142   33.8946 C.3     1  UNL1        0.0044
     36 C         -12.4520  -14.1131   35.1139 C.3     1  UNL1        0.0044
@<TRIPOS>BOND
     1    25    26    1
     2    26    19    1
     3    19    20   ar
     4    20    21   ar
     5    21    22   ar
     6    22    18    1
     7    18    12    1
     8    12    13    1
     9    13    14    1
    10    14    15    1
    11    15     1    1
    12     1     2   ar
    13     2     3   ar
    14     3     4   ar
    15     4     5    1
    16     4     6   ar
    17     6     7   ar
    18     7     8   ar
    19     8    27    1
    20    27    28   ar
    21    28    29   ar
    22    29    30   ar
    23    30    33    1
    24    33    34    1
    25    33    35    1
    26    33    36    1
    27    30    31   ar
    28    31    32   ar
    29     8     9   ar
    30     9    10   ar
    31    15    16    1
    32    16    17    1
    33    22    23   ar
    34    23    24    1
    35    23    19   ar
    36    17    12    1
    37    10     1   ar
    38    10     6   ar
    39    32    27   ar
    40     7    11    1
@<TRIPOS>MOLECULE
*****
 36 40 0 0 0
SMALL
GASTEIGER

@<TRIPOS>ATOM
      1 C          -5.6716   -8.5149   30.6557 C.ar    1  UNL1        0.0673
      2 C          -5.2063   -7.2009   30.8864 C.ar    1  UNL1        0.0170
      3 C          -5.9146   -6.3271   31.7412 C.ar    1  UNL1        0.0142
      4 C          -7.0901   -6.7556   32.3857 C.ar    1  UNL1        0.0748
      5 CL         -7.9678   -5.6792   33.4589 Cl      1  UNL1       -0.0807
      6 C          -7.5186   -8.0616   32.1461 C.ar    1  UNL1        0.0875
      7 N          -8.5754   -8.7028   32.6641 N.ar    1  UNL1       -0.3366
      8 C          -8.5024   -9.9501   32.1277 C.ar    1  UNL1        0.1406
      9 N          -7.4379  -10.1107   31.2967 N.ar    1  UNL1       -0.2258
     10 C          -6.8403   -8.9062   31.3190 C.ar    1  UNL1        0.1125
     11 H          -9.2708   -8.3186   33.3402 H       1  UNL1        0.1674
     12 N          -5.0738  -11.5538   28.1220 N.3     1  UNL1       -0.2647
     13 C          -4.0721  -11.6492   29.2009 C.3     1  UNL1        0.0941
     14 C          -4.4617  -10.6973   30.3366 C.3     1  UNL1        0.1082
     15 N          -4.9526   -9.4218   29.8012 N.pl3   1  UNL1       -0.3034
     16 C          -4.6735   -9.0793   28.4026 C.3     1  UNL1        0.1082
     17 C          -5.1175  -10.2215   27.4697 C.3     1  UNL1        0.0941
     18 C          -5.0058  -12.6687   27.1510 C.3     1  UNL1        0.1200
     19 N          -7.4294  -15.4366   27.0506 N.ar    1  UNL1       -0.3128
     20 C          -7.8224  -14.6936   28.1039 C.ar    1  UNL1        0.1780
     21 N          -7.0351  -13.6167   28.3023 N.ar    1  UNL1       -0.2273
     22 C          -6.1145  -13.6823   27.3176 C.ar    1  UNL1        0.0885
     23 C          -6.3638  -14.7963   26.5289 C.ar    1  UNL1        0.0537
     24 C          -5.5342  -15.3073   25.3860 C.3     1  UNL1        0.0514
     25 C          -8.9179  -16.3387   25.3236 C.3     1  UNL1        0.0265
     26 C          -8.0867  -16.6494   26.5626 C.3     1  UNL1        0.1073
     27 C          -9.4639  -11.0457   32.4120 C.ar    1  UNL1        0.0339
     28 C         -10.3976  -11.4252   31.4357 C.ar    1  UNL1        0.0027
     29 C         -11.3112  -12.4521   31.6821 C.ar    1  UNL1       -0.0042
     30 C         -11.3265  -13.1374   32.9157 C.ar    1  UNL1       -0.0228
     31 C         -10.3842  -12.7454   33.8940 C.ar    1  UNL1       -0.0042
     32 C          -9.4704  -11.7172   33.6448 C.ar    1  UNL1        0.0027
     33 C         -12.3523  -14.2662   33.1480 C.3     1  UNL1        0.0189
     34 C         -11.9879  -15.4822   32.2685 C.3     1  UNL1        0.0044
     35 C         -13.7634  -13.7652   32.7709 C.3     1  UNL1        0.0044
     36 C         -12.4022  -14.7483   34.6180 C.3     1  UNL1        0.0044
@<TRIPOS>BOND
     1    25    26    1
     2    26    19    1
     3    19    20   ar
     4    20    21   ar
     5    21    22   ar
     6    22    18    1
     7    18    12    1
     8    12    13    1
     9    13    14    1
    10    14    15    1
    11    15     1    1
    12     1     2   ar
    13     2     3   ar
    14     3     4   ar
    15     4     5    1
    16     4     6   ar
    17     6     7   ar
    18     7     8   ar
    19     8    27    1
    20    27    28   ar
    21    28    29   ar
    22    29    30   ar
    23    30    33    1
    24    33    34    1
    25    33    35    1
    26    33    36    1
    27    30    31   ar
    28    31    32   ar
    29     8     9   ar
    30     9    10   ar
    31    15    16    1
    32    16    17    1
    33    22    23   ar
    34    23    24    1
    35    23    19   ar
    36    17    12    1
    37    10     1   ar
    38    10     6   ar
    39    32    27   ar
    40     7    11    1
