@<TRIPOS>MOLECULE
*****
 47 52 0 0 0
SMALL
GASTEIGER

@<TRIPOS>ATOM
      1 C          13.2644   82.8427   25.4036 C.ar    1  UNL1        0.0699
      2 C          13.3986   83.8610   24.4477 C.ar    1  UNL1        0.1149
      3 N          13.8152   85.0983   24.8213 N.ar    1  UNL1       -0.2281
      4 C          14.1278   85.3995   26.1101 C.ar    1  UNL1        0.1300
      5 C          14.0580   84.3981   27.1000 C.ar    1  UNL1        0.0398
      6 C          13.6132   83.1204   26.7308 C.ar    1  UNL1        0.0172
      7 N          14.5434   86.7314   26.4332 N.pl3   1  UNL1       -0.2934
      8 C          15.2366   86.9937   27.6970 C.3     1  UNL1        0.0923
      9 C          16.3810   87.9849   27.4635 C.3     1  UNL1        0.0252
     10 C          15.9515   89.2496   26.6607 C.3     1  UNL1        0.0472
     11 C          14.4805   89.1968   26.1836 C.3     1  UNL1        0.0252
     12 C          14.1157   87.8381   25.5712 C.3     1  UNL1        0.0923
     13 C          16.9032   89.5075   25.4722 C.3     1  UNL1        0.2054
     14 O          17.2454   88.2868   24.8130 O.3     1  UNL1       -0.4755
     15 C          16.8770   87.9301   23.5052 C.ar    1  UNL1        0.1388
     16 C          17.1142   88.8537   22.4820 C.ar    1  UNL1        0.0369
     17 C          16.7681   88.5561   21.1632 C.ar    1  UNL1        0.0033
     18 C          16.1820   87.3278   20.8515 C.ar    1  UNL1        0.0066
     19 C          15.9382   86.3802   21.8609 C.ar    1  UNL1        0.0785
     20 C          16.2914   86.6875   23.1878 C.ar    1  UNL1        0.0433
     21 C          15.3189   85.0759   21.5349 C.2     1  UNL1        0.3381
     22 O          15.7622   84.0125   22.0475 O.2     1  UNL1       -0.2451
     23 O          14.2396   85.0102   20.6573 O.3     1  UNL1       -0.4771
     24 H          13.8090   84.1224   20.4275 H       1  UNL1        0.2954
     25 C          11.4674   81.1112   24.9373 C.2     1  UNL1        0.2839
     26 O          10.5530   81.8413   25.4059 O.2     1  UNL1       -0.2665
     27 N          12.8419   81.5166   25.0419 N.am    1  UNL1       -0.2767
     28 H          13.5790   80.7837   24.9316 H       1  UNL1        0.1553
     29 C          12.8685   78.2836   25.4982 C.3     1  UNL1        0.0345
     30 C          11.7393   78.5799   24.5578 C.ar    1  UNL1        0.0202
     31 C          11.1308   79.8166   24.3152 C.ar    1  UNL1        0.1946
     32 O          10.1686   79.6791   23.4203 O.2     1  UNL1       -0.4492
     33 C          10.1220   78.4171   23.0695 C.ar    1  UNL1        0.1452
     34 C           9.2580   77.8273   22.1535 C.ar    1  UNL1        0.0375
     35 C           9.3798   76.4455   21.9265 C.ar    1  UNL1        0.0031
     36 C          10.3579   75.6775   22.6143 C.ar    1  UNL1        0.0002
     37 C          11.2184   76.3174   23.5385 C.ar    1  UNL1        0.0028
     38 C          11.0697   77.6906   23.7390 C.ar    1  UNL1        0.0337
     39 C          10.4769   74.2182   22.3663 C.ar    1  UNL1        0.0000
     40 C           9.3413   73.3879   22.4208 C.ar    1  UNL1        0.0000
     41 C           9.4567   72.0140   22.1877 C.ar    1  UNL1        0.0000
     42 C          10.7030   71.4542   21.8977 C.ar    1  UNL1        0.0000
     43 C          11.8370   72.2673   21.8406 C.ar    1  UNL1        0.0000
     44 C          11.7277   73.6417   22.0736 C.ar    1  UNL1        0.0000
     45 C          14.4095   84.6783   28.5366 C.3     1  UNL1        0.1664
     46 O          15.4549   83.8360   28.9324 O.3     1  UNL1       -0.3771
     47 H          15.6203   84.0338   29.8907 H       1  UNL1        0.2109
@<TRIPOS>BOND
     1    29    30    1
     2    30    31   ar
     3    31    25    1
     4    25    26    2
     5    25    27   am
     6    27     1    1
     7     1     2   ar
     8     2     3   ar
     9     3     4   ar
    10     4     7    1
    11     7     8    1
    12     8     9    1
    13     9    10    1
    14    10    13    1
    15    13    14    1
    16    14    15    1
    17    15    16   ar
    18    16    17   ar
    19    17    18   ar
    20    18    19   ar
    21    19    21    1
    22    21    22    2
    23    21    23    1
    24    19    20   ar
    25    10    11    1
    26    11    12    1
    27     4     5   ar
    28     5    45    1
    29    45    46    1
    30     5     6   ar
    31    31    32   ar
    32    32    33   ar
    33    33    34   ar
    34    34    35   ar
    35    35    36   ar
    36    36    39    1
    37    39    40   ar
    38    40    41   ar
    39    41    42   ar
    40    42    43   ar
    41    43    44   ar
    42    36    37   ar
    43    37    38   ar
    44    38    30   ar
    45     6     1   ar
    46    38    33   ar
    47    12     7    1
    48    44    39   ar
    49    20    15   ar
    50    27    28    1
    51    23    24    1
    52    46    47    1
@<TRIPOS>MOLECULE
*****
 47 52 0 0 0
SMALL
GASTEIGER

@<TRIPOS>ATOM
      1 C           9.7498   79.8420   24.3635 C.ar    1  UNL1        0.0699
      2 C           9.2041   79.0186   25.3600 C.ar    1  UNL1        0.1149
      3 N           8.4597   77.9351   25.0191 N.ar    1  UNL1       -0.2281
      4 C           8.2233   77.5966   23.7234 C.ar    1  UNL1        0.1300
      5 C           8.7910   78.3623   22.6847 C.ar    1  UNL1        0.0398
      6 C           9.5480   79.4935   23.0226 C.ar    1  UNL1        0.0172
      7 N           7.4138   76.4497   23.4395 N.pl3   1  UNL1       -0.2934
      8 C           6.3211   76.5495   22.4688 C.3     1  UNL1        0.0923
      9 C           6.2859   75.2898   21.5978 C.3     1  UNL1        0.0252
     10 C           6.3324   73.9665   22.4196 C.3     1  UNL1        0.0472
     11 C           6.5009   74.2001   23.9399 C.3     1  UNL1        0.0252
     12 C           7.5841   75.2410   24.2523 C.3     1  UNL1        0.0923
     13 C           7.4270   73.0160   21.8875 C.3     1  UNL1        0.2054
     14 O           8.5504   73.7494   21.3955 O.3     1  UNL1       -0.4755
     15 C           9.8124   73.8243   22.0078 C.ar    1  UNL1        0.1388
     16 C          10.4804   72.6265   22.2822 C.ar    1  UNL1        0.0369
     17 C          11.7364   72.6378   22.8908 C.ar    1  UNL1        0.0033
     18 C          12.3410   73.8497   23.2301 C.ar    1  UNL1        0.0066
     19 C          11.6927   75.0675   22.9599 C.ar    1  UNL1        0.0785
     20 C          10.4273   75.0475   22.3449 C.ar    1  UNL1        0.0433
     21 C          12.3306   76.3548   23.3160 C.2     1  UNL1        0.3381
     22 O          13.3389   76.7655   22.6799 O.2     1  UNL1       -0.2451
     23 O          11.8232   77.1258   24.3589 O.3     1  UNL1       -0.4771
     24 H          12.2528   78.0080   24.6107 H       1  UNL1        0.2954
     25 C          11.9843   81.0350   24.5318 C.2     1  UNL1        0.2839
     26 O          12.6370   79.9745   24.3364 O.2     1  UNL1       -0.2665
     27 N          10.5566   80.9875   24.6869 N.am    1  UNL1       -0.2767
     28 H          10.0854   81.8027   25.1408 H       1  UNL1        0.1553
     29 C          12.9614   82.4695   27.2264 C.3     1  UNL1        0.0345
     30 C          13.1197   82.9546   25.8169 C.ar    1  UNL1        0.0202
     31 C          12.6907   82.3253   24.6428 C.ar    1  UNL1        0.1946
     32 O          13.0129   83.0597   23.5927 O.2     1  UNL1       -0.4492
     33 C          13.6281   84.1331   24.0252 C.ar    1  UNL1        0.1452
     34 C          14.1410   85.1766   23.2628 C.ar    1  UNL1        0.0375
     35 C          14.7696   86.2387   23.9356 C.ar    1  UNL1        0.0031
     36 C          14.8761   86.2424   25.3526 C.ar    1  UNL1        0.0002
     37 C          14.3399   85.1603   26.0915 C.ar    1  UNL1        0.0028
     38 C          13.7223   84.1230   25.3911 C.ar    1  UNL1        0.0337
     39 C          15.5427   87.3698   26.0523 C.ar    1  UNL1        0.0000
     40 C          16.5429   88.1217   25.4071 C.ar    1  UNL1        0.0000
     41 C          17.1695   89.1822   26.0689 C.ar    1  UNL1        0.0000
     42 C          16.8059   89.5044   27.3782 C.ar    1  UNL1        0.0000
     43 C          15.8150   88.7664   28.0291 C.ar    1  UNL1        0.0000
     44 C          15.1855   87.7043   27.3726 C.ar    1  UNL1        0.0000
     45 C           8.5720   78.0181   21.2358 C.3     1  UNL1        0.1664
     46 O           9.7965   77.6807   20.6477 O.3     1  UNL1       -0.3771
     47 H           9.6024   77.5010   19.6912 H       1  UNL1        0.2109
@<TRIPOS>BOND
     1    29    30    1
     2    30    31   ar
     3    31    25    1
     4    25    26    2
     5    25    27   am
     6    27     1    1
     7     1     2   ar
     8     2     3   ar
     9     3     4   ar
    10     4     7    1
    11     7     8    1
    12     8     9    1
    13     9    10    1
    14    10    13    1
    15    13    14    1
    16    14    15    1
    17    15    16   ar
    18    16    17   ar
    19    17    18   ar
    20    18    19   ar
    21    19    21    1
    22    21    22    2
    23    21    23    1
    24    19    20   ar
    25    10    11    1
    26    11    12    1
    27     4     5   ar
    28     5    45    1
    29    45    46    1
    30     5     6   ar
    31    31    32   ar
    32    32    33   ar
    33    33    34   ar
    34    34    35   ar
    35    35    36   ar
    36    36    39    1
    37    39    40   ar
    38    40    41   ar
    39    41    42   ar
    40    42    43   ar
    41    43    44   ar
    42    36    37   ar
    43    37    38   ar
    44    38    30   ar
    45     6     1   ar
    46    38    33   ar
    47    12     7    1
    48    44    39   ar
    49    20    15   ar
    50    27    28    1
    51    23    24    1
    52    46    47    1
@<TRIPOS>MOLECULE
*****
 47 52 0 0 0
SMALL
GASTEIGER

@<TRIPOS>ATOM
      1 C          13.2333   82.7497   25.3158 C.ar    1  UNL1        0.0699
      2 C          13.3410   83.4412   24.0997 C.ar    1  UNL1        0.1149
      3 N          13.7581   84.7336   24.0831 N.ar    1  UNL1       -0.2281
      4 C          14.0961   85.4008   25.2189 C.ar    1  UNL1        0.1300
      5 C          14.0533   84.7354   26.4611 C.ar    1  UNL1        0.0398
      6 C          13.6085   83.4058   26.4943 C.ar    1  UNL1        0.0172
      7 N          14.5104   86.7686   25.1262 N.pl3   1  UNL1       -0.2934
      8 C          15.8209   87.1711   25.6429 C.3     1  UNL1        0.0923
      9 C          16.4744   88.1657   24.6782 C.3     1  UNL1        0.0252
     10 C          15.5319   89.3342   24.2602 C.3     1  UNL1        0.0472
     11 C          14.1006   89.1954   24.8314 C.3     1  UNL1        0.0252
     12 C          13.5451   87.7742   24.6707 C.3     1  UNL1        0.0923
     13 C          15.4947   89.5011   22.7255 C.3     1  UNL1        0.2054
     14 O          14.1802   89.2704   22.2147 O.3     1  UNL1       -0.4755
     15 C          13.8030   88.2139   21.3693 C.ar    1  UNL1        0.1388
     16 C          12.6101   88.3430   20.6505 C.ar    1  UNL1        0.0369
     17 C          12.1829   87.3256   19.7959 C.ar    1  UNL1        0.0033
     18 C          12.9466   86.1663   19.6481 C.ar    1  UNL1        0.0066
     19 C          14.1522   86.0145   20.3552 C.ar    1  UNL1        0.0785
     20 C          14.5765   87.0455   21.2137 C.ar    1  UNL1        0.0433
     21 C          14.9663   84.7881   20.2002 C.2     1  UNL1        0.3381
     22 O          15.5879   84.5656   19.1260 O.2     1  UNL1       -0.2451
     23 O          15.0533   83.8663   21.2405 O.3     1  UNL1       -0.4771
     24 H          15.6074   83.0237   21.1443 H       1  UNL1        0.2954
     25 C          11.4488   80.9469   25.2147 C.2     1  UNL1        0.2839
     26 O          10.5090   81.7850   25.2721 O.2     1  UNL1       -0.2665
     27 N          12.8113   81.3761   25.3700 N.am    1  UNL1       -0.2767
     28 H          13.5264   80.6564   25.6215 H       1  UNL1        0.1553
     29 C          10.0945   79.5813   22.6507 C.3     1  UNL1        0.0345
     30 C          10.5584   78.9143   23.9105 C.ar    1  UNL1        0.0202
     31 C          11.1487   79.5146   25.0284 C.ar    1  UNL1        0.1946
     32 O          11.4219   78.5995   25.9414 O.2     1  UNL1       -0.4492
     33 C          11.0387   77.4367   25.4736 C.ar    1  UNL1        0.1452
     34 C          11.1378   76.2002   26.1018 C.ar    1  UNL1        0.0375
     35 C          10.6626   75.0704   25.4138 C.ar    1  UNL1        0.0031
     36 C          10.0985   75.1919   24.1152 C.ar    1  UNL1        0.0002
     37 C          10.0159   76.4698   23.5115 C.ar    1  UNL1        0.0028
     38 C          10.4970   77.5697   24.2233 C.ar    1  UNL1        0.0337
     39 C           9.6000   73.9910   23.3980 C.ar    1  UNL1        0.0000
     40 C           8.2283   73.8425   23.1179 C.ar    1  UNL1        0.0000
     41 C           7.7618   72.7101   22.4431 C.ar    1  UNL1        0.0000
     42 C           8.6561   71.7158   22.0404 C.ar    1  UNL1        0.0000
     43 C          10.0192   71.8516   22.3120 C.ar    1  UNL1        0.0000
     44 C          10.4913   72.9814   22.9872 C.ar    1  UNL1        0.0000
     45 C          14.4336   85.4260   27.7433 C.3     1  UNL1        0.1664
     46 O          13.4103   86.3032   28.1204 O.3     1  UNL1       -0.3771
     47 H          13.7262   86.7570   28.9445 H       1  UNL1        0.2109
@<TRIPOS>BOND
     1    29    30    1
     2    30    31   ar
     3    31    25    1
     4    25    26    2
     5    25    27   am
     6    27     1    1
     7     1     2   ar
     8     2     3   ar
     9     3     4   ar
    10     4     7    1
    11     7     8    1
    12     8     9    1
    13     9    10    1
    14    10    13    1
    15    13    14    1
    16    14    15    1
    17    15    16   ar
    18    16    17   ar
    19    17    18   ar
    20    18    19   ar
    21    19    21    1
    22    21    22    2
    23    21    23    1
    24    19    20   ar
    25    10    11    1
    26    11    12    1
    27     4     5   ar
    28     5    45    1
    29    45    46    1
    30     5     6   ar
    31    31    32   ar
    32    32    33   ar
    33    33    34   ar
    34    34    35   ar
    35    35    36   ar
    36    36    39    1
    37    39    40   ar
    38    40    41   ar
    39    41    42   ar
    40    42    43   ar
    41    43    44   ar
    42    36    37   ar
    43    37    38   ar
    44    38    30   ar
    45     6     1   ar
    46    38    33   ar
    47    12     7    1
    48    44    39   ar
    49    20    15   ar
    50    27    28    1
    51    23    24    1
    52    46    47    1
@<TRIPOS>MOLECULE
*****
 47 52 0 0 0
SMALL
GASTEIGER

@<TRIPOS>ATOM
      1 C          13.5276   83.1166   24.6203 C.ar    1  UNL1        0.0699
      2 C          13.5569   84.1374   25.5825 C.ar    1  UNL1        0.1149
      3 N          14.0969   85.3462   25.2800 N.ar    1  UNL1       -0.2281
      4 C          14.6124   85.6231   24.0524 C.ar    1  UNL1        0.1300
      5 C          14.5616   84.6482   23.0353 C.ar    1  UNL1        0.0398
      6 C          14.0217   83.3901   23.3392 C.ar    1  UNL1        0.0172
      7 N          15.1818   86.9149   23.8112 N.pl3   1  UNL1       -0.2934
      8 C          16.6291   87.1087   23.9302 C.3     1  UNL1        0.0923
      9 C          17.1257   88.0097   22.7951 C.3     1  UNL1        0.0252
     10 C          16.2876   89.3126   22.6260 C.3     1  UNL1        0.0472
     11 C          15.0695   89.3802   23.5778 C.3     1  UNL1        0.0252
     12 C          14.2873   88.0607   23.6168 C.3     1  UNL1        0.0923
     13 C          15.8469   89.5076   21.1589 C.3     1  UNL1        0.2054
     14 O          14.4449   89.2760   21.0077 O.3     1  UNL1       -0.4755
     15 C          13.8613   88.1921   20.3314 C.ar    1  UNL1        0.1388
     16 C          12.4974   87.9533   20.5288 C.ar    1  UNL1        0.0369
     17 C          11.8626   86.8901   19.8849 C.ar    1  UNL1        0.0033
     18 C          12.5855   86.0535   19.0324 C.ar    1  UNL1        0.0066
     19 C          13.9562   86.2756   18.8129 C.ar    1  UNL1        0.0785
     20 C          14.5884   87.3505   19.4648 C.ar    1  UNL1        0.0433
     21 C          14.7263   85.3926   17.9083 C.2     1  UNL1        0.3381
     22 O          14.4599   85.3515   16.6765 O.2     1  UNL1       -0.2451
     23 O          15.7535   84.5970   18.4096 O.3     1  UNL1       -0.4771
     24 H          16.2862   83.9890   17.7989 H       1  UNL1        0.2954
     25 C          11.5492   81.6134   25.1409 C.2     1  UNL1        0.2839
     26 O          10.7857   82.5903   25.3682 O.2     1  UNL1       -0.2665
     27 N          12.9490   81.8302   24.8997 N.am    1  UNL1       -0.2767
     28 H          13.5981   81.0194   25.0177 H       1  UNL1        0.1553
     29 C           9.4796   80.3209   23.0626 C.3     1  UNL1        0.0345
     30 C          10.1109   79.6706   24.2566 C.ar    1  UNL1        0.0202
     31 C          11.0137   80.2390   25.1623 C.ar    1  UNL1        0.1946
     32 O          11.3488   79.3526   26.0830 O.2     1  UNL1       -0.4492
     33 C          10.7093   78.2388   25.8216 C.ar    1  UNL1        0.1452
     34 C          10.7674   77.0456   26.5330 C.ar    1  UNL1        0.0375
     35 C           9.9951   75.9648   26.0733 C.ar    1  UNL1        0.0031
     36 C           9.1806   76.0915   24.9158 C.ar    1  UNL1        0.0002
     37 C           9.1498   77.3244   24.2207 C.ar    1  UNL1        0.0028
     38 C           9.9288   78.3763   24.7052 C.ar    1  UNL1        0.0337
     39 C           8.3693   74.9426   24.4394 C.ar    1  UNL1        0.0000
     40 C           8.7149   74.2644   23.2551 C.ar    1  UNL1        0.0000
     41 C           7.9485   73.1834   22.8086 C.ar    1  UNL1        0.0000
     42 C           6.8318   72.7673   23.5369 C.ar    1  UNL1        0.0000
     43 C           6.4787   73.4317   24.7134 C.ar    1  UNL1        0.0000
     44 C           7.2409   74.5138   25.1643 C.ar    1  UNL1        0.0000
     45 C          15.1038   84.9129   21.6563 C.3     1  UNL1        0.1664
     46 O          15.4527   83.6992   21.0529 O.3     1  UNL1       -0.3771
     47 H          15.8370   83.9320   20.1680 H       1  UNL1        0.2109
@<TRIPOS>BOND
     1    29    30    1
     2    30    31   ar
     3    31    25    1
     4    25    26    2
     5    25    27   am
     6    27     1    1
     7     1     2   ar
     8     2     3   ar
     9     3     4   ar
    10     4     7    1
    11     7     8    1
    12     8     9    1
    13     9    10    1
    14    10    13    1
    15    13    14    1
    16    14    15    1
    17    15    16   ar
    18    16    17   ar
    19    17    18   ar
    20    18    19   ar
    21    19    21    1
    22    21    22    2
    23    21    23    1
    24    19    20   ar
    25    10    11    1
    26    11    12    1
    27     4     5   ar
    28     5    45    1
    29    45    46    1
    30     5     6   ar
    31    31    32   ar
    32    32    33   ar
    33    33    34   ar
    34    34    35   ar
    35    35    36   ar
    36    36    39    1
    37    39    40   ar
    38    40    41   ar
    39    41    42   ar
    40    42    43   ar
    41    43    44   ar
    42    36    37   ar
    43    37    38   ar
    44    38    30   ar
    45     6     1   ar
    46    38    33   ar
    47    12     7    1
    48    44    39   ar
    49    20    15   ar
    50    27    28    1
    51    23    24    1
    52    46    47    1
@<TRIPOS>MOLECULE
*****
 47 52 0 0 0
SMALL
GASTEIGER

@<TRIPOS>ATOM
      1 C          10.0361   79.8536   23.6580 C.ar    1  UNL1        0.0699
      2 C           9.8880   79.5899   22.2879 C.ar    1  UNL1        0.1149
      3 N           9.2465   78.4670   21.8736 N.ar    1  UNL1       -0.2281
      4 C           8.7171   77.5701   22.7481 C.ar    1  UNL1        0.1300
      5 C           8.7949   77.8140   24.1344 C.ar    1  UNL1        0.0398
      6 C           9.4693   78.9615   24.5763 C.ar    1  UNL1        0.0172
      7 N           8.0698   76.3987   22.2383 N.pl3   1  UNL1       -0.2934
      8 C           8.6055   75.0722   22.5546 C.3     1  UNL1        0.0923
      9 C           7.4543   74.1079   22.8573 C.3     1  UNL1        0.0252
     10 C           6.3245   74.1350   21.7844 C.3     1  UNL1        0.0472
     11 C           6.5545   75.1997   20.6855 C.3     1  UNL1        0.0252
     12 C           6.9818   76.5538   21.2672 C.3     1  UNL1        0.0923
     13 C           4.9369   74.3144   22.4379 C.3     1  UNL1        0.2054
     14 O           4.9941   75.2473   23.5189 O.3     1  UNL1       -0.4755
     15 C           4.0370   76.2364   23.7996 C.ar    1  UNL1        0.1388
     16 C           3.6971   76.4590   25.1380 C.ar    1  UNL1        0.0369
     17 C           2.7514   77.4275   25.4783 C.ar    1  UNL1        0.0033
     18 C           2.1357   78.1876   24.4822 C.ar    1  UNL1        0.0066
     19 C           2.4639   77.9869   23.1300 C.ar    1  UNL1        0.0785
     20 C           3.4192   77.0096   22.7954 C.ar    1  UNL1        0.0433
     21 C           1.8152   78.7918   22.0707 C.2     1  UNL1        0.3381
     22 O           0.5709   78.9953   22.0947 O.2     1  UNL1       -0.2451
     23 O           2.5735   79.3325   21.0353 O.3     1  UNL1       -0.4771
     24 H           2.1390   79.8844   20.3052 H       1  UNL1        0.2954
     25 C          12.0802   81.0949   24.5096 C.2     1  UNL1        0.2839
     26 O          12.7338   80.0307   24.6802 O.2     1  UNL1       -0.2665
     27 N          10.6946   81.0403   24.1331 N.am    1  UNL1       -0.2767
     28 H          10.1091   81.8912   24.2937 H       1  UNL1        0.1553
     29 C          12.9692   82.3402   27.3259 C.3     1  UNL1        0.0345
     30 C          13.1173   82.9483   25.9637 C.ar    1  UNL1        0.0202
     31 C          12.7268   82.4014   24.7362 C.ar    1  UNL1        0.1946
     32 O          13.0243   83.2347   23.7550 O.2     1  UNL1       -0.4492
     33 C          13.5869   84.2942   24.2828 C.ar    1  UNL1        0.1452
     34 C          14.0586   85.4196   23.6163 C.ar    1  UNL1        0.0375
     35 C          14.6332   86.4482   24.3828 C.ar    1  UNL1        0.0031
     36 C          14.7275   86.3379   25.7964 C.ar    1  UNL1        0.0002
     37 C          14.2345   85.1750   26.4359 C.ar    1  UNL1        0.0028
     38 C          13.6701   84.1738   25.6441 C.ar    1  UNL1        0.0337
     39 C          15.3368   87.4310   26.5957 C.ar    1  UNL1        0.0000
     40 C          16.3128   88.2732   26.0297 C.ar    1  UNL1        0.0000
     41 C          16.8854   89.3012   26.7851 C.ar    1  UNL1        0.0000
     42 C          16.4915   89.5008   28.1100 C.ar    1  UNL1        0.0000
     43 C          15.5241   88.6723   28.6829 C.ar    1  UNL1        0.0000
     44 C          14.9487   87.6421   27.9326 C.ar    1  UNL1        0.0000
     45 C           8.2100   76.8598   25.1409 C.3     1  UNL1        0.1664
     46 O           6.8157   76.8522   25.0190 O.3     1  UNL1       -0.3771
     47 H           6.4808   76.2407   25.7253 H       1  UNL1        0.2109
@<TRIPOS>BOND
     1    29    30    1
     2    30    31   ar
     3    31    25    1
     4    25    26    2
     5    25    27   am
     6    27     1    1
     7     1     2   ar
     8     2     3   ar
     9     3     4   ar
    10     4     7    1
    11     7     8    1
    12     8     9    1
    13     9    10    1
    14    10    13    1
    15    13    14    1
    16    14    15    1
    17    15    16   ar
    18    16    17   ar
    19    17    18   ar
    20    18    19   ar
    21    19    21    1
    22    21    22    2
    23    21    23    1
    24    19    20   ar
    25    10    11    1
    26    11    12    1
    27     4     5   ar
    28     5    45    1
    29    45    46    1
    30     5     6   ar
    31    31    32   ar
    32    32    33   ar
    33    33    34   ar
    34    34    35   ar
    35    35    36   ar
    36    36    39    1
    37    39    40   ar
    38    40    41   ar
    39    41    42   ar
    40    42    43   ar
    41    43    44   ar
    42    36    37   ar
    43    37    38   ar
    44    38    30   ar
    45     6     1   ar
    46    38    33   ar
    47    12     7    1
    48    44    39   ar
    49    20    15   ar
    50    27    28    1
    51    23    24    1
    52    46    47    1
@<TRIPOS>MOLECULE
*****
 47 52 0 0 0
SMALL
GASTEIGER

@<TRIPOS>ATOM
      1 C          10.4115   80.9076   25.1807 C.ar    1  UNL1        0.0699
      2 C           9.9589   80.1301   24.1040 C.ar    1  UNL1        0.1149
      3 N           9.2281   79.0081   24.3309 N.ar    1  UNL1       -0.2281
      4 C           8.8965   78.6004   25.5852 C.ar    1  UNL1        0.1300
      5 C           9.2840   79.3738   26.6984 C.ar    1  UNL1        0.0398
      6 C          10.0532   80.5257   26.4792 C.ar    1  UNL1        0.0172
      7 N           8.1382   77.3965   25.7487 N.pl3   1  UNL1       -0.2934
      8 C           6.6749   77.4550   25.7888 C.3     1  UNL1        0.0923
      9 C           6.0881   76.2870   24.9899 C.3     1  UNL1        0.0252
     10 C           6.7132   74.9079   25.3584 C.3     1  UNL1        0.0472
     11 C           7.8641   75.0169   26.3869 C.3     1  UNL1        0.0252
     12 C           8.8451   76.1462   26.0451 C.3     1  UNL1        0.0923
     13 C           7.1776   74.1491   24.0962 C.3     1  UNL1        0.2054
     14 O           7.6370   75.0551   23.0912 O.3     1  UNL1       -0.4755
     15 C           8.9347   75.0954   22.5551 C.ar    1  UNL1        0.1388
     16 C           9.4137   76.3239   22.0885 C.ar    1  UNL1        0.0369
     17 C          10.6947   76.4254   21.5439 C.ar    1  UNL1        0.0033
     18 C          11.5140   75.2979   21.4621 C.ar    1  UNL1        0.0066
     19 C          11.0580   74.0528   21.9291 C.ar    1  UNL1        0.0785
     20 C           9.7658   73.9591   22.4780 C.ar    1  UNL1        0.0433
     21 C          11.9237   72.8550   21.8462 C.2     1  UNL1        0.3381
     22 O          11.8505   71.9521   22.7234 O.2     1  UNL1       -0.2451
     23 O          12.8292   72.7136   20.7977 O.3     1  UNL1       -0.4771
     24 H          13.4264   71.8979   20.7322 H       1  UNL1        0.2954
     25 C          12.5821   82.1319   24.6971 C.2     1  UNL1        0.2839
     26 O          13.2783   81.0944   24.8634 O.2     1  UNL1       -0.2665
     27 N          11.1731   82.1103   24.9778 N.am    1  UNL1       -0.2767
     28 H          10.6889   83.0245   25.1272 H       1  UNL1        0.1553
     29 C          15.5182   82.4593   23.4539 C.3     1  UNL1        0.0345
     30 C          14.5022   83.5319   23.7080 C.ar    1  UNL1        0.0202
     31 C          13.2213   83.3848   24.2520 C.ar    1  UNL1        0.1946
     32 O          12.6212   84.5599   24.3196 O.2     1  UNL1       -0.4492
     33 C          13.4471   85.4618   23.8482 C.ar    1  UNL1        0.1452
     34 C          13.2259   86.8295   23.7313 C.ar    1  UNL1        0.0375
     35 C          14.2548   87.6209   23.1919 C.ar    1  UNL1        0.0031
     36 C          15.4830   87.0371   22.7796 C.ar    1  UNL1        0.0002
     37 C          15.6677   85.6401   22.9164 C.ar    1  UNL1        0.0028
     38 C          14.6253   84.8851   23.4560 C.ar    1  UNL1        0.0337
     39 C          16.5627   87.8832   22.2109 C.ar    1  UNL1        0.0000
     40 C          16.4181   88.4692   20.9390 C.ar    1  UNL1        0.0000
     41 C          17.4369   89.2648   20.4058 C.ar    1  UNL1        0.0000
     42 C          18.6083   89.4849   21.1337 C.ar    1  UNL1        0.0000
     43 C          18.7638   88.9095   22.3967 C.ar    1  UNL1        0.0000
     44 C          17.7487   88.1123   22.9346 C.ar    1  UNL1        0.0000
     45 C           8.9269   78.9729   28.1047 C.3     1  UNL1        0.1664
     46 O           7.7552   79.6325   28.4930 O.3     1  UNL1       -0.3771
     47 H           7.5869   79.3643   29.4336 H       1  UNL1        0.2109
@<TRIPOS>BOND
     1    29    30    1
     2    30    31   ar
     3    31    25    1
     4    25    26    2
     5    25    27   am
     6    27     1    1
     7     1     2   ar
     8     2     3   ar
     9     3     4   ar
    10     4     7    1
    11     7     8    1
    12     8     9    1
    13     9    10    1
    14    10    13    1
    15    13    14    1
    16    14    15    1
    17    15    16   ar
    18    16    17   ar
    19    17    18   ar
    20    18    19   ar
    21    19    21    1
    22    21    22    2
    23    21    23    1
    24    19    20   ar
    25    10    11    1
    26    11    12    1
    27     4     5   ar
    28     5    45    1
    29    45    46    1
    30     5     6   ar
    31    31    32   ar
    32    32    33   ar
    33    33    34   ar
    34    34    35   ar
    35    35    36   ar
    36    36    39    1
    37    39    40   ar
    38    40    41   ar
    39    41    42   ar
    40    42    43   ar
    41    43    44   ar
    42    36    37   ar
    43    37    38   ar
    44    38    30   ar
    45     6     1   ar
    46    38    33   ar
    47    12     7    1
    48    44    39   ar
    49    20    15   ar
    50    27    28    1
    51    23    24    1
    52    46    47    1
@<TRIPOS>MOLECULE
*****
 47 52 0 0 0
SMALL
GASTEIGER

@<TRIPOS>ATOM
      1 C           8.2080   78.1688   22.4908 C.ar    1  UNL1        0.0699
      2 C           7.8995   78.6372   21.2046 C.ar    1  UNL1        0.1149
      3 N           7.0125   77.9644   20.4269 N.ar    1  UNL1       -0.2281
      4 C           6.3848   76.8359   20.8533 C.ar    1  UNL1        0.1300
      5 C           6.6220   76.3522   22.1561 C.ar    1  UNL1        0.0398
      6 C           7.5483   77.0280   22.9637 C.ar    1  UNL1        0.0172
      7 N           5.4746   76.1693   19.9711 N.pl3   1  UNL1       -0.2934
      8 C           5.5562   74.7167   19.7991 C.3     1  UNL1        0.0923
      9 C           4.1456   74.1207   19.7546 C.3     1  UNL1        0.0252
     10 C           3.1917   74.8590   18.7679 C.3     1  UNL1        0.0472
     11 C           3.8398   76.1000   18.1090 C.3     1  UNL1        0.0252
     12 C           4.5880   76.9740   19.1242 C.3     1  UNL1        0.0923
     13 C           1.8606   75.2363   19.4538 C.3     1  UNL1        0.2054
     14 O           1.9952   75.2305   20.8764 O.3     1  UNL1       -0.4755
     15 C           2.1511   76.3651   21.6897 C.ar    1  UNL1        0.1388
     16 C           1.6795   77.5894   21.2049 C.ar    1  UNL1        0.0369
     17 C           1.8078   78.7514   21.9673 C.ar    1  UNL1        0.0033
     18 C           2.4080   78.7016   23.2269 C.ar    1  UNL1        0.0066
     19 C           2.8852   77.4826   23.7391 C.ar    1  UNL1        0.0785
     20 C           2.7508   76.3154   22.9648 C.ar    1  UNL1        0.0433
     21 C           3.5204   77.4246   25.0748 C.2     1  UNL1        0.3381
     22 O           2.8421   77.6450   26.1147 O.2     1  UNL1       -0.2451
     23 O           4.8752   77.1263   25.1963 O.3     1  UNL1       -0.4771
     24 H           5.3194   77.0846   26.1058 H       1  UNL1        0.2954
     25 C          10.5454   78.6209   23.3721 C.2     1  UNL1        0.2839
     26 O          11.0230   77.5974   22.8125 O.2     1  UNL1       -0.2665
     27 N           9.1295   78.8642   23.3482 N.am    1  UNL1       -0.2767
     28 H           8.7335   79.5249   24.0548 H       1  UNL1        0.1553
     29 C           9.7387   81.4316   24.6845 C.3     1  UNL1        0.0345
     30 C          11.0884   80.7796   24.6646 C.ar    1  UNL1        0.0202
     31 C          11.4366   79.5522   24.0895 C.ar    1  UNL1        0.1946
     32 O          12.7224   79.3133   24.2780 O.2     1  UNL1       -0.4492
     33 C          13.2261   80.3227   24.9451 C.ar    1  UNL1        0.1452
     34 C          14.5431   80.4870   25.3598 C.ar    1  UNL1        0.0375
     35 C          14.8705   81.6547   26.0706 C.ar    1  UNL1        0.0031
     36 C          13.8825   82.6357   26.3550 C.ar    1  UNL1        0.0002
     37 C          12.5531   82.4296   25.9142 C.ar    1  UNL1        0.0028
     38 C          12.2636   81.2593   25.2110 C.ar    1  UNL1        0.0337
     39 C          14.2403   83.8652   27.1070 C.ar    1  UNL1        0.0000
     40 C          14.6244   83.7909   28.4594 C.ar    1  UNL1        0.0000
     41 C          14.9599   84.9505   29.1651 C.ar    1  UNL1        0.0000
     42 C          14.9168   86.1942   28.5313 C.ar    1  UNL1        0.0000
     43 C          14.5376   86.2812   27.1900 C.ar    1  UNL1        0.0000
     44 C          14.2002   85.1250   26.4795 C.ar    1  UNL1        0.0000
     45 C           5.9391   75.1171   22.6794 C.3     1  UNL1        0.1664
     46 O           6.0428   75.0840   24.0747 O.3     1  UNL1       -0.3771
     47 H           5.6130   74.2372   24.3629 H       1  UNL1        0.2109
@<TRIPOS>BOND
     1    29    30    1
     2    30    31   ar
     3    31    25    1
     4    25    26    2
     5    25    27   am
     6    27     1    1
     7     1     2   ar
     8     2     3   ar
     9     3     4   ar
    10     4     7    1
    11     7     8    1
    12     8     9    1
    13     9    10    1
    14    10    13    1
    15    13    14    1
    16    14    15    1
    17    15    16   ar
    18    16    17   ar
    19    17    18   ar
    20    18    19   ar
    21    19    21    1
    22    21    22    2
    23    21    23    1
    24    19    20   ar
    25    10    11    1
    26    11    12    1
    27     4     5   ar
    28     5    45    1
    29    45    46    1
    30     5     6   ar
    31    31    32   ar
    32    32    33   ar
    33    33    34   ar
    34    34    35   ar
    35    35    36   ar
    36    36    39    1
    37    39    40   ar
    38    40    41   ar
    39    41    42   ar
    40    42    43   ar
    41    43    44   ar
    42    36    37   ar
    43    37    38   ar
    44    38    30   ar
    45     6     1   ar
    46    38    33   ar
    47    12     7    1
    48    44    39   ar
    49    20    15   ar
    50    27    28    1
    51    23    24    1
    52    46    47    1
@<TRIPOS>MOLECULE
*****
 47 52 0 0 0
SMALL
GASTEIGER

@<TRIPOS>ATOM
      1 C          13.1898   83.5290   24.3504 C.ar    1  UNL1        0.0699
      2 C          13.6514   83.8797   23.0727 C.ar    1  UNL1        0.1149
      3 N          14.3641   85.0217   22.8933 N.ar    1  UNL1       -0.2281
      4 C          14.6687   85.8554   23.9236 C.ar    1  UNL1        0.1300
      5 C          14.2715   85.5227   25.2347 C.ar    1  UNL1        0.0398
      6 C          13.5206   84.3548   25.4316 C.ar    1  UNL1        0.0172
      7 N          15.4091   87.0519   23.6560 N.pl3   1  UNL1       -0.2934
      8 C          16.8717   87.0394   23.7390 C.3     1  UNL1        0.0923
      9 C          17.4626   87.8534   22.5836 C.3     1  UNL1        0.0252
     10 C          16.8134   89.2607   22.4212 C.3     1  UNL1        0.0472
     11 C          15.6410   89.5066   23.4007 C.3     1  UNL1        0.0252
     12 C          14.6812   88.3115   23.4713 C.3     1  UNL1        0.0923
     13 C          16.3686   89.5066   20.9630 C.3     1  UNL1        0.2054
     14 O          14.9500   89.3957   20.8322 O.3     1  UNL1       -0.4755
     15 C          14.2577   88.2824   20.3277 C.ar    1  UNL1        0.1388
     16 C          12.8828   88.4105   20.1055 C.ar    1  UNL1        0.0369
     17 C          12.1416   87.3382   19.6069 C.ar    1  UNL1        0.0033
     18 C          12.7688   86.1239   19.3216 C.ar    1  UNL1        0.0066
     19 C          14.1506   85.9713   19.5310 C.ar    1  UNL1        0.0785
     20 C          14.8908   87.0577   20.0326 C.ar    1  UNL1        0.0433
     21 C          14.8202   84.6865   19.2281 C.2     1  UNL1        0.3381
     22 O          14.9548   84.3021   18.0347 O.2     1  UNL1       -0.2451
     23 O          15.3084   83.8882   20.2596 O.3     1  UNL1       -0.4771
     24 H          15.7679   83.0070   20.0629 H       1  UNL1        0.2954
     25 C          13.0510   81.0382   24.8208 C.2     1  UNL1        0.2839
     26 O          14.2779   80.8621   24.5916 O.2     1  UNL1       -0.2665
     27 N          12.4468   82.3195   24.5806 N.am    1  UNL1       -0.2767
     28 H          11.4069   82.3607   24.4832 H       1  UNL1        0.1553
     29 C          10.0021   80.4287   24.0424 C.3     1  UNL1        0.0345
     30 C          10.8911   79.6452   24.9606 C.ar    1  UNL1        0.0202
     31 C          12.2219   79.9153   25.2985 C.ar    1  UNL1        0.1946
     32 O          12.6710   78.9971   26.1357 O.2     1  UNL1       -0.4492
     33 C          11.6999   78.1457   26.3587 C.ar    1  UNL1        0.1452
     34 C          11.7344   77.0216   27.1763 C.ar    1  UNL1        0.0375
     35 C          10.5709   76.2386   27.2713 C.ar    1  UNL1        0.0031
     36 C           9.3964   76.5884   26.5518 C.ar    1  UNL1        0.0002
     37 C           9.4035   77.7416   25.7306 C.ar    1  UNL1        0.0028
     38 C          10.5757   78.4959   25.6601 C.ar    1  UNL1        0.0337
     39 C           8.1733   75.7533   26.6599 C.ar    1  UNL1        0.0000
     40 C           7.9807   74.9058   27.7675 C.ar    1  UNL1        0.0000
     41 C           6.8283   74.1200   27.8660 C.ar    1  UNL1        0.0000
     42 C           5.8571   74.1709   26.8638 C.ar    1  UNL1        0.0000
     43 C           6.0363   75.0077   25.7602 C.ar    1  UNL1        0.0000
     44 C           7.1871   75.7952   25.6558 C.ar    1  UNL1        0.0000
     45 C          14.5991   86.4047   26.4097 C.3     1  UNL1        0.1664
     46 O          13.6497   86.2067   27.4188 O.3     1  UNL1       -0.3771
     47 H          13.8887   86.8350   28.1489 H       1  UNL1        0.2109
@<TRIPOS>BOND
     1    29    30    1
     2    30    31   ar
     3    31    25    1
     4    25    26    2
     5    25    27   am
     6    27     1    1
     7     1     2   ar
     8     2     3   ar
     9     3     4   ar
    10     4     7    1
    11     7     8    1
    12     8     9    1
    13     9    10    1
    14    10    13    1
    15    13    14    1
    16    14    15    1
    17    15    16   ar
    18    16    17   ar
    19    17    18   ar
    20    18    19   ar
    21    19    21    1
    22    21    22    2
    23    21    23    1
    24    19    20   ar
    25    10    11    1
    26    11    12    1
    27     4     5   ar
    28     5    45    1
    29    45    46    1
    30     5     6   ar
    31    31    32   ar
    32    32    33   ar
    33    33    34   ar
    34    34    35   ar
    35    35    36   ar
    36    36    39    1
    37    39    40   ar
    38    40    41   ar
    39    41    42   ar
    40    42    43   ar
    41    43    44   ar
    42    36    37   ar
    43    37    38   ar
    44    38    30   ar
    45     6     1   ar
    46    38    33   ar
    47    12     7    1
    48    44    39   ar
    49    20    15   ar
    50    27    28    1
    51    23    24    1
    52    46    47    1
@<TRIPOS>MOLECULE
*****
 47 52 0 0 0
SMALL
GASTEIGER

@<TRIPOS>ATOM
      1 C          10.4616   80.9291   24.6899 C.ar    1  UNL1        0.0699
      2 C          10.2182   80.3092   25.9249 C.ar    1  UNL1        0.1149
      3 N           9.5142   79.1492   25.9801 N.ar    1  UNL1       -0.2281
      4 C           9.0328   78.5396   24.8638 C.ar    1  UNL1        0.1300
      5 C           9.2933   79.0953   23.5947 C.ar    1  UNL1        0.0398
      6 C          10.0049   80.3018   23.5245 C.ar    1  UNL1        0.0172
      7 N           8.2833   77.3268   25.0006 N.pl3   1  UNL1       -0.2934
      8 C           8.8782   76.0511   24.5945 C.3     1  UNL1        0.0923
      9 C           8.5244   74.9663   25.6168 C.3     1  UNL1        0.0252
     10 C           7.0067   74.9158   25.9668 C.3     1  UNL1        0.0472
     11 C           6.1866   76.0345   25.2811 C.3     1  UNL1        0.0252
     12 C           6.8702   77.4043   25.3850 C.3     1  UNL1        0.0923
     13 C           6.7844   74.9329   27.4949 C.3     1  UNL1        0.2054
     14 O           7.8672   75.5811   28.1651 O.3     1  UNL1       -0.4755
     15 C           7.7451   76.5109   29.2109 C.ar    1  UNL1        0.1388
     16 C           6.6342   76.4070   30.0544 C.ar    1  UNL1        0.0369
     17 C           6.4583   77.3032   31.1097 C.ar    1  UNL1        0.0033
     18 C           7.3946   78.3139   31.3356 C.ar    1  UNL1        0.0066
     19 C           8.5225   78.4363   30.5055 C.ar    1  UNL1        0.0785
     20 C           8.6932   77.5279   29.4446 C.ar    1  UNL1        0.0433
     21 C           9.5189   79.5050   30.7423 C.2     1  UNL1        0.3381
     22 O          10.1565   80.0088   29.7781 O.2     1  UNL1       -0.2451
     23 O           9.7627   79.9647   32.0341 O.3     1  UNL1       -0.4771
     24 H          10.4429   80.6954   32.2067 H       1  UNL1        0.2954
     25 C          12.6514   82.2129   24.6507 C.2     1  UNL1        0.2839
     26 O          13.3154   81.2172   25.0462 O.2     1  UNL1       -0.2665
     27 N          11.2171   82.1487   24.5917 N.am    1  UNL1       -0.2767
     28 H          10.6870   83.0490   24.5606 H       1  UNL1        0.1553
     29 C          15.5445   82.4859   23.2986 C.3     1  UNL1        0.0345
     30 C          14.6068   83.5865   23.6943 C.ar    1  UNL1        0.0202
     31 C          13.3443   83.4629   24.2854 C.ar    1  UNL1        0.1946
     32 O          12.8193   84.6590   24.4841 O.2     1  UNL1       -0.4492
     33 C          13.6763   85.5519   24.0531 C.ar    1  UNL1        0.1452
     34 C          13.5326   86.9348   24.0664 C.ar    1  UNL1        0.0375
     35 C          14.5825   87.7126   23.5483 C.ar    1  UNL1        0.0031
     36 C          15.7543   87.1005   23.0272 C.ar    1  UNL1        0.0002
     37 C          15.8607   85.6888   23.0329 C.ar    1  UNL1        0.0028
     38 C          14.7996   84.9478   23.5552 C.ar    1  UNL1        0.0337
     39 C          16.8569   87.9326   22.4822 C.ar    1  UNL1        0.0000
     40 C          16.8073   88.4085   21.1581 C.ar    1  UNL1        0.0000
     41 C          17.8474   89.1912   20.6474 C.ar    1  UNL1        0.0000
     42 C          18.9458   89.5077   21.4498 C.ar    1  UNL1        0.0000
     43 C          19.0067   89.0418   22.7649 C.ar    1  UNL1        0.0000
     44 C          17.9699   88.2581   23.2807 C.ar    1  UNL1        0.0000
     45 C           8.7961   78.4490   22.3295 C.3     1  UNL1        0.1664
     46 O           9.8529   77.7781   21.7036 O.3     1  UNL1       -0.3771
     47 H           9.4824   77.4051   20.8618 H       1  UNL1        0.2109
@<TRIPOS>BOND
     1    29    30    1
     2    30    31   ar
     3    31    25    1
     4    25    26    2
     5    25    27   am
     6    27     1    1
     7     1     2   ar
     8     2     3   ar
     9     3     4   ar
    10     4     7    1
    11     7     8    1
    12     8     9    1
    13     9    10    1
    14    10    13    1
    15    13    14    1
    16    14    15    1
    17    15    16   ar
    18    16    17   ar
    19    17    18   ar
    20    18    19   ar
    21    19    21    1
    22    21    22    2
    23    21    23    1
    24    19    20   ar
    25    10    11    1
    26    11    12    1
    27     4     5   ar
    28     5    45    1
    29    45    46    1
    30     5     6   ar
    31    31    32   ar
    32    32    33   ar
    33    33    34   ar
    34    34    35   ar
    35    35    36   ar
    36    36    39    1
    37    39    40   ar
    38    40    41   ar
    39    41    42   ar
    40    42    43   ar
    41    43    44   ar
    42    36    37   ar
    43    37    38   ar
    44    38    30   ar
    45     6     1   ar
    46    38    33   ar
    47    12     7    1
    48    44    39   ar
    49    20    15   ar
    50    27    28    1
    51    23    24    1
    52    46    47    1
