@<TRIPOS>MOLECULE
*****
 87 94 0 0 0
SMALL
GASTEIGER

@<TRIPOS>ATOM
      1 C           9.7417   78.1445   28.2934 C.3     1  UNL1        0.0737
      2 C           9.8646   79.6048   28.7770 C.3     1  UNL1        0.0323
      3 C          10.5393   80.4501   27.7304 C.ar    1  UNL1       -0.0162
      4 C          11.3980   81.4797   28.1181 C.ar    1  UNL1       -0.0038
      5 C          12.0305   82.2825   27.1627 C.ar    1  UNL1        0.0085
      6 C          12.9126   83.2802   27.5891 C.ar    1  UNL1        0.0370
      7 C          13.5871   84.0896   26.6657 C.ar    1  UNL1        0.1402
      8 C          13.4140   83.8599   25.2869 C.ar    1  UNL1        0.0459
      9 C          14.1968   84.6775   24.2865 C.3     1  UNL1        0.0374
     10 C          12.5666   82.8119   24.8450 C.ar    1  UNL1        0.1354
     11 O          12.5387   82.4588   23.4920 O.3     1  UNL1       -0.5056
     12 C          11.7912   82.0763   25.7819 C.ar    1  UNL1        0.0673
     13 C          10.8164   81.1075   25.3974 C.ar    1  UNL1        0.1389
     14 O          10.3809   80.9818   24.0747 O.3     1  UNL1       -0.5053
     15 C          10.2296   80.2663   26.3741 C.ar    1  UNL1        0.0669
     16 C           9.2596   79.1958   26.0140 C.2     1  UNL1        0.2026
     17 O           8.6679   79.2216   24.9011 O.2     1  UNL1       -0.2887
     18 C           8.9410   78.0612   26.9621 C.3     1  UNL1        0.1819
     19 H          13.1100   82.8946   22.7801 H       1  UNL1        0.2922
     20 H          10.3564   81.7531   23.4219 H       1  UNL1        0.2922
     21 C           9.1114   77.2215   29.3760 C.3     1  UNL1        0.1777
     22 C           8.8821   74.9133   29.1589 C.3     1  UNL1        0.1746
     23 O           8.3920   76.1713   28.7462 O.3     1  UNL1       -0.3460
     24 C           8.1884   78.0041   30.2999 C.2     1  UNL1        0.2064
     25 O           8.6666   78.5589   31.2792 O.2     1  UNL1       -0.2909
     26 C           6.6983   78.1624   30.0406 C.3     1  UNL1        0.1970
     27 O           6.3251   77.6978   28.7655 O.3     1  UNL1       -0.3752
     28 H           6.4233   76.7116   28.7618 H       1  UNL1        0.2110
     29 C           5.8625   77.4933   31.1584 C.3     1  UNL1        0.1445
     30 C           5.5737   76.0235   30.8347 C.3     1  UNL1        0.0348
     31 O           6.5364   77.5865   32.3870 O.3     1  UNL1       -0.3815
     32 H           5.8604   77.4397   33.0991 H       1  UNL1        0.2105
     33 O          14.4478   85.1213   27.0853 O.3     1  UNL1       -0.4526
     34 C          14.2547   85.9678   28.2211 C.3     1  UNL1        0.2901
     35 C          15.6065   86.6408   28.5910 C.3     1  UNL1        0.1085
     36 C          15.6834   88.0472   27.9814 C.3     1  UNL1        0.1531
     37 C          14.5115   88.8958   28.5329 C.3     1  UNL1        0.1648
     38 O          14.8823   89.5063   29.7433 O.3     1  UNL1       -0.3795
     39 C          13.2548   88.0138   28.7777 C.3     1  UNL1        0.1480
     40 C          11.9712   88.8210   28.5862 C.3     1  UNL1        0.0349
     41 O          13.2443   86.9130   27.8858 O.3     1  UNL1       -0.3205
     42 H          15.4645   90.2767   29.5118 H       1  UNL1        0.2105
     43 O          15.5439   87.9605   26.5684 O.3     1  UNL1       -0.3301
     44 C          16.6344   88.5446   25.8833 C.3     1  UNL1        0.2376
     45 C          16.3710   88.4231   24.3698 C.3     1  UNL1        0.0931
     46 C          17.6747   88.4835   23.5459 C.3     1  UNL1        0.1446
     47 O          17.4498   89.1402   22.3256 O.3     1  UNL1       -0.3817
     48 C          18.7718   89.2180   24.3328 C.3     1  UNL1        0.1644
     49 O          19.9694   89.2805   23.5983 O.3     1  UNL1       -0.3795
     50 C          18.9904   88.5216   25.7112 C.3     1  UNL1        0.1469
     51 C          19.5499   89.4912   26.7562 C.3     1  UNL1        0.0348
     52 O          17.8324   87.8645   26.2201 O.3     1  UNL1       -0.3304
     53 H          16.9225   88.5167   21.7606 H       1  UNL1        0.2104
     54 H          20.2387   88.3507   23.3768 H       1  UNL1        0.2105
     55 O           9.2917   76.8527   26.3088 O.3     1  UNL1       -0.3249
     56 C          10.6875   76.6132   26.3015 C.3     1  UNL1        0.2380
     57 C          10.9296   75.3460   25.4464 C.3     1  UNL1        0.0935
     58 C          11.0258   75.7254   23.9663 C.3     1  UNL1        0.1519
     59 C          12.1875   76.7308   23.7633 C.3     1  UNL1        0.1648
     60 O          13.3292   76.0331   23.3316 O.3     1  UNL1       -0.3795
     61 C          12.5148   77.4955   25.0785 C.3     1  UNL1        0.1469
     62 C          13.2340   78.8122   24.7845 C.3     1  UNL1        0.0348
     63 O          11.3285   77.7813   25.7939 O.3     1  UNL1       -0.3304
     64 H          13.8881   76.6750   22.8209 H       1  UNL1        0.2105
     65 O           9.7990   76.3301   23.5705 O.3     1  UNL1       -0.3302
     66 C           8.9229   75.3948   22.9634 C.3     1  UNL1        0.2376
     67 C           8.2641   76.0142   21.7177 C.3     1  UNL1        0.0931
     68 C           7.2349   77.0842   22.1020 C.3     1  UNL1        0.1450
     69 O           6.5461   77.4967   20.9509 O.3     1  UNL1       -0.3817
     70 C           6.2601   76.5324   23.1603 C.3     1  UNL1        0.1715
     71 C           7.0941   75.9651   24.3272 C.3     1  UNL1        0.1473
     72 C           6.1995   75.4270   25.4434 C.3     1  UNL1        0.0348
     73 O           7.9461   74.9200   23.8822 O.3     1  UNL1       -0.3304
     74 H           6.0958   78.3516   21.1777 H       1  UNL1        0.2104
     75 O           5.4592   75.4988   22.5997 O.3     1  UNL1       -0.3279
     76 C           4.1148   75.9085   22.4073 C.3     1  UNL1        0.2376
     77 C           3.6599   75.5462   20.9755 C.3     1  UNL1        0.0907
     78 C           2.5389   76.4850   20.4540 C.3     1  UNL1        0.1201
     79 C           1.6226   75.6957   19.4965 C.3     1  UNL1        0.0321
     80 O           3.1477   77.5463   19.7517 O.3     1  UNL1       -0.3841
     81 C           1.7411   77.0371   21.6654 C.3     1  UNL1        0.1620
     82 O           0.7251   77.9160   21.2462 O.3     1  UNL1       -0.3796
     83 C           2.7089   77.7910   22.6240 C.3     1  UNL1        0.1468
     84 C           2.1810   77.8195   24.0625 C.3     1  UNL1        0.0348
     85 O           4.0508   77.3097   22.5952 O.3     1  UNL1       -0.3304
     86 H           2.4314   78.1253   19.3807 H       1  UNL1        0.2103
     87 H          -0.0935   77.3734   21.1026 H       1  UNL1        0.2105
@<TRIPOS>BOND
     1    22    23    1
     2    23    21    1
     3    21    24    1
     4    24    25    2
     5    24    26    1
     6    26    27    1
     7    26    29    1
     8    29    30    1
     9    29    31    1
    10    21     1    1
    11     1     2    1
    12     2     3    1
    13     3     4   ar
    14     4     5   ar
    15     5     6   ar
    16     6     7   ar
    17     7    33    1
    18    33    34    1
    19    34    35    1
    20    35    36    1
    21    36    43    1
    22    43    44    1
    23    44    45    1
    24    45    46    1
    25    46    47    1
    26    46    48    1
    27    48    49    1
    28    48    50    1
    29    50    51    1
    30    50    52    1
    31    36    37    1
    32    37    38    1
    33    37    39    1
    34    39    40    1
    35    39    41    1
    36     7     8   ar
    37     8     9    1
    38     8    10   ar
    39    10    11    1
    40    10    12   ar
    41    12    13   ar
    42    13    14    1
    43    13    15   ar
    44    15    16    1
    45    16    17    2
    46    16    18    1
    47    18    55    1
    48    55    56    1
    49    56    57    1
    50    57    58    1
    51    58    65    1
    52    65    66    1
    53    66    67    1
    54    67    68    1
    55    68    69    1
    56    68    70    1
    57    70    75    1
    58    75    76    1
    59    76    77    1
    60    77    78    1
    61    78    79    1
    62    78    80    1
    63    78    81    1
    64    81    82    1
    65    81    83    1
    66    83    84    1
    67    83    85    1
    68    70    71    1
    69    71    72    1
    70    71    73    1
    71    58    59    1
    72    59    60    1
    73    59    61    1
    74    61    62    1
    75    61    63    1
    76    18     1    1
    77    63    56    1
    78    15     3   ar
    79    73    66    1
    80    12     5   ar
    81    85    76    1
    82    41    34    1
    83    52    44    1
    84    27    28    1
    85    31    32    1
    86    47    53    1
    87    49    54    1
    88    38    42    1
    89    11    19    1
    90    14    20    1
    91    69    74    1
    92    80    86    1
    93    82    87    1
    94    60    64    1
@<TRIPOS>MOLECULE
*****
 87 94 0 0 0
SMALL
GASTEIGER

@<TRIPOS>ATOM
      1 C           8.9100   77.8987   21.7856 C.3     1  UNL1        0.0737
      2 C           8.7914   79.1266   22.7127 C.3     1  UNL1        0.0323
      3 C           9.1520   78.7551   24.1259 C.ar    1  UNL1       -0.0162
      4 C           8.4747   79.3470   25.1930 C.ar    1  UNL1       -0.0038
      5 C           8.7980   79.0221   26.5148 C.ar    1  UNL1        0.0085
      6 C           8.0720   79.6083   27.5563 C.ar    1  UNL1        0.0370
      7 C           8.3451   79.2915   28.8934 C.ar    1  UNL1        0.1402
      8 C           9.3297   78.3292   29.1902 C.ar    1  UNL1        0.0459
      9 C           9.5759   77.9263   30.6252 C.3     1  UNL1        0.0374
     10 C          10.0306   77.6862   28.1382 C.ar    1  UNL1        0.1354
     11 O          10.8682   76.6013   28.4168 O.3     1  UNL1       -0.5056
     12 C           9.8369   78.1001   26.7923 C.ar    1  UNL1        0.0673
     13 C          10.6086   77.5962   25.7028 C.ar    1  UNL1        0.1389
     14 O          11.7683   76.8418   25.9050 O.3     1  UNL1       -0.5053
     15 C          10.2305   77.8913   24.3702 C.ar    1  UNL1        0.0669
     16 C          10.9628   77.3337   23.2000 C.2     1  UNL1        0.2026
     17 O          12.1287   76.8747   23.3390 O.2     1  UNL1       -0.2887
     18 C          10.3500   77.3105   21.8173 C.3     1  UNL1        0.1819
     19 H          11.0042   76.2122   29.3405 H       1  UNL1        0.2922
     20 H          12.3661   76.9471   26.7132 H       1  UNL1        0.2922
     21 C           8.4782   78.2241   20.3266 C.3     1  UNL1        0.1777
     22 C           9.2156   79.0727   18.2861 C.3     1  UNL1        0.1746
     23 O           9.5605   78.8281   19.6331 O.3     1  UNL1       -0.3460
     24 C           7.2652   79.1439   20.3016 C.2     1  UNL1        0.2064
     25 O           7.4277   80.3394   20.5010 O.2     1  UNL1       -0.2909
     26 C           5.8587   78.6503   20.0005 C.3     1  UNL1        0.1970
     27 O           4.8749   79.3893   20.6838 O.3     1  UNL1       -0.3752
     28 H           4.8536   80.2997   20.2925 H       1  UNL1        0.2110
     29 C           5.5919   78.6189   18.4761 C.3     1  UNL1        0.1445
     30 C           4.4182   77.6947   18.1344 C.3     1  UNL1        0.0348
     31 O           5.3294   79.9155   18.0048 O.3     1  UNL1       -0.3815
     32 H           5.4734   79.9005   17.0226 H       1  UNL1        0.2105
     33 O           7.6458   79.9044   29.9502 O.3     1  UNL1       -0.4526
     34 C           6.5141   79.3628   30.6355 C.3     1  UNL1        0.2901
     35 C           5.2788   79.4051   29.6923 C.3     1  UNL1        0.1085
     36 C           5.0875   78.0453   29.0071 C.3     1  UNL1        0.1531
     37 C           4.8755   76.9631   30.0940 C.3     1  UNL1        0.1648
     38 O           3.5139   76.8748   30.4314 O.3     1  UNL1       -0.3795
     39 C           5.6914   77.2959   31.3749 C.3     1  UNL1        0.1480
     40 C           6.1127   76.0208   32.1046 C.3     1  UNL1        0.0349
     41 O           6.8498   78.0402   31.0415 O.3     1  UNL1       -0.3205
     42 H           3.0672   76.3725   29.7005 H       1  UNL1        0.2105
     43 O           6.2600   77.7147   28.2725 O.3     1  UNL1       -0.3301
     44 C           6.3597   76.3280   28.0137 C.3     1  UNL1        0.2376
     45 C           7.2506   76.1345   26.7713 C.3     1  UNL1        0.0931
     46 C           6.9799   74.7890   26.0654 C.3     1  UNL1        0.1446
     47 O           8.1699   74.2719   25.5293 O.3     1  UNL1       -0.3817
     48 C           6.3766   73.7779   27.0534 C.3     1  UNL1        0.1644
     49 O           6.1201   72.5453   26.4267 O.3     1  UNL1       -0.3795
     50 C           5.0807   74.3684   27.6895 C.3     1  UNL1        0.1469
     51 C           4.7932   73.7591   29.0647 C.3     1  UNL1        0.0348
     52 O           5.0698   75.7915   27.7701 O.3     1  UNL1       -0.3304
     53 H           8.3938   74.8332   24.7414 H       1  UNL1        0.2104
     54 H           5.5118   72.7151   25.6605 H       1  UNL1        0.2105
     55 O          10.2843   75.9552   21.4063 O.3     1  UNL1       -0.3249
     56 C          11.1781   75.1179   22.1173 C.3     1  UNL1        0.2380
     57 C          10.3728   74.4562   23.2615 C.3     1  UNL1        0.0935
     58 C           9.6674   73.1996   22.7447 C.3     1  UNL1        0.1519
     59 C          10.7195   72.2041   22.1937 C.3     1  UNL1        0.1648
     60 O          11.0108   71.2485   23.1830 O.3     1  UNL1       -0.3795
     61 C          12.0295   72.9333   21.7769 C.3     1  UNL1        0.1469
     62 C          12.8248   72.1022   20.7697 C.3     1  UNL1        0.0348
     63 O          11.7343   74.1868   21.1917 O.3     1  UNL1       -0.3304
     64 H          11.3198   70.4291   22.7158 H       1  UNL1        0.2105
     65 O           8.7753   73.5750   21.7005 O.3     1  UNL1       -0.3302
     66 C           7.4370   73.2107   21.9952 C.3     1  UNL1        0.2376
     67 C           6.6060   73.1465   20.7011 C.3     1  UNL1        0.0931
     68 C           6.3477   74.5466   20.1313 C.3     1  UNL1        0.1450
     69 O           5.4525   74.4491   19.0549 O.3     1  UNL1       -0.3817
     70 C           5.7927   75.4760   21.2281 C.3     1  UNL1        0.1715
     71 C           6.7529   75.4174   22.4338 C.3     1  UNL1        0.1473
     72 C           6.2934   76.3434   23.5594 C.3     1  UNL1        0.0348
     73 O           6.8503   74.0953   22.9424 O.3     1  UNL1       -0.3304
     74 H           5.5151   75.3027   18.5523 H       1  UNL1        0.2104
     75 O           4.4974   75.0450   21.6286 O.3     1  UNL1       -0.3279
     76 C           3.5041   76.0244   21.3703 C.3     1  UNL1        0.2376
     77 C           3.4961   77.0703   22.5080 C.3     1  UNL1        0.0907
     78 C           2.1086   77.7437   22.6847 C.3     1  UNL1        0.1201
     79 C           2.3078   79.1917   23.1776 C.3     1  UNL1        0.0321
     80 O           1.3875   77.0139   23.6531 O.3     1  UNL1       -0.3841
     81 C           1.3575   77.7122   21.3269 C.3     1  UNL1        0.1620
     82 O           0.0796   78.2907   21.4399 O.3     1  UNL1       -0.3796
     83 C           1.2132   76.2380   20.8477 C.3     1  UNL1        0.1468
     84 C           1.0683   76.1435   19.3250 C.3     1  UNL1        0.0348
     85 O           2.2500   75.3720   21.3042 O.3     1  UNL1       -0.3304
     86 H           0.5162   77.4671   23.7992 H       1  UNL1        0.2103
     87 H           0.1739   79.2569   21.2330 H       1  UNL1        0.2105
@<TRIPOS>BOND
     1    22    23    1
     2    23    21    1
     3    21    24    1
     4    24    25    2
     5    24    26    1
     6    26    27    1
     7    26    29    1
     8    29    30    1
     9    29    31    1
    10    21     1    1
    11     1     2    1
    12     2     3    1
    13     3     4   ar
    14     4     5   ar
    15     5     6   ar
    16     6     7   ar
    17     7    33    1
    18    33    34    1
    19    34    35    1
    20    35    36    1
    21    36    43    1
    22    43    44    1
    23    44    45    1
    24    45    46    1
    25    46    47    1
    26    46    48    1
    27    48    49    1
    28    48    50    1
    29    50    51    1
    30    50    52    1
    31    36    37    1
    32    37    38    1
    33    37    39    1
    34    39    40    1
    35    39    41    1
    36     7     8   ar
    37     8     9    1
    38     8    10   ar
    39    10    11    1
    40    10    12   ar
    41    12    13   ar
    42    13    14    1
    43    13    15   ar
    44    15    16    1
    45    16    17    2
    46    16    18    1
    47    18    55    1
    48    55    56    1
    49    56    57    1
    50    57    58    1
    51    58    65    1
    52    65    66    1
    53    66    67    1
    54    67    68    1
    55    68    69    1
    56    68    70    1
    57    70    75    1
    58    75    76    1
    59    76    77    1
    60    77    78    1
    61    78    79    1
    62    78    80    1
    63    78    81    1
    64    81    82    1
    65    81    83    1
    66    83    84    1
    67    83    85    1
    68    70    71    1
    69    71    72    1
    70    71    73    1
    71    58    59    1
    72    59    60    1
    73    59    61    1
    74    61    62    1
    75    61    63    1
    76    18     1    1
    77    63    56    1
    78    15     3   ar
    79    73    66    1
    80    12     5   ar
    81    85    76    1
    82    41    34    1
    83    52    44    1
    84    27    28    1
    85    31    32    1
    86    47    53    1
    87    49    54    1
    88    38    42    1
    89    11    19    1
    90    14    20    1
    91    69    74    1
    92    80    86    1
    93    82    87    1
    94    60    64    1
@<TRIPOS>MOLECULE
*****
 87 94 0 0 0
SMALL
GASTEIGER

@<TRIPOS>ATOM
      1 C           8.6588   76.9629   22.7224 C.3     1  UNL1        0.0737
      2 C           8.0859   77.5492   24.0299 C.3     1  UNL1        0.0323
      3 C           8.5856   76.7719   25.2178 C.ar    1  UNL1       -0.0162
      4 C           7.7486   76.5691   26.3160 C.ar    1  UNL1       -0.0038
      5 C           8.1943   75.8558   27.4340 C.ar    1  UNL1        0.0085
      6 C           7.3142   75.6416   28.4993 C.ar    1  UNL1        0.0370
      7 C           7.7108   74.9105   29.6267 C.ar    1  UNL1        0.1402
      8 C           8.9973   74.3386   29.6642 C.ar    1  UNL1        0.0459
      9 C           9.4043   73.4847   30.8421 C.3     1  UNL1        0.0374
     10 C           9.8763   74.5010   28.5630 C.ar    1  UNL1        0.1354
     11 O          11.0749   73.7819   28.5133 O.3     1  UNL1       -0.5056
     12 C           9.5148   75.3451   27.4781 C.ar    1  UNL1        0.0673
     13 C          10.4042   75.6645   26.4088 C.ar    1  UNL1        0.1389
     14 O          11.7693   75.3685   26.4693 O.3     1  UNL1       -0.5053
     15 C           9.9194   76.3378   25.2609 C.ar    1  UNL1        0.0669
     16 C          10.7920   76.6326   24.0913 C.2     1  UNL1        0.2026
     17 O          12.0468   76.6113   24.2123 O.2     1  UNL1       -0.2887
     18 C          10.2145   76.9781   22.7367 C.3     1  UNL1        0.1819
     19 H          11.3667   73.1164   29.2168 H       1  UNL1        0.2922
     20 H          12.2917   75.3290   27.3336 H       1  UNL1        0.2922
     21 C           8.1107   77.6957   21.4639 C.3     1  UNL1        0.1777
     22 C           9.4200   78.6374   19.7827 C.3     1  UNL1        0.1746
     23 O           8.9805   78.7639   21.1183 O.3     1  UNL1       -0.3460
     24 C           6.7036   78.2258   21.7024 C.2     1  UNL1        0.2064
     25 O           6.0206   77.7125   22.5773 O.2     1  UNL1       -0.2909
     26 C           6.1175   79.3952   20.9267 C.3     1  UNL1        0.1970
     27 O           7.1061   80.2980   20.4924 O.3     1  UNL1       -0.3752
     28 H           7.6433   79.8456   19.7932 H       1  UNL1        0.2110
     29 C           5.2398   78.9020   19.7511 C.3     1  UNL1        0.1445
     30 C           5.9671   79.0529   18.4107 C.3     1  UNL1        0.0348
     31 O           4.8786   77.5593   19.9480 O.3     1  UNL1       -0.3815
     32 H           4.0929   77.3833   19.3671 H       1  UNL1        0.2105
     33 O           6.8451   74.7216   30.7205 O.3     1  UNL1       -0.4526
     34 C           5.6421   75.4502   30.9765 C.3     1  UNL1        0.2901
     35 C           5.9137   76.5111   32.0801 C.3     1  UNL1        0.1085
     36 C           6.2038   77.8770   31.4432 C.3     1  UNL1        0.1531
     37 C           4.9781   78.3057   30.5997 C.3     1  UNL1        0.1648
     38 O           4.0497   78.9876   31.4050 O.3     1  UNL1       -0.3795
     39 C           4.2817   77.0692   29.9646 C.3     1  UNL1        0.1480
     40 C           3.6250   77.4322   28.6331 C.3     1  UNL1        0.0349
     41 O           5.2221   76.0321   29.7470 O.3     1  UNL1       -0.3205
     42 H           4.4043   79.9051   31.5410 H       1  UNL1        0.2105
     43 O           7.3254   77.7676   30.5751 O.3     1  UNL1       -0.3301
     44 C           7.9850   79.0046   30.3897 C.3     1  UNL1        0.2376
     45 C           8.6421   78.9940   28.9958 C.3     1  UNL1        0.0931
     46 C           9.8215   79.9850   28.9012 C.3     1  UNL1        0.1446
     47 O           9.8840   80.5467   27.6162 O.3     1  UNL1       -0.3817
     48 C           9.6674   81.1019   29.9459 C.3     1  UNL1        0.1644
     49 O          10.7356   82.0140   29.8768 O.3     1  UNL1       -0.3795
     50 C           9.5472   80.4800   31.3713 C.3     1  UNL1        0.1469
     51 C           8.7886   81.4007   32.3316 C.3     1  UNL1        0.0348
     52 O           8.9770   79.1738   31.3889 O.3     1  UNL1       -0.3304
     53 H          10.2149   79.8331   27.0102 H       1  UNL1        0.2104
     54 H          11.5783   81.5051   30.0073 H       1  UNL1        0.2105
     55 O          10.6757   76.0012   21.8184 O.3     1  UNL1       -0.3249
     56 C          11.4997   75.0203   22.4221 C.3     1  UNL1        0.2380
     57 C          10.6278   74.2605   23.4507 C.3     1  UNL1        0.0935
     58 C           9.8617   73.1329   22.7541 C.3     1  UNL1        0.1519
     59 C          10.8658   72.1579   22.0888 C.3     1  UNL1        0.1648
     60 O          11.0746   71.0599   22.9417 O.3     1  UNL1       -0.3795
     61 C          12.2271   72.8536   21.7982 C.3     1  UNL1        0.1469
     62 C          12.9963   72.1195   20.6996 C.3     1  UNL1        0.0348
     63 O          12.0222   74.1913   21.3865 O.3     1  UNL1       -0.3304
     64 H          11.3456   70.2942   22.3713 H       1  UNL1        0.2105
     65 O           9.0201   73.7024   21.7568 O.3     1  UNL1       -0.3302
     66 C           7.8077   72.9806   21.6161 C.3     1  UNL1        0.2376
     67 C           7.0622   73.4350   20.3484 C.3     1  UNL1        0.0931
     68 C           6.4785   74.8431   20.5164 C.3     1  UNL1        0.1450
     69 O           5.6721   75.1438   19.4077 O.3     1  UNL1       -0.3817
     70 C           5.6719   74.9346   21.8263 C.3     1  UNL1        0.1715
     71 C           6.5762   74.4498   22.9779 C.3     1  UNL1        0.1473
     72 C           5.8620   74.5425   24.3259 C.3     1  UNL1        0.0348
     73 O           6.9867   73.1064   22.7712 O.3     1  UNL1       -0.3304
     74 H           5.5341   76.1267   19.4124 H       1  UNL1        0.2104
     75 O           4.5146   74.1109   21.7496 O.3     1  UNL1       -0.3279
     76 C           3.3190   74.8722   21.6912 C.3     1  UNL1        0.2376
     77 C           2.6259   74.6493   20.3281 C.3     1  UNL1        0.0907
     78 C           1.7508   75.8591   19.9030 C.3     1  UNL1        0.1201
     79 C           0.5537   75.3510   19.0735 C.3     1  UNL1        0.0321
     80 O           2.5423   76.7147   19.1082 O.3     1  UNL1       -0.3841
     81 C           1.2733   76.6067   21.1765 C.3     1  UNL1        0.1620
     82 O           0.4937   77.7300   20.8435 O.3     1  UNL1       -0.3796
     83 C           2.5101   77.0667   22.0027 C.3     1  UNL1        0.1468
     84 C           2.1739   77.2367   23.4882 C.3     1  UNL1        0.0348
     85 O           3.6591   76.2375   21.8436 O.3     1  UNL1       -0.3304
     86 H           1.9733   77.4677   18.7997 H       1  UNL1        0.2103
     87 H          -0.4522   77.4317   20.8051 H       1  UNL1        0.2105
@<TRIPOS>BOND
     1    22    23    1
     2    23    21    1
     3    21    24    1
     4    24    25    2
     5    24    26    1
     6    26    27    1
     7    26    29    1
     8    29    30    1
     9    29    31    1
    10    21     1    1
    11     1     2    1
    12     2     3    1
    13     3     4   ar
    14     4     5   ar
    15     5     6   ar
    16     6     7   ar
    17     7    33    1
    18    33    34    1
    19    34    35    1
    20    35    36    1
    21    36    43    1
    22    43    44    1
    23    44    45    1
    24    45    46    1
    25    46    47    1
    26    46    48    1
    27    48    49    1
    28    48    50    1
    29    50    51    1
    30    50    52    1
    31    36    37    1
    32    37    38    1
    33    37    39    1
    34    39    40    1
    35    39    41    1
    36     7     8   ar
    37     8     9    1
    38     8    10   ar
    39    10    11    1
    40    10    12   ar
    41    12    13   ar
    42    13    14    1
    43    13    15   ar
    44    15    16    1
    45    16    17    2
    46    16    18    1
    47    18    55    1
    48    55    56    1
    49    56    57    1
    50    57    58    1
    51    58    65    1
    52    65    66    1
    53    66    67    1
    54    67    68    1
    55    68    69    1
    56    68    70    1
    57    70    75    1
    58    75    76    1
    59    76    77    1
    60    77    78    1
    61    78    79    1
    62    78    80    1
    63    78    81    1
    64    81    82    1
    65    81    83    1
    66    83    84    1
    67    83    85    1
    68    70    71    1
    69    71    72    1
    70    71    73    1
    71    58    59    1
    72    59    60    1
    73    59    61    1
    74    61    62    1
    75    61    63    1
    76    18     1    1
    77    63    56    1
    78    15     3   ar
    79    73    66    1
    80    12     5   ar
    81    85    76    1
    82    41    34    1
    83    52    44    1
    84    27    28    1
    85    31    32    1
    86    47    53    1
    87    49    54    1
    88    38    42    1
    89    11    19    1
    90    14    20    1
    91    69    74    1
    92    80    86    1
    93    82    87    1
    94    60    64    1
@<TRIPOS>MOLECULE
*****
 87 94 0 0 0
SMALL
GASTEIGER

@<TRIPOS>ATOM
      1 C           9.4381   76.1867   23.6131 C.3     1  UNL1        0.0737
      2 C           8.8065   75.4247   22.4291 C.3     1  UNL1        0.0323
      3 C           8.0782   76.3773   21.5195 C.ar    1  UNL1       -0.0162
      4 C           6.8994   75.9723   20.8915 C.ar    1  UNL1       -0.0038
      5 C           6.2096   76.8385   20.0364 C.ar    1  UNL1        0.0085
      6 C           5.0125   76.4096   19.4549 C.ar    1  UNL1        0.0370
      7 C           4.2764   77.2537   18.6133 C.ar    1  UNL1        0.1402
      8 C           4.7218   78.5713   18.3919 C.ar    1  UNL1        0.0459
      9 C           3.8932   79.5112   17.5480 C.3     1  UNL1        0.0374
     10 C           5.9039   79.0343   19.0243 C.ar    1  UNL1        0.1354
     11 O           6.2461   80.3890   18.9610 O.3     1  UNL1       -0.5056
     12 C           6.7107   78.1376   19.7762 C.ar    1  UNL1        0.0673
     13 C           7.9798   78.4991   20.3196 C.ar    1  UNL1        0.1389
     14 O           8.6319   79.6800   19.9520 O.3     1  UNL1       -0.5053
     15 C           8.6348   77.6319   21.2278 C.ar    1  UNL1        0.0669
     16 C           9.9264   77.9945   21.8734 C.2     1  UNL1        0.2026
     17 O          10.6473   78.9067   21.3858 O.2     1  UNL1       -0.2887
     18 C          10.4223   77.2825   23.1123 C.3     1  UNL1        0.1819
     19 H           5.6872   81.0942   18.4991 H       1  UNL1        0.2922
     20 H           8.5229   80.1167   19.0471 H       1  UNL1        0.2922
     21 C          10.1425   75.2280   24.6160 C.3     1  UNL1        0.1777
     22 C          10.6054   75.0756   26.8942 C.3     1  UNL1        0.1746
     23 O          10.5039   75.9457   25.7871 O.3     1  UNL1       -0.3460
     24 C          11.3768   74.5887   23.9951 C.2     1  UNL1        0.2064
     25 O          12.4093   75.2408   23.9306 O.2     1  UNL1       -0.2909
     26 C          11.3983   73.1567   23.4835 C.3     1  UNL1        0.1970
     27 O          10.1057   72.6140   23.3586 O.3     1  UNL1       -0.3752
     28 H           9.6506   73.0837   22.6140 H       1  UNL1        0.2110
     29 C          12.1925   73.0483   22.1594 C.3     1  UNL1        0.1445
     30 C          11.7308   71.8458   21.3292 C.3     1  UNL1        0.0348
     31 O          12.0469   74.2275   21.4108 O.3     1  UNL1       -0.3815
     32 H          12.7905   74.2458   20.7532 H       1  UNL1        0.2105
     33 O           3.0901   76.8185   17.9930 O.3     1  UNL1       -0.4526
     34 C           2.5189   75.5118   18.0936 C.3     1  UNL1        0.2901
     35 C           3.3068   74.6914   19.1535 C.3     1  UNL1        0.1085
     36 C           2.5851   74.7412   20.5070 C.3     1  UNL1        0.1531
     37 C           1.1654   74.1466   20.3388 C.3     1  UNL1        0.1648
     38 O           1.1988   72.7531   20.5183 O.3     1  UNL1       -0.3795
     39 C           0.5967   74.4591   18.9260 C.3     1  UNL1        0.1480
     40 C          -0.9263   74.5814   18.9615 C.3     1  UNL1        0.0349
     41 O           1.1447   75.6683   18.4309 O.3     1  UNL1       -0.3205
     42 H           1.2616   72.5891   21.4957 H       1  UNL1        0.2105
     43 O           2.4543   76.0945   20.9258 O.3     1  UNL1       -0.3301
     44 C           2.7777   76.2688   22.2913 C.3     1  UNL1        0.2376
     45 C           1.8714   77.3770   22.8615 C.3     1  UNL1        0.0931
     46 C           2.4838   78.0434   24.1117 C.3     1  UNL1        0.1446
     47 O           1.4731   78.3977   25.0194 O.3     1  UNL1       -0.3817
     48 C           3.4788   77.0904   24.7932 C.3     1  UNL1        0.1644
     49 O           4.0499   77.6821   25.9340 O.3     1  UNL1       -0.3795
     50 C           4.5760   76.6541   23.7741 C.3     1  UNL1        0.1469
     51 C           5.1854   75.2977   24.1402 C.3     1  UNL1        0.0348
     52 O           4.1387   76.6469   22.4175 O.3     1  UNL1       -0.3304
     53 H           1.0003   79.1780   24.6275 H       1  UNL1        0.2104
     54 H           4.4883   78.5269   25.6507 H       1  UNL1        0.2105
     55 O          10.5586   78.2562   24.1339 O.3     1  UNL1       -0.3249
     56 C          11.4161   79.3229   23.7700 C.3     1  UNL1        0.2380
     57 C          10.7576   80.6307   24.2717 C.3     1  UNL1        0.0935
     58 C          11.1347   80.8773   25.7347 C.3     1  UNL1        0.1519
     59 C          12.6758   80.9780   25.8630 C.3     1  UNL1        0.1648
     60 O          13.0492   82.3333   25.8690 O.3     1  UNL1       -0.3795
     61 C          13.3933   80.2487   24.6904 C.3     1  UNL1        0.1469
     62 C          14.8260   79.8740   25.0704 C.3     1  UNL1        0.0348
     63 O          12.6973   79.0677   24.3413 O.3     1  UNL1       -0.3304
     64 H          13.9120   82.3966   26.3558 H       1  UNL1        0.2105
     65 O          10.6627   79.7854   26.5171 O.3     1  UNL1       -0.3302
     66 C           9.5105   80.1339   27.2665 C.3     1  UNL1        0.2376
     67 C           9.7651   79.9110   28.7681 C.3     1  UNL1        0.0931
     68 C           9.8243   78.4173   29.1103 C.3     1  UNL1        0.1450
     69 O           9.8893   78.2653   30.5040 O.3     1  UNL1       -0.3817
     70 C           8.5962   77.6875   28.5324 C.3     1  UNL1        0.1715
     71 C           8.5075   78.0203   27.0290 C.3     1  UNL1        0.1473
     72 C           7.3312   77.3038   26.3667 C.3     1  UNL1        0.0348
     73 O           8.3630   79.4180   26.8253 O.3     1  UNL1       -0.3304
     74 H          10.1916   77.3358   30.6768 H       1  UNL1        0.2104
     75 O           7.4115   78.1236   29.1882 O.3     1  UNL1       -0.3279
     76 C           6.4166   77.1130   29.2234 C.3     1  UNL1        0.2376
     77 C           5.1939   77.6139   30.0249 C.3     1  UNL1        0.0907
     78 C           4.3943   76.4526   30.6744 C.3     1  UNL1        0.1201
     79 C           2.9032   76.8415   30.7439 C.3     1  UNL1        0.0321
     80 O           4.8891   76.2569   31.9810 O.3     1  UNL1       -0.3841
     81 C           4.5993   75.1666   29.8299 C.3     1  UNL1        0.1620
     82 O           3.9124   74.0748   30.3925 O.3     1  UNL1       -0.3796
     83 C           6.1181   74.8331   29.7527 C.3     1  UNL1        0.1468
     84 C           6.4603   74.0127   28.5044 C.3     1  UNL1        0.0348
     85 O           6.9711   75.9716   29.8500 O.3     1  UNL1       -0.3304
     86 H           4.3512   75.5433   32.4139 H       1  UNL1        0.2103
     87 H           3.0062   74.0563   29.9879 H       1  UNL1        0.2105
@<TRIPOS>BOND
     1    22    23    1
     2    23    21    1
     3    21    24    1
     4    24    25    2
     5    24    26    1
     6    26    27    1
     7    26    29    1
     8    29    30    1
     9    29    31    1
    10    21     1    1
    11     1     2    1
    12     2     3    1
    13     3     4   ar
    14     4     5   ar
    15     5     6   ar
    16     6     7   ar
    17     7    33    1
    18    33    34    1
    19    34    35    1
    20    35    36    1
    21    36    43    1
    22    43    44    1
    23    44    45    1
    24    45    46    1
    25    46    47    1
    26    46    48    1
    27    48    49    1
    28    48    50    1
    29    50    51    1
    30    50    52    1
    31    36    37    1
    32    37    38    1
    33    37    39    1
    34    39    40    1
    35    39    41    1
    36     7     8   ar
    37     8     9    1
    38     8    10   ar
    39    10    11    1
    40    10    12   ar
    41    12    13   ar
    42    13    14    1
    43    13    15   ar
    44    15    16    1
    45    16    17    2
    46    16    18    1
    47    18    55    1
    48    55    56    1
    49    56    57    1
    50    57    58    1
    51    58    65    1
    52    65    66    1
    53    66    67    1
    54    67    68    1
    55    68    69    1
    56    68    70    1
    57    70    75    1
    58    75    76    1
    59    76    77    1
    60    77    78    1
    61    78    79    1
    62    78    80    1
    63    78    81    1
    64    81    82    1
    65    81    83    1
    66    83    84    1
    67    83    85    1
    68    70    71    1
    69    71    72    1
    70    71    73    1
    71    58    59    1
    72    59    60    1
    73    59    61    1
    74    61    62    1
    75    61    63    1
    76    18     1    1
    77    63    56    1
    78    15     3   ar
    79    73    66    1
    80    12     5   ar
    81    85    76    1
    82    41    34    1
    83    52    44    1
    84    27    28    1
    85    31    32    1
    86    47    53    1
    87    49    54    1
    88    38    42    1
    89    11    19    1
    90    14    20    1
    91    69    74    1
    92    80    86    1
    93    82    87    1
    94    60    64    1
@<TRIPOS>MOLECULE
*****
 87 94 0 0 0
SMALL
GASTEIGER

@<TRIPOS>ATOM
      1 C           8.7455   78.1804   24.1568 C.3     1  UNL1        0.0737
      2 C          10.1398   78.5856   23.6341 C.3     1  UNL1        0.0323
      3 C          10.7797   79.5828   24.5621 C.ar    1  UNL1       -0.0162
      4 C          11.5762   80.6035   24.0410 C.ar    1  UNL1       -0.0038
      5 C          12.1866   81.5373   24.8853 C.ar    1  UNL1        0.0085
      6 C          12.9470   82.5674   24.3232 C.ar    1  UNL1        0.0370
      7 C          13.5540   83.5386   25.1300 C.ar    1  UNL1        0.1402
      8 C          13.3517   83.5069   26.5235 C.ar    1  UNL1        0.0459
      9 C          13.9392   84.5949   27.3915 C.3     1  UNL1        0.0374
     10 C          12.5338   82.5001   27.0970 C.ar    1  UNL1        0.1354
     11 O          12.1769   82.5744   28.4473 O.3     1  UNL1       -0.5056
     12 C          12.0230   81.4479   26.2895 C.ar    1  UNL1        0.0673
     13 C          11.3137   80.3301   26.8222 C.ar    1  UNL1        0.1389
     14 O          11.2768   80.0638   28.1943 O.3     1  UNL1       -0.5053
     15 C          10.6553   79.4280   25.9512 C.ar    1  UNL1        0.0669
     16 C           9.8467   78.2866   26.4611 C.2     1  UNL1        0.2026
     17 O           9.9978   77.8781   27.6442 O.2     1  UNL1       -0.2887
     18 C           8.8382   77.5748   25.5869 C.3     1  UNL1        0.1819
     19 H          12.4499   83.3268   29.0656 H       1  UNL1        0.2922
     20 H          12.0206   80.3173   28.8300 H       1  UNL1        0.2922
     21 C           8.0201   77.2020   23.1885 C.3     1  UNL1        0.1777
     22 C           7.7918   74.9411   22.6748 C.3     1  UNL1        0.1746
     23 O           8.1392   75.8735   23.6763 O.3     1  UNL1       -0.3460
     24 C           8.5918   77.2931   21.7804 C.2     1  UNL1        0.2064
     25 O           9.3141   76.3921   21.3779 O.2     1  UNL1       -0.2909
     26 C           8.2748   78.4381   20.8312 C.3     1  UNL1        0.1970
     27 O           9.2109   78.5405   19.7852 O.3     1  UNL1       -0.3752
     28 H           9.0916   77.7540   19.1940 H       1  UNL1        0.2110
     29 C           6.8274   78.3331   20.2927 C.3     1  UNL1        0.1445
     30 C           6.6608   79.1150   18.9853 C.3     1  UNL1        0.0348
     31 O           6.4844   76.9866   20.0888 O.3     1  UNL1       -0.3815
     32 H           5.4932   76.9435   20.0513 H       1  UNL1        0.2105
     33 O          14.3526   84.5574   24.5770 O.3     1  UNL1       -0.4526
     34 C          14.0250   85.3582   23.4389 C.3     1  UNL1        0.2901
     35 C          12.9700   86.4231   23.8515 C.3     1  UNL1        0.1085
     36 C          13.6587   87.7577   24.1677 C.3     1  UNL1        0.1531
     37 C          14.4186   88.2391   22.9073 C.3     1  UNL1        0.1648
     38 O          13.5628   88.9882   22.0816 O.3     1  UNL1       -0.3795
     39 C          14.9708   87.0322   22.0976 C.3     1  UNL1        0.1480
     40 C          16.2580   87.4062   21.3633 C.3     1  UNL1        0.0349
     41 O          15.2333   85.9392   22.9601 O.3     1  UNL1       -0.3205
     42 H          13.4751   89.8865   22.4957 H       1  UNL1        0.2105
     43 O          14.6050   87.5678   25.2127 O.3     1  UNL1       -0.3301
     44 C          14.2744   88.2985   26.3773 C.3     1  UNL1        0.2376
     45 C          15.4859   88.2589   27.3288 C.3     1  UNL1        0.0931
     46 C          15.0795   88.4993   28.7983 C.3     1  UNL1        0.1446
     47 O          16.0826   89.2156   29.4702 O.3     1  UNL1       -0.3817
     48 C          13.7555   89.2770   28.8672 C.3     1  UNL1        0.1644
     49 O          13.3672   89.5032   30.1998 O.3     1  UNL1       -0.3795
     50 C          12.6497   88.5094   28.0793 C.3     1  UNL1        0.1469
     51 C          11.5542   89.4519   27.5724 C.3     1  UNL1        0.0348
     52 O          13.1473   87.7123   27.0076 O.3     1  UNL1       -0.3304
     53 H          16.8387   88.5864   29.6056 H       1  UNL1        0.2104
     54 H          13.2966   88.6206   30.6494 H       1  UNL1        0.2105
     55 O           7.5707   77.7088   26.2079 O.3     1  UNL1       -0.3249
     56 C           7.4576   76.9557   27.4019 C.3     1  UNL1        0.2380
     57 C           6.3866   77.6474   28.2794 C.3     1  UNL1        0.0935
     58 C           4.9913   77.1574   27.8835 C.3     1  UNL1        0.1519
     59 C           4.9111   75.6203   28.0640 C.3     1  UNL1        0.1648
     60 O           4.3133   75.3334   29.3037 O.3     1  UNL1       -0.3795
     61 C           6.3218   74.9661   28.0059 C.3     1  UNL1        0.1469
     62 C           6.2263   73.4846   27.6407 C.3     1  UNL1        0.0348
     63 O           7.1299   75.6152   27.0433 O.3     1  UNL1       -0.3304
     64 H           3.8955   74.4364   29.2260 H       1  UNL1        0.2105
     65 O           4.7628   77.4884   26.5177 O.3     1  UNL1       -0.3302
     66 C           4.0873   76.4485   25.8299 C.3     1  UNL1        0.2376
     67 C           4.7761   76.1671   24.4824 C.3     1  UNL1        0.0931
     68 C           4.5356   77.3045   23.4822 C.3     1  UNL1        0.1450
     69 O           5.0366   76.9284   22.2263 O.3     1  UNL1       -0.3817
     70 C           3.0328   77.6353   23.4002 C.3     1  UNL1        0.1715
     71 C           2.5223   77.8929   24.8327 C.3     1  UNL1        0.1473
     72 C           1.0402   78.2656   24.8391 C.3     1  UNL1        0.0348
     73 O           2.7080   76.7484   25.6522 O.3     1  UNL1       -0.3304
     74 H           5.1108   77.7586   21.6875 H       1  UNL1        0.2104
     75 O           2.3198   76.5449   22.8288 O.3     1  UNL1       -0.3279
     76 C           2.9019   76.1036   21.6126 C.3     1  UNL1        0.2376
     77 C           2.3558   76.9466   20.4382 C.3     1  UNL1        0.0907
     78 C           2.3799   76.1738   19.0920 C.3     1  UNL1        0.1201
     79 C           2.6055   77.1730   17.9387 C.3     1  UNL1        0.0321
     80 O           1.1293   75.5421   18.9269 O.3     1  UNL1       -0.3841
     81 C           3.5100   75.1112   19.1421 C.3     1  UNL1        0.1620
     82 O           3.5578   74.3642   17.9504 O.3     1  UNL1       -0.3796
     83 C           3.2652   74.1493   20.3415 C.3     1  UNL1        0.1468
     84 C           4.5663   73.5052   20.8323 C.3     1  UNL1        0.0348
     85 O           2.5610   74.7422   21.4305 O.3     1  UNL1       -0.3304
     86 H           1.1267   75.0821   18.0471 H       1  UNL1        0.2103
     87 H           4.1820   74.8301   17.3351 H       1  UNL1        0.2105
@<TRIPOS>BOND
     1    22    23    1
     2    23    21    1
     3    21    24    1
     4    24    25    2
     5    24    26    1
     6    26    27    1
     7    26    29    1
     8    29    30    1
     9    29    31    1
    10    21     1    1
    11     1     2    1
    12     2     3    1
    13     3     4   ar
    14     4     5   ar
    15     5     6   ar
    16     6     7   ar
    17     7    33    1
    18    33    34    1
    19    34    35    1
    20    35    36    1
    21    36    43    1
    22    43    44    1
    23    44    45    1
    24    45    46    1
    25    46    47    1
    26    46    48    1
    27    48    49    1
    28    48    50    1
    29    50    51    1
    30    50    52    1
    31    36    37    1
    32    37    38    1
    33    37    39    1
    34    39    40    1
    35    39    41    1
    36     7     8   ar
    37     8     9    1
    38     8    10   ar
    39    10    11    1
    40    10    12   ar
    41    12    13   ar
    42    13    14    1
    43    13    15   ar
    44    15    16    1
    45    16    17    2
    46    16    18    1
    47    18    55    1
    48    55    56    1
    49    56    57    1
    50    57    58    1
    51    58    65    1
    52    65    66    1
    53    66    67    1
    54    67    68    1
    55    68    69    1
    56    68    70    1
    57    70    75    1
    58    75    76    1
    59    76    77    1
    60    77    78    1
    61    78    79    1
    62    78    80    1
    63    78    81    1
    64    81    82    1
    65    81    83    1
    66    83    84    1
    67    83    85    1
    68    70    71    1
    69    71    72    1
    70    71    73    1
    71    58    59    1
    72    59    60    1
    73    59    61    1
    74    61    62    1
    75    61    63    1
    76    18     1    1
    77    63    56    1
    78    15     3   ar
    79    73    66    1
    80    12     5   ar
    81    85    76    1
    82    41    34    1
    83    52    44    1
    84    27    28    1
    85    31    32    1
    86    47    53    1
    87    49    54    1
    88    38    42    1
    89    11    19    1
    90    14    20    1
    91    69    74    1
    92    80    86    1
    93    82    87    1
    94    60    64    1
@<TRIPOS>MOLECULE
*****
 87 94 0 0 0
SMALL
GASTEIGER

@<TRIPOS>ATOM
      1 C           9.1650   77.4384   23.4863 C.3     1  UNL1        0.0737
      2 C           8.6695   77.9703   24.8476 C.3     1  UNL1        0.0323
      3 C           9.0043   76.9969   25.9456 C.ar    1  UNL1       -0.0162
      4 C           8.1205   76.8229   27.0117 C.ar    1  UNL1       -0.0038
      5 C           8.4145   75.9290   28.0469 C.ar    1  UNL1        0.0085
      6 C           7.4871   75.7546   29.0788 C.ar    1  UNL1        0.0370
      7 C           7.7294   74.8506   30.1213 C.ar    1  UNL1        0.1402
      8 C           8.9002   74.0680   30.1015 C.ar    1  UNL1        0.0459
      9 C           9.1310   73.0365   31.1808 C.3     1  UNL1        0.0374
     10 C           9.8187   74.1956   29.0282 C.ar    1  UNL1        0.1354
     11 O          10.8800   73.2931   28.9053 O.3     1  UNL1       -0.5056
     12 C           9.6289   75.1998   28.0405 C.ar    1  UNL1        0.0673
     13 C          10.5833   75.4762   27.0161 C.ar    1  UNL1        0.1389
     14 O          11.8774   74.9480   27.0496 O.3     1  UNL1       -0.5053
     15 C          10.2447   76.3408   25.9466 C.ar    1  UNL1        0.0669
     16 C          11.1807   76.6065   24.8198 C.2     1  UNL1        0.2026
     17 O          12.4109   76.3597   24.9429 O.2     1  UNL1       -0.2887
     18 C          10.7003   77.1877   23.5086 C.3     1  UNL1        0.1819
     19 H          11.0397   72.5163   29.5331 H       1  UNL1        0.2922
     20 H          12.3661   74.7282   27.9066 H       1  UNL1        0.2922
     21 C           8.7765   78.3838   22.3131 C.3     1  UNL1        0.1777
     22 C           8.7554   78.5238   19.9877 C.3     1  UNL1        0.1746
     23 O           9.3579   77.9099   21.1071 O.3     1  UNL1       -0.3460
     24 C           9.2276   79.8127   22.5825 C.2     1  UNL1        0.2064
     25 O           8.4949   80.7345   22.2522 O.2     1  UNL1       -0.2909
     26 C          10.5354   80.1496   23.2816 C.3     1  UNL1        0.1970
     27 O          11.4169   80.8661   22.4506 O.3     1  UNL1       -0.3752
     28 H          11.0314   81.7677   22.3062 H       1  UNL1        0.2110
     29 C          10.2808   80.8908   24.6163 C.3     1  UNL1        0.1445
     30 C          11.5788   81.4703   25.1887 C.3     1  UNL1        0.0348
     31 O           9.3436   81.9193   24.4266 O.3     1  UNL1       -0.3815
     32 H           8.9840   82.1513   25.3224 H       1  UNL1        0.2105
     33 O           6.8199   74.6955   31.1843 O.3     1  UNL1       -0.4526
     34 C           5.5938   75.4111   31.3533 C.3     1  UNL1        0.2901
     35 C           5.8057   76.5468   32.3937 C.3     1  UNL1        0.1085
     36 C           6.0884   77.8752   31.6789 C.3     1  UNL1        0.1531
     37 C           4.8832   78.2203   30.7700 C.3     1  UNL1        0.1648
     38 O           3.9140   78.9309   31.4987 O.3     1  UNL1       -0.3795
     39 C           4.2348   76.9297   30.1946 C.3     1  UNL1        0.1480
     40 C           3.6160   77.1909   28.8217 C.3     1  UNL1        0.0349
     41 O           5.2036   75.9027   30.0755 O.3     1  UNL1       -0.3205
     42 H           4.2444   79.8632   31.5861 H       1  UNL1        0.2105
     43 O           7.2407   77.7361   30.8565 O.3     1  UNL1       -0.3301
     44 C           7.8926   78.9705   30.6304 C.3     1  UNL1        0.2376
     45 C           8.5157   78.9331   29.2214 C.3     1  UNL1        0.0931
     46 C           9.6900   79.9244   29.0783 C.3     1  UNL1        0.1446
     47 O           9.7198   80.4604   27.7811 O.3     1  UNL1       -0.3817
     48 C           9.5585   81.0617   30.1039 C.3     1  UNL1        0.1644
     49 O          10.6225   81.9743   29.9905 O.3     1  UNL1       -0.3795
     50 C           9.4746   80.4683   31.5439 C.3     1  UNL1        0.1469
     51 C           8.7373   81.4066   32.5038 C.3     1  UNL1        0.0348
     52 O           8.9082   79.1616   31.6015 O.3     1  UNL1       -0.3304
     53 H          10.0377   79.7354   27.1817 H       1  UNL1        0.2104
     54 H          11.4694   81.4699   30.1106 H       1  UNL1        0.2105
     55 O          11.0111   76.2506   22.4911 O.3     1  UNL1       -0.3249
     56 C          11.6416   75.0839   22.9879 C.3     1  UNL1        0.2380
     57 C          10.6016   74.3367   23.8571 C.3     1  UNL1        0.0935
     58 C           9.7286   73.4421   22.9732 C.3     1  UNL1        0.1519
     59 C          10.6231   72.4220   22.2244 C.3     1  UNL1        0.1648
     60 O          10.6125   71.2016   22.9224 O.3     1  UNL1       -0.3795
     61 C          12.0873   72.9336   22.0988 C.3     1  UNL1        0.1469
     62 C          12.8140   72.2428   20.9445 C.3     1  UNL1        0.0348
     63 O          12.1068   74.3295   21.8710 O.3     1  UNL1       -0.3304
     64 H          10.8073   70.4860   22.2628 H       1  UNL1        0.2105
     65 O           9.0475   74.2609   22.0283 O.3     1  UNL1       -0.3302
     66 C           7.7620   73.7491   21.7182 C.3     1  UNL1        0.2376
     67 C           6.9780   74.7619   20.8644 C.3     1  UNL1        0.0931
     68 C           6.5517   75.9806   21.6919 C.3     1  UNL1        0.1450
     69 O           5.7032   76.7890   20.9198 O.3     1  UNL1       -0.3817
     70 C           5.8530   75.5281   22.9888 C.3     1  UNL1        0.1715
     71 C           6.7833   74.5303   23.7085 C.3     1  UNL1        0.1473
     72 C           6.1792   74.0567   25.0300 C.3     1  UNL1        0.0348
     73 O           7.0415   73.3969   22.8933 O.3     1  UNL1       -0.3304
     74 H           5.6650   77.6738   21.3678 H       1  UNL1        0.2104
     75 O           4.6164   74.8936   22.6855 O.3     1  UNL1       -0.3279
     76 C           3.5160   75.7805   22.8071 C.3     1  UNL1        0.2376
     77 C           2.7994   75.9110   21.4441 C.3     1  UNL1        0.0907
     78 C           2.0681   77.2712   21.2864 C.3     1  UNL1        0.1201
     79 C           0.8190   77.0748   20.4029 C.3     1  UNL1        0.0321
     80 O           2.9510   78.1730   20.6560 O.3     1  UNL1       -0.3841
     81 C           1.6818   77.8008   22.6932 C.3     1  UNL1        0.1620
     82 O           1.0357   79.0480   22.6066 O.3     1  UNL1       -0.3796
     83 C           2.9648   77.9466   23.5631 C.3     1  UNL1        0.1468
     84 C           2.6531   77.8558   25.0608 C.3     1  UNL1        0.0348
     85 O           4.0108   77.0417   23.2161 O.3     1  UNL1       -0.3304
     86 H           2.4716   79.0310   20.5154 H       1  UNL1        0.2103
     87 H           0.0618   78.8711   22.5334 H       1  UNL1        0.2105
@<TRIPOS>BOND
     1    22    23    1
     2    23    21    1
     3    21    24    1
     4    24    25    2
     5    24    26    1
     6    26    27    1
     7    26    29    1
     8    29    30    1
     9    29    31    1
    10    21     1    1
    11     1     2    1
    12     2     3    1
    13     3     4   ar
    14     4     5   ar
    15     5     6   ar
    16     6     7   ar
    17     7    33    1
    18    33    34    1
    19    34    35    1
    20    35    36    1
    21    36    43    1
    22    43    44    1
    23    44    45    1
    24    45    46    1
    25    46    47    1
    26    46    48    1
    27    48    49    1
    28    48    50    1
    29    50    51    1
    30    50    52    1
    31    36    37    1
    32    37    38    1
    33    37    39    1
    34    39    40    1
    35    39    41    1
    36     7     8   ar
    37     8     9    1
    38     8    10   ar
    39    10    11    1
    40    10    12   ar
    41    12    13   ar
    42    13    14    1
    43    13    15   ar
    44    15    16    1
    45    16    17    2
    46    16    18    1
    47    18    55    1
    48    55    56    1
    49    56    57    1
    50    57    58    1
    51    58    65    1
    52    65    66    1
    53    66    67    1
    54    67    68    1
    55    68    69    1
    56    68    70    1
    57    70    75    1
    58    75    76    1
    59    76    77    1
    60    77    78    1
    61    78    79    1
    62    78    80    1
    63    78    81    1
    64    81    82    1
    65    81    83    1
    66    83    84    1
    67    83    85    1
    68    70    71    1
    69    71    72    1
    70    71    73    1
    71    58    59    1
    72    59    60    1
    73    59    61    1
    74    61    62    1
    75    61    63    1
    76    18     1    1
    77    63    56    1
    78    15     3   ar
    79    73    66    1
    80    12     5   ar
    81    85    76    1
    82    41    34    1
    83    52    44    1
    84    27    28    1
    85    31    32    1
    86    47    53    1
    87    49    54    1
    88    38    42    1
    89    11    19    1
    90    14    20    1
    91    69    74    1
    92    80    86    1
    93    82    87    1
    94    60    64    1
@<TRIPOS>MOLECULE
*****
 87 94 0 0 0
SMALL
GASTEIGER

@<TRIPOS>ATOM
      1 C           8.8935   78.5082   27.2854 C.3     1  UNL1        0.0737
      2 C           7.6971   77.5340   27.2515 C.3     1  UNL1        0.0323
      3 C           7.7167   76.7212   25.9850 C.ar    1  UNL1       -0.0162
      4 C           6.5156   76.3737   25.3651 C.ar    1  UNL1       -0.0038
      5 C           6.5096   75.6127   24.1911 C.ar    1  UNL1        0.0085
      6 C           5.2878   75.3160   23.5791 C.ar    1  UNL1        0.0370
      7 C           5.2375   74.5792   22.3887 C.ar    1  UNL1        0.1402
      8 C           6.4380   74.1767   21.7718 C.ar    1  UNL1        0.0459
      9 C           6.3938   73.4492   20.4485 C.3     1  UNL1        0.0374
     10 C           7.6838   74.5237   22.3541 C.ar    1  UNL1        0.1354
     11 O           8.8717   74.2936   21.6527 O.3     1  UNL1       -0.5056
     12 C           7.7266   75.1625   23.6231 C.ar    1  UNL1        0.0673
     13 C           8.9410   75.4126   24.3296 C.ar    1  UNL1        0.1389
     14 O          10.1542   74.8359   23.9414 O.3     1  UNL1       -0.5053
     15 C           8.9331   76.2324   25.4845 C.ar    1  UNL1        0.0669
     16 C          10.1830   76.5776   26.2160 C.2     1  UNL1        0.2026
     17 O          11.2268   75.8898   26.0520 O.2     1  UNL1       -0.2887
     18 C          10.2429   77.7411   27.1807 C.3     1  UNL1        0.1819
     19 H           8.9136   73.9025   20.7208 H       1  UNL1        0.2922
     20 H          10.2206   73.9415   23.4754 H       1  UNL1        0.2922
     21 C           8.8712   79.4174   28.5479 C.3     1  UNL1        0.1777
     22 C          10.4473   80.5229   29.8598 C.3     1  UNL1        0.1746
     23 O          10.1059   79.3013   29.2401 O.3     1  UNL1       -0.3460
     24 C           7.7189   79.0503   29.4728 C.2     1  UNL1        0.2064
     25 O           6.6091   79.5096   29.2429 O.2     1  UNL1       -0.2909
     26 C           7.8744   78.1036   30.6527 C.3     1  UNL1        0.1970
     27 O           8.6125   78.6773   31.7049 O.3     1  UNL1       -0.3752
     28 H           8.0625   79.4000   32.1018 H       1  UNL1        0.2110
     29 C           6.4992   77.5846   31.1377 C.3     1  UNL1        0.1445
     30 C           6.2632   76.1359   30.6972 C.3     1  UNL1        0.0348
     31 O           6.4140   77.6765   32.5364 O.3     1  UNL1       -0.3815
     32 H           5.4500   77.6379   32.7703 H       1  UNL1        0.2105
     33 O           4.0111   74.2429   21.7851 O.3     1  UNL1       -0.4526
     34 C           3.0659   75.1620   21.2324 C.3     1  UNL1        0.2901
     35 C           3.1081   76.4869   22.0450 C.3     1  UNL1        0.1085
     36 C           4.0062   77.5129   21.3407 C.3     1  UNL1        0.1531
     37 C           3.4381   77.7875   19.9267 C.3     1  UNL1        0.1648
     38 O           2.4768   78.8115   19.9807 O.3     1  UNL1       -0.3795
     39 C           2.7798   76.5092   19.3353 C.3     1  UNL1        0.1480
     40 C           2.8943   76.4871   17.8114 C.3     1  UNL1        0.0349
     41 O           3.3989   75.3483   19.8609 O.3     1  UNL1       -0.3205
     42 H           2.9720   79.6687   20.0586 H       1  UNL1        0.2105
     43 O           5.3166   76.9780   21.1978 O.3     1  UNL1       -0.3301
     44 C           6.0619   77.6406   20.1952 C.3     1  UNL1        0.2376
     45 C           7.5417   77.6507   20.6250 C.3     1  UNL1        0.0931
     46 C           8.3351   78.7908   19.9520 C.3     1  UNL1        0.1446
     47 O           9.6497   78.3774   19.6843 O.3     1  UNL1       -0.3817
     48 C           7.6518   79.2185   18.6433 C.3     1  UNL1        0.1644
     49 O           8.3596   80.2597   18.0166 O.3     1  UNL1       -0.3795
     50 C           6.1748   79.6313   18.9281 C.3     1  UNL1        0.1469
     51 C           5.2868   79.4560   17.6928 C.3     1  UNL1        0.0348
     52 O           5.5933   78.9712   20.0496 O.3     1  UNL1       -0.3304
     53 H          10.1190   78.3393   20.5585 H       1  UNL1        0.2104
     54 H           8.4227   81.0139   18.6595 H       1  UNL1        0.2105
     55 O          11.2276   78.6401   26.6988 O.3     1  UNL1       -0.3249
     56 C          11.9417   78.1333   25.5858 C.3     1  UNL1        0.2380
     57 C          11.9232   79.2290   24.4928 C.3     1  UNL1        0.0935
     58 C          13.0669   80.2193   24.7269 C.3     1  UNL1        0.1519
     59 C          14.4202   79.4649   24.6970 C.3     1  UNL1        0.1648
     60 O          14.9916   79.5959   23.4191 O.3     1  UNL1       -0.3795
     61 C          14.2380   77.9558   25.0302 C.3     1  UNL1        0.1469
     62 C          15.5460   77.3410   25.5289 C.3     1  UNL1        0.0348
     63 O          13.2512   77.7844   26.0290 O.3     1  UNL1       -0.3304
     64 H          15.9736   79.4997   23.5268 H       1  UNL1        0.2105
     65 O          12.8894   80.8270   26.0023 O.3     1  UNL1       -0.3302
     66 C          12.1853   82.0542   25.9073 C.3     1  UNL1        0.2376
     67 C          12.3498   82.6540   24.4992 C.3     1  UNL1        0.0931
     68 C          13.7724   83.1822   24.2781 C.3     1  UNL1        0.1450
     69 O          13.8261   83.8650   23.0531 O.3     1  UNL1       -0.3817
     70 C          14.1875   84.1033   25.4418 C.3     1  UNL1        0.1715
     71 C          13.9624   83.3361   26.7609 C.3     1  UNL1        0.1473
     72 C          14.3852   84.1688   27.9706 C.3     1  UNL1        0.0348
     73 O          12.5980   82.9733   26.9117 O.3     1  UNL1       -0.3304
     74 H          14.7861   83.9552   22.8176 H       1  UNL1        0.2104
     75 O          13.3980   85.2868   25.4378 O.3     1  UNL1       -0.3279
     76 C          13.9700   86.3087   24.6373 C.3     1  UNL1        0.2376
     77 C          12.9945   86.6865   23.4999 C.3     1  UNL1        0.0907
     78 C          13.7275   87.2479   22.2519 C.3     1  UNL1        0.1201
     79 C          12.8177   88.2777   21.5512 C.3     1  UNL1        0.0321
     80 O          13.9829   86.1739   21.3736 O.3     1  UNL1       -0.3841
     81 C          15.0639   87.8958   22.7026 C.3     1  UNL1        0.1620
     82 O          15.7806   88.3999   21.6014 O.3     1  UNL1       -0.3796
     83 C          15.9331   86.8342   23.4385 C.3     1  UNL1        0.1468
     84 C          16.9206   87.4818   24.4153 C.3     1  UNL1        0.0348
     85 O          15.1799   85.8158   24.0932 O.3     1  UNL1       -0.3304
     86 H          14.4136   86.5363   20.5557 H       1  UNL1        0.2103
     87 H          15.5004   89.3436   21.4742 H       1  UNL1        0.2105
@<TRIPOS>BOND
     1    22    23    1
     2    23    21    1
     3    21    24    1
     4    24    25    2
     5    24    26    1
     6    26    27    1
     7    26    29    1
     8    29    30    1
     9    29    31    1
    10    21     1    1
    11     1     2    1
    12     2     3    1
    13     3     4   ar
    14     4     5   ar
    15     5     6   ar
    16     6     7   ar
    17     7    33    1
    18    33    34    1
    19    34    35    1
    20    35    36    1
    21    36    43    1
    22    43    44    1
    23    44    45    1
    24    45    46    1
    25    46    47    1
    26    46    48    1
    27    48    49    1
    28    48    50    1
    29    50    51    1
    30    50    52    1
    31    36    37    1
    32    37    38    1
    33    37    39    1
    34    39    40    1
    35    39    41    1
    36     7     8   ar
    37     8     9    1
    38     8    10   ar
    39    10    11    1
    40    10    12   ar
    41    12    13   ar
    42    13    14    1
    43    13    15   ar
    44    15    16    1
    45    16    17    2
    46    16    18    1
    47    18    55    1
    48    55    56    1
    49    56    57    1
    50    57    58    1
    51    58    65    1
    52    65    66    1
    53    66    67    1
    54    67    68    1
    55    68    69    1
    56    68    70    1
    57    70    75    1
    58    75    76    1
    59    76    77    1
    60    77    78    1
    61    78    79    1
    62    78    80    1
    63    78    81    1
    64    81    82    1
    65    81    83    1
    66    83    84    1
    67    83    85    1
    68    70    71    1
    69    71    72    1
    70    71    73    1
    71    58    59    1
    72    59    60    1
    73    59    61    1
    74    61    62    1
    75    61    63    1
    76    18     1    1
    77    63    56    1
    78    15     3   ar
    79    73    66    1
    80    12     5   ar
    81    85    76    1
    82    41    34    1
    83    52    44    1
    84    27    28    1
    85    31    32    1
    86    47    53    1
    87    49    54    1
    88    38    42    1
    89    11    19    1
    90    14    20    1
    91    69    74    1
    92    80    86    1
    93    82    87    1
    94    60    64    1
@<TRIPOS>MOLECULE
*****
 87 94 0 0 0
SMALL
GASTEIGER

@<TRIPOS>ATOM
      1 C           9.3178   77.8086   27.5635 C.3     1  UNL1        0.0737
      2 C           9.5168   79.1750   28.2526 C.3     1  UNL1        0.0323
      3 C          10.3006   80.1027   27.3636 C.ar    1  UNL1       -0.0162
      4 C          11.2078   81.0014   27.9270 C.ar    1  UNL1       -0.0038
      5 C          11.9419   81.8778   27.1206 C.ar    1  UNL1        0.0085
      6 C          12.8682   82.7378   27.7187 C.ar    1  UNL1        0.0370
      7 C          13.6429   83.6132   26.9465 C.ar    1  UNL1        0.1402
      8 C          13.5243   83.5891   25.5433 C.ar    1  UNL1        0.0459
      9 C          14.4115   84.4750   24.7005 C.3     1  UNL1        0.0374
     10 C          12.6299   82.6790   24.9242 C.ar    1  UNL1        0.1354
     11 O          12.6461   82.5185   23.5349 O.3     1  UNL1       -0.5056
     12 C          11.7590   81.8822   25.7160 C.ar    1  UNL1        0.0673
     13 C          10.7402   81.0520   25.1597 C.ar    1  UNL1        0.1389
     14 O          10.3645   81.1428   23.8160 O.3     1  UNL1       -0.5053
     15 C          10.0479   80.1312   25.9836 C.ar    1  UNL1        0.0669
     16 C           9.0256   79.1970   25.4374 C.2     1  UNL1        0.2026
     17 O           8.4941   79.4203   24.3161 O.2     1  UNL1       -0.2887
     18 C           8.5816   77.9700   26.2025 C.3     1  UNL1        0.1819
     19 H          13.2815   83.0037   22.9153 H       1  UNL1        0.2922
     20 H          10.4265   81.9962   23.2780 H       1  UNL1        0.2922
     21 C           8.5711   76.7958   28.4789 C.3     1  UNL1        0.1777
     22 C           9.3988   74.7809   29.3051 C.3     1  UNL1        0.1746
     23 O           8.9714   75.4731   28.1513 O.3     1  UNL1       -0.3460
     24 C           7.0614   76.9331   28.3383 C.2     1  UNL1        0.2064
     25 O           6.4983   77.8588   28.9054 O.2     1  UNL1       -0.2909
     26 C           6.2204   75.9919   27.4902 C.3     1  UNL1        0.1970
     27 O           6.9949   75.2745   26.5594 O.3     1  UNL1       -0.3752
     28 H           7.5598   74.6354   27.0641 H       1  UNL1        0.2110
     29 C           5.3741   75.0465   28.3767 C.3     1  UNL1        0.1445
     30 C           5.7215   73.5771   28.1148 C.3     1  UNL1        0.0348
     31 O           5.5747   75.3483   29.7335 O.3     1  UNL1       -0.3815
     32 H           4.8114   74.9560   30.2326 H       1  UNL1        0.2105
     33 O          14.5507   84.5093   27.5418 O.3     1  UNL1       -0.4526
     34 C          14.2094   85.6704   28.3028 C.3     1  UNL1        0.2901
     35 C          15.5117   86.4233   28.6956 C.3     1  UNL1        0.1085
     36 C          15.7823   87.5664   27.7079 C.3     1  UNL1        0.1531
     37 C          14.5847   88.5474   27.7384 C.3     1  UNL1        0.1648
     38 O          14.7694   89.5071   28.7485 O.3     1  UNL1       -0.3795
     39 C          13.2530   87.7894   28.0011 C.3     1  UNL1        0.1480
     40 C          12.0762   88.4975   27.3307 C.3     1  UNL1        0.0349
     41 O          13.3351   86.4639   27.5074 O.3     1  UNL1       -0.3205
     42 H          15.4295   90.1646   28.4050 H       1  UNL1        0.2105
     43 O          15.8930   87.0399   26.3910 O.3     1  UNL1       -0.3301
     44 C          16.6145   87.8967   25.5279 C.3     1  UNL1        0.2376
     45 C          16.0197   87.7638   24.1125 C.3     1  UNL1        0.0931
     46 C          17.0282   88.1704   23.0173 C.3     1  UNL1        0.1446
     47 O          16.3627   88.7912   21.9484 O.3     1  UNL1       -0.3817
     48 C          18.0860   89.1262   23.5917 C.3     1  UNL1        0.1644
     49 O          19.0165   89.5057   22.6079 O.3     1  UNL1       -0.3795
     50 C          18.7940   88.4601   24.8115 C.3     1  UNL1        0.1469
     51 C          19.3556   89.5028   25.7824 C.3     1  UNL1        0.0348
     52 O          17.9822   87.5218   25.5130 O.3     1  UNL1       -0.3304
     53 H          15.8704   88.0760   21.4666 H       1  UNL1        0.2104
     54 H          19.4295   88.6786   22.2454 H       1  UNL1        0.2105
     55 O           8.8804   76.8399   25.4002 O.3     1  UNL1       -0.3249
     56 C          10.2060   76.3729   25.5748 C.3     1  UNL1        0.2380
     57 C          10.4736   75.3297   24.4631 C.3     1  UNL1        0.0935
     58 C          10.9316   76.0354   23.1841 C.3     1  UNL1        0.1519
     59 C          12.2215   76.8446   23.4720 C.3     1  UNL1        0.1648
     60 O          13.3376   76.0873   23.0754 O.3     1  UNL1       -0.3795
     61 C          12.3463   77.1983   24.9823 C.3     1  UNL1        0.1469
     62 C          13.2643   78.4030   25.1908 C.3     1  UNL1        0.0348
     63 O          11.0765   77.5011   25.5270 O.3     1  UNL1       -0.3304
     64 H          14.0662   76.7281   22.8664 H       1  UNL1        0.2105
     65 O           9.9005   76.9200   22.7578 O.3     1  UNL1       -0.3302
     66 C           9.2765   76.4666   21.5680 C.3     1  UNL1        0.2376
     67 C           8.7477   77.6624   20.7558 C.3     1  UNL1        0.0931
     68 C           7.5284   78.3024   21.4306 C.3     1  UNL1        0.1450
     69 O           6.9843   79.2734   20.5757 O.3     1  UNL1       -0.3817
     70 C           6.4829   77.2250   21.7781 C.3     1  UNL1        0.1715
     71 C           7.1882   76.1211   22.5923 C.3     1  UNL1        0.1473
     72 C           6.2097   75.0244   23.0113 C.3     1  UNL1        0.0348
     73 O           8.2408   75.5311   21.8440 O.3     1  UNL1       -0.3304
     74 H           6.3864   79.8398   21.1296 H       1  UNL1        0.2104
     75 O           5.9387   76.6661   20.5883 O.3     1  UNL1       -0.3279
     76 C           4.5409   76.8850   20.4851 C.3     1  UNL1        0.2376
     77 C           4.0794   77.8413   21.6079 C.3     1  UNL1        0.0907
     78 C           2.5919   77.6259   21.9962 C.3     1  UNL1        0.1201
     79 C           1.9872   78.9707   22.4490 C.3     1  UNL1        0.0321
     80 O           2.5468   76.7077   23.0663 O.3     1  UNL1       -0.3841
     81 C           1.8301   77.0530   20.7713 C.3     1  UNL1        0.1620
     82 O           0.4777   76.8159   21.0798 O.3     1  UNL1       -0.3796
     83 C           2.4961   75.7189   20.3235 C.3     1  UNL1        0.1468
     84 C           2.2409   75.4219   18.8419 C.3     1  UNL1        0.0348
     85 O           3.8893   75.6355   20.6157 O.3     1  UNL1       -0.3304
     86 H           1.5998   76.6004   23.3447 H       1  UNL1        0.2103
     87 H          -0.0246   77.6430   20.8587 H       1  UNL1        0.2105
@<TRIPOS>BOND
     1    22    23    1
     2    23    21    1
     3    21    24    1
     4    24    25    2
     5    24    26    1
     6    26    27    1
     7    26    29    1
     8    29    30    1
     9    29    31    1
    10    21     1    1
    11     1     2    1
    12     2     3    1
    13     3     4   ar
    14     4     5   ar
    15     5     6   ar
    16     6     7   ar
    17     7    33    1
    18    33    34    1
    19    34    35    1
    20    35    36    1
    21    36    43    1
    22    43    44    1
    23    44    45    1
    24    45    46    1
    25    46    47    1
    26    46    48    1
    27    48    49    1
    28    48    50    1
    29    50    51    1
    30    50    52    1
    31    36    37    1
    32    37    38    1
    33    37    39    1
    34    39    40    1
    35    39    41    1
    36     7     8   ar
    37     8     9    1
    38     8    10   ar
    39    10    11    1
    40    10    12   ar
    41    12    13   ar
    42    13    14    1
    43    13    15   ar
    44    15    16    1
    45    16    17    2
    46    16    18    1
    47    18    55    1
    48    55    56    1
    49    56    57    1
    50    57    58    1
    51    58    65    1
    52    65    66    1
    53    66    67    1
    54    67    68    1
    55    68    69    1
    56    68    70    1
    57    70    75    1
    58    75    76    1
    59    76    77    1
    60    77    78    1
    61    78    79    1
    62    78    80    1
    63    78    81    1
    64    81    82    1
    65    81    83    1
    66    83    84    1
    67    83    85    1
    68    70    71    1
    69    71    72    1
    70    71    73    1
    71    58    59    1
    72    59    60    1
    73    59    61    1
    74    61    62    1
    75    61    63    1
    76    18     1    1
    77    63    56    1
    78    15     3   ar
    79    73    66    1
    80    12     5   ar
    81    85    76    1
    82    41    34    1
    83    52    44    1
    84    27    28    1
    85    31    32    1
    86    47    53    1
    87    49    54    1
    88    38    42    1
    89    11    19    1
    90    14    20    1
    91    69    74    1
    92    80    86    1
    93    82    87    1
    94    60    64    1
@<TRIPOS>MOLECULE
*****
 87 94 0 0 0
SMALL
GASTEIGER

@<TRIPOS>ATOM
      1 C           8.7883   77.9522   24.1096 C.3     1  UNL1        0.0737
      2 C          10.1820   78.3664   23.5921 C.3     1  UNL1        0.0323
      3 C          10.7977   79.3928   24.5045 C.ar    1  UNL1       -0.0162
      4 C          11.5848   80.4135   23.9692 C.ar    1  UNL1       -0.0038
      5 C          12.1729   81.3742   24.7990 C.ar    1  UNL1        0.0085
      6 C          12.9242   82.4029   24.2222 C.ar    1  UNL1        0.0370
      7 C          13.5087   83.4002   25.0136 C.ar    1  UNL1        0.1402
      8 C          13.2926   83.3957   26.4053 C.ar    1  UNL1        0.0459
      9 C          13.8553   84.5107   27.2552 C.3     1  UNL1        0.0374
     10 C          12.4834   82.3897   26.9925 C.ar    1  UNL1        0.1354
     11 O          12.1115   82.4880   28.3372 O.3     1  UNL1       -0.5056
     12 C          11.9961   81.3129   26.2031 C.ar    1  UNL1        0.0673
     13 C          11.2976   80.1966   26.7530 C.ar    1  UNL1        0.1389
     14 O          11.2504   79.9597   28.1301 O.3     1  UNL1       -0.5053
     15 C          10.6613   79.2662   25.8954 C.ar    1  UNL1        0.0669
     16 C           9.8640   78.1245   26.4219 C.2     1  UNL1        0.2026
     17 O          10.0089   77.7440   27.6151 O.2     1  UNL1       -0.2887
     18 C           8.8750   77.3792   25.5534 C.3     1  UNL1        0.1819
     19 H          12.3673   83.2576   28.9417 H       1  UNL1        0.2922
     20 H          11.9839   80.2377   28.7675 H       1  UNL1        0.2922
     21 C           8.0871   76.9425   23.1557 C.3     1  UNL1        0.1777
     22 C           7.4925   74.7013   22.9295 C.3     1  UNL1        0.1746
     23 O           8.3290   75.6168   23.6043 O.3     1  UNL1       -0.3460
     24 C           8.5760   77.1051   21.7231 C.2     1  UNL1        0.2064
     25 O           9.2381   76.2080   21.2206 O.2     1  UNL1       -0.2909
     26 C           8.2461   78.3193   20.8690 C.3     1  UNL1        0.1970
     27 O           9.1783   78.5133   19.8325 O.3     1  UNL1       -0.3752
     28 H           9.0642   77.7755   19.1806 H       1  UNL1        0.2110
     29 C           6.7982   78.2445   20.3271 C.3     1  UNL1        0.1445
     30 C           6.6319   79.0929   19.0618 C.3     1  UNL1        0.0348
     31 O           6.4527   76.9108   20.0545 O.3     1  UNL1       -0.3815
     32 H           5.4615   76.8714   20.0156 H       1  UNL1        0.2105
     33 O          14.2982   84.4183   24.4465 O.3     1  UNL1       -0.4526
     34 C          13.9675   85.8082   24.3942 C.3     1  UNL1        0.2901
     35 C          15.2741   86.6378   24.2465 C.3     1  UNL1        0.1085
     36 C          15.5167   86.9878   22.7720 C.3     1  UNL1        0.1531
     37 C          14.3148   87.8126   22.2498 C.3     1  UNL1        0.1648
     38 O          14.5166   89.1796   22.5062 O.3     1  UNL1       -0.3795
     39 C          12.9933   87.3614   22.9334 C.3     1  UNL1        0.1480
     40 C          11.7982   87.5556   22.0007 C.3     1  UNL1        0.0349
     41 O          13.0716   85.9962   23.3040 O.3     1  UNL1       -0.3205
     42 H          15.1655   89.5077   21.8299 H       1  UNL1        0.2105
     43 O          15.6011   85.7910   22.0076 O.3     1  UNL1       -0.3301
     44 C          14.9225   85.8933   20.7713 C.3     1  UNL1        0.2376
     45 C          14.8405   84.4850   20.1509 C.3     1  UNL1        0.0931
     46 C          14.6605   84.5340   18.6188 C.3     1  UNL1        0.1446
     47 O          13.8468   83.4735   18.1897 O.3     1  UNL1       -0.3817
     48 C          14.0313   85.8712   18.1961 C.3     1  UNL1        0.1644
     49 O          13.8621   85.9354   16.8015 O.3     1  UNL1       -0.3795
     50 C          14.9059   87.0543   18.7139 C.3     1  UNL1        0.1469
     51 C          14.0822   88.3321   18.8992 C.3     1  UNL1        0.0348
     52 O          15.6335   86.7613   19.9040 O.3     1  UNL1       -0.3304
     53 H          14.3919   82.6474   18.2687 H       1  UNL1        0.2104
     54 H          14.7517   85.8010   16.3812 H       1  UNL1        0.2105
     55 O           7.5993   77.5081   26.1587 O.3     1  UNL1       -0.3249
     56 C           7.4732   76.7514   27.3491 C.3     1  UNL1        0.2380
     57 C           6.4627   77.4927   28.2574 C.3     1  UNL1        0.0935
     58 C           5.0337   77.0833   27.8913 C.3     1  UNL1        0.1519
     59 C           4.8735   75.5513   28.0617 C.3     1  UNL1        0.1648
     60 O           4.2902   75.2863   29.3131 O.3     1  UNL1       -0.3795
     61 C           6.2445   74.8216   27.9648 C.3     1  UNL1        0.1469
     62 C           6.0593   73.3508   27.5904 C.3     1  UNL1        0.0348
     63 O           7.0641   75.4341   26.9881 O.3     1  UNL1       -0.3304
     64 H           3.8222   74.4141   29.2385 H       1  UNL1        0.2105
     65 O           4.7916   77.4387   26.5340 O.3     1  UNL1       -0.3302
     66 C           4.1072   76.4122   25.8351 C.3     1  UNL1        0.2376
     67 C           4.7835   76.1510   24.4773 C.3     1  UNL1        0.0931
     68 C           4.5379   77.3053   23.4980 C.3     1  UNL1        0.1450
     69 O           5.0270   76.9485   22.2318 O.3     1  UNL1       -0.3817
     70 C           3.0354   77.6418   23.4344 C.3     1  UNL1        0.1715
     71 C           2.5380   77.8773   24.8753 C.3     1  UNL1        0.1473
     72 C           1.0571   78.2540   24.9005 C.3     1  UNL1        0.0348
     73 O           2.7273   76.7189   25.6743 O.3     1  UNL1       -0.3304
     74 H           5.0991   77.7873   21.7061 H       1  UNL1        0.2104
     75 O           2.3143   76.5630   22.8513 O.3     1  UNL1       -0.3279
     76 C           2.8997   76.1228   21.6364 C.3     1  UNL1        0.2376
     77 C           2.3535   76.9640   20.4606 C.3     1  UNL1        0.0907
     78 C           2.3820   76.1907   19.1148 C.3     1  UNL1        0.1201
     79 C           2.6070   77.1901   17.9616 C.3     1  UNL1        0.0321
     80 O           1.1334   75.5556   18.9477 O.3     1  UNL1       -0.3841
     81 C           3.5149   75.1312   19.1672 C.3     1  UNL1        0.1620
     82 O           3.5668   74.3839   17.9759 O.3     1  UNL1       -0.3796
     83 C           3.2705   74.1690   20.3666 C.3     1  UNL1        0.1468
     84 C           4.5724   73.5286   20.8599 C.3     1  UNL1        0.0348
     85 O           2.5628   74.7604   21.4541 O.3     1  UNL1       -0.3304
     86 H           1.1336   75.0953   18.0680 H       1  UNL1        0.2103
     87 H           4.1909   74.8512   17.3616 H       1  UNL1        0.2105
@<TRIPOS>BOND
     1    22    23    1
     2    23    21    1
     3    21    24    1
     4    24    25    2
     5    24    26    1
     6    26    27    1
     7    26    29    1
     8    29    30    1
     9    29    31    1
    10    21     1    1
    11     1     2    1
    12     2     3    1
    13     3     4   ar
    14     4     5   ar
    15     5     6   ar
    16     6     7   ar
    17     7    33    1
    18    33    34    1
    19    34    35    1
    20    35    36    1
    21    36    43    1
    22    43    44    1
    23    44    45    1
    24    45    46    1
    25    46    47    1
    26    46    48    1
    27    48    49    1
    28    48    50    1
    29    50    51    1
    30    50    52    1
    31    36    37    1
    32    37    38    1
    33    37    39    1
    34    39    40    1
    35    39    41    1
    36     7     8   ar
    37     8     9    1
    38     8    10   ar
    39    10    11    1
    40    10    12   ar
    41    12    13   ar
    42    13    14    1
    43    13    15   ar
    44    15    16    1
    45    16    17    2
    46    16    18    1
    47    18    55    1
    48    55    56    1
    49    56    57    1
    50    57    58    1
    51    58    65    1
    52    65    66    1
    53    66    67    1
    54    67    68    1
    55    68    69    1
    56    68    70    1
    57    70    75    1
    58    75    76    1
    59    76    77    1
    60    77    78    1
    61    78    79    1
    62    78    80    1
    63    78    81    1
    64    81    82    1
    65    81    83    1
    66    83    84    1
    67    83    85    1
    68    70    71    1
    69    71    72    1
    70    71    73    1
    71    58    59    1
    72    59    60    1
    73    59    61    1
    74    61    62    1
    75    61    63    1
    76    18     1    1
    77    63    56    1
    78    15     3   ar
    79    73    66    1
    80    12     5   ar
    81    85    76    1
    82    41    34    1
    83    52    44    1
    84    27    28    1
    85    31    32    1
    86    47    53    1
    87    49    54    1
    88    38    42    1
    89    11    19    1
    90    14    20    1
    91    69    74    1
    92    80    86    1
    93    82    87    1
    94    60    64    1
