@<TRIPOS>MOLECULE
*****
 35 38 0 0 0
SMALL
GASTEIGER

@<TRIPOS>ATOM
      1 N         -29.2624   46.9875   -5.8927 N.am    1  UNL1       -0.2685
      2 C         -28.5069   46.6170   -7.0610 C.2     1  UNL1        0.2672
      3 O         -28.5276   45.4199   -7.4577 O.2     1  UNL1       -0.2682
      4 C         -27.6785   47.6144   -7.7697 C.ar    1  UNL1        0.1347
      5 C         -26.6476   48.2998   -7.1111 C.ar    1  UNL1        0.0238
      6 C         -25.8930   49.2524   -7.8088 C.ar    1  UNL1        0.0040
      7 C         -24.8556   49.9441   -7.1659 C.ar    1  UNL1        0.0002
      8 C         -24.1066   50.8923   -7.8643 C.ar    1  UNL1        0.0009
      9 C         -24.3846   51.1588   -9.2060 C.ar    1  UNL1        0.0114
     10 C         -25.4156   50.4804   -9.8669 C.ar    1  UNL1        0.0591
     11 CL        -25.7094   50.8690  -11.5603 Cl      1  UNL1       -0.0822
     12 C         -26.1802   49.5182   -9.1699 C.ar    1  UNL1        0.0298
     13 C         -27.2269   48.8084   -9.7825 C.ar    1  UNL1        0.0998
     14 N         -27.9376   47.8920   -9.0757 N.ar    1  UNL1       -0.2392
     15 C         -31.3384   47.6938   -7.0798 C.3     1  UNL1        0.0265
     16 C         -30.2916   48.0394   -6.0079 C.3     1  UNL1        0.1007
     17 C         -29.6377   49.4023   -6.1871 C.ar    1  UNL1        0.0234
     18 C         -29.5842   50.0487   -7.4404 C.ar    1  UNL1        0.0019
     19 C         -28.9359   51.2793   -7.5783 C.ar    1  UNL1        0.0295
     20 C         -28.3203   51.8756   -6.4770 C.ar    1  UNL1        0.1424
     21 F         -27.6902   53.0682   -6.6152 F       1  UNL1       -0.2041
     22 C         -28.3457   51.2388   -5.2353 C.ar    1  UNL1        0.0590
     23 C         -28.9920   50.0075   -5.0882 C.ar    1  UNL1        0.1399
     24 F         -28.9810   49.4034   -3.8724 F       1  UNL1       -0.2044
     25 C         -29.1688   46.1315   -4.6999 C.3     1  UNL1        0.1207
     26 C         -27.8251   46.3017   -4.0398 C.ar    1  UNL1       -0.0021
     27 C         -26.9174   45.2327   -3.9936 C.ar    1  UNL1       -0.0026
     28 C         -25.6535   45.4075   -3.4276 C.ar    1  UNL1       -0.0001
     29 C         -25.2800   46.6506   -2.9116 C.ar    1  UNL1        0.0064
     30 C         -26.1716   47.7370   -2.9581 C.ar    1  UNL1        0.0752
     31 C         -27.4444   47.5520   -3.5262 C.ar    1  UNL1        0.0038
     32 C         -25.7778   49.0594   -2.4237 C.2     1  UNL1        0.3380
     33 O         -25.9089   50.0975   -3.1274 O.2     1  UNL1       -0.2451
     34 O         -25.2590   49.1702   -1.1360 O.3     1  UNL1       -0.4771
     35 H         -24.9873   50.0708   -0.7601 H       1  UNL1        0.2954
@<TRIPOS>BOND
     1    15    16    1
     2    16    17    1
     3    17    18   ar
     4    18    19   ar
     5    19    20   ar
     6    20    21    1
     7    20    22   ar
     8    22    23   ar
     9    23    24    1
    10    16     1    1
    11     1    25    1
    12    25    26    1
    13    26    27   ar
    14    27    28   ar
    15    28    29   ar
    16    29    30   ar
    17    30    32    1
    18    32    33    2
    19    32    34    1
    20    30    31   ar
    21     1     2   am
    22     2     3    2
    23     2     4    1
    24     4     5   ar
    25     5     6   ar
    26     6     7   ar
    27     7     8   ar
    28     8     9   ar
    29     9    10   ar
    30    10    11    1
    31    10    12   ar
    32    12    13   ar
    33    13    14   ar
    34    23    17   ar
    35    31    26   ar
    36    14     4   ar
    37    12     6   ar
    38    34    35    1
@<TRIPOS>MOLECULE
*****
 35 38 0 0 0
SMALL
GASTEIGER

@<TRIPOS>ATOM
      1 N         -28.1887   49.4842   -7.0742 N.am    1  UNL1       -0.2685
      2 C         -27.2484   48.9901   -8.0461 C.2     1  UNL1        0.2672
      3 O         -27.4426   47.8630   -8.5780 O.2     1  UNL1       -0.2682
      4 C         -26.0422   49.7704   -8.3915 C.ar    1  UNL1        0.1347
      5 C         -25.8188   50.2176   -9.7016 C.ar    1  UNL1        0.0238
      6 C         -24.6554   50.9400   -9.9982 C.ar    1  UNL1        0.0040
      7 C         -24.4185   51.3980  -11.3028 C.ar    1  UNL1        0.0002
      8 C         -23.2583   52.1169  -11.5941 C.ar    1  UNL1        0.0009
      9 C         -22.3262   52.3847  -10.5900 C.ar    1  UNL1        0.0114
     10 C         -22.5423   51.9367   -9.2814 C.ar    1  UNL1        0.0591
     11 CL        -21.3224   52.3114   -8.0664 Cl      1  UNL1       -0.0822
     12 C         -23.7135   51.2083   -8.9750 C.ar    1  UNL1        0.0298
     13 C         -23.9814   50.7335   -7.6798 C.ar    1  UNL1        0.0998
     14 N         -25.1196   50.0366   -7.4283 N.ar    1  UNL1       -0.2392
     15 C         -29.9213   51.0746   -6.2457 C.3     1  UNL1        0.0265
     16 C         -28.8629   50.7742   -7.3198 C.3     1  UNL1        0.1007
     17 C         -29.3852   50.8349   -8.7484 C.ar    1  UNL1        0.0234
     18 C         -30.4197   49.9904   -9.2044 C.ar    1  UNL1        0.0019
     19 C         -30.8442   50.0412  -10.5351 C.ar    1  UNL1        0.0295
     20 C         -30.2366   50.9204  -11.4325 C.ar    1  UNL1        0.1424
     21 F         -30.6493   50.9650  -12.7233 F       1  UNL1       -0.2041
     22 C         -29.1974   51.7469  -11.0025 C.ar    1  UNL1        0.0590
     23 C         -28.7665   51.7027   -9.6728 C.ar    1  UNL1        0.1399
     24 F         -27.7393   52.5040   -9.2906 F       1  UNL1       -0.2044
     25 C         -28.6386   48.5723   -6.0111 C.3     1  UNL1        0.1207
     26 C         -27.5953   48.4788   -4.9279 C.ar    1  UNL1       -0.0021
     27 C         -27.2499   49.6123   -4.1766 C.ar    1  UNL1       -0.0026
     28 C         -26.3210   49.5122   -3.1394 C.ar    1  UNL1       -0.0001
     29 C         -25.7357   48.2807   -2.8363 C.ar    1  UNL1        0.0064
     30 C         -26.0766   47.1311   -3.5709 C.ar    1  UNL1        0.0752
     31 C         -27.0101   47.2408   -4.6166 C.ar    1  UNL1        0.0038
     32 C         -25.4689   45.8214   -3.2472 C.2     1  UNL1        0.3380
     33 O         -25.3540   44.9336   -4.1353 O.2     1  UNL1       -0.2451
     34 O         -25.0161   45.5570   -1.9571 O.3     1  UNL1       -0.4771
     35 H         -24.5975   44.6642   -1.7251 H       1  UNL1        0.2954
@<TRIPOS>BOND
     1    15    16    1
     2    16    17    1
     3    17    18   ar
     4    18    19   ar
     5    19    20   ar
     6    20    21    1
     7    20    22   ar
     8    22    23   ar
     9    23    24    1
    10    16     1    1
    11     1    25    1
    12    25    26    1
    13    26    27   ar
    14    27    28   ar
    15    28    29   ar
    16    29    30   ar
    17    30    32    1
    18    32    33    2
    19    32    34    1
    20    30    31   ar
    21     1     2   am
    22     2     3    2
    23     2     4    1
    24     4     5   ar
    25     5     6   ar
    26     6     7   ar
    27     7     8   ar
    28     8     9   ar
    29     9    10   ar
    30    10    11    1
    31    10    12   ar
    32    12    13   ar
    33    13    14   ar
    34    23    17   ar
    35    31    26   ar
    36    14     4   ar
    37    12     6   ar
    38    34    35    1
@<TRIPOS>MOLECULE
*****
 35 38 0 0 0
SMALL
GASTEIGER

@<TRIPOS>ATOM
      1 N         -29.2327   48.7107   -4.7250 N.am    1  UNL1       -0.2685
      2 C         -30.4053   48.3830   -5.4935 C.2     1  UNL1        0.2672
      3 O         -31.5308   48.3571   -4.9248 O.2     1  UNL1       -0.2682
      4 C         -30.2948   48.0374   -6.9258 C.ar    1  UNL1        0.1347
      5 C         -29.5269   46.9436   -7.3503 C.ar    1  UNL1        0.0238
      6 C         -29.4292   46.6548   -8.7180 C.ar    1  UNL1        0.0040
      7 C         -28.6684   45.5620   -9.1592 C.ar    1  UNL1        0.0002
      8 C         -28.5734   45.2780  -10.5223 C.ar    1  UNL1        0.0009
      9 C         -29.2342   46.0790  -11.4552 C.ar    1  UNL1        0.0114
     10 C         -29.9986   47.1747  -11.0370 C.ar    1  UNL1        0.0591
     11 CL        -30.8041   48.1411  -12.2707 Cl      1  UNL1       -0.0822
     12 C         -30.1020   47.4715   -9.6595 C.ar    1  UNL1        0.0298
     13 C         -30.8541   48.5588   -9.1833 C.ar    1  UNL1        0.0998
     14 N         -30.9267   48.8091   -7.8504 N.ar    1  UNL1       -0.2392
     15 C         -29.2103   51.1741   -5.1106 C.3     1  UNL1        0.0265
     16 C         -28.4064   49.8636   -5.1337 C.3     1  UNL1        0.1007
     17 C         -27.7150   49.5759   -6.4590 C.ar    1  UNL1        0.0234
     18 C         -28.0642   50.2505   -7.6482 C.ar    1  UNL1        0.0019
     19 C         -27.4402   49.9294   -8.8570 C.ar    1  UNL1        0.0295
     20 C         -26.4728   48.9247   -8.9023 C.ar    1  UNL1        0.1424
     21 F         -25.8715   48.6143  -10.0772 F       1  UNL1       -0.2041
     22 C         -26.1315   48.2333   -7.7388 C.ar    1  UNL1        0.0590
     23 C         -26.7507   48.5481   -6.5252 C.ar    1  UNL1        0.1399
     24 F         -26.4122   47.8431   -5.4154 F       1  UNL1       -0.2044
     25 C         -29.0469   48.0561   -3.4207 C.3     1  UNL1        0.1207
     26 C         -28.3596   46.7269   -3.5972 C.ar    1  UNL1       -0.0021
     27 C         -28.8738   45.7762   -4.4920 C.ar    1  UNL1       -0.0026
     28 C         -28.2069   44.5665   -4.6924 C.ar    1  UNL1       -0.0001
     29 C         -27.0180   44.2976   -4.0104 C.ar    1  UNL1        0.0064
     30 C         -26.4811   45.2419   -3.1174 C.ar    1  UNL1        0.0752
     31 C         -27.1607   46.4566   -2.9179 C.ar    1  UNL1        0.0038
     32 C         -25.2159   44.9681   -2.4007 C.2     1  UNL1        0.3380
     33 O         -25.1802   44.1183   -1.4698 O.2     1  UNL1       -0.2451
     34 O         -24.0506   45.6465   -2.7489 O.3     1  UNL1       -0.4771
     35 H         -23.1789   45.4658   -2.2654 H       1  UNL1        0.2954
@<TRIPOS>BOND
     1    15    16    1
     2    16    17    1
     3    17    18   ar
     4    18    19   ar
     5    19    20   ar
     6    20    21    1
     7    20    22   ar
     8    22    23   ar
     9    23    24    1
    10    16     1    1
    11     1    25    1
    12    25    26    1
    13    26    27   ar
    14    27    28   ar
    15    28    29   ar
    16    29    30   ar
    17    30    32    1
    18    32    33    2
    19    32    34    1
    20    30    31   ar
    21     1     2   am
    22     2     3    2
    23     2     4    1
    24     4     5   ar
    25     5     6   ar
    26     6     7   ar
    27     7     8   ar
    28     8     9   ar
    29     9    10   ar
    30    10    11    1
    31    10    12   ar
    32    12    13   ar
    33    13    14   ar
    34    23    17   ar
    35    31    26   ar
    36    14     4   ar
    37    12     6   ar
    38    34    35    1
@<TRIPOS>MOLECULE
*****
 35 38 0 0 0
SMALL
GASTEIGER

@<TRIPOS>ATOM
      1 N         -29.3055   48.6865   -8.8349 N.am    1  UNL1       -0.2685
      2 C         -29.0622   47.4184   -8.1981 C.2     1  UNL1        0.2672
      3 O         -29.4424   46.3578   -8.7651 O.2     1  UNL1       -0.2682
      4 C         -28.4118   47.3537   -6.8729 C.ar    1  UNL1        0.1347
      5 C         -29.0111   47.9277   -5.7426 C.ar    1  UNL1        0.0238
      6 C         -28.3581   47.8635   -4.5044 C.ar    1  UNL1        0.0040
      7 C         -28.9457   48.4292   -3.3631 C.ar    1  UNL1        0.0002
      8 C         -28.2919   48.3635   -2.1318 C.ar    1  UNL1        0.0009
      9 C         -27.0498   47.7351   -2.0278 C.ar    1  UNL1        0.0114
     10 C         -26.4451   47.1644   -3.1541 C.ar    1  UNL1        0.0591
     11 CL        -24.8767   46.3884   -2.9474 Cl      1  UNL1       -0.0822
     12 C         -27.0979   47.2247   -4.4056 C.ar    1  UNL1        0.0298
     13 C         -26.5375   46.6701   -5.5688 C.ar    1  UNL1        0.0998
     14 N         -27.1987   46.7507   -6.7523 N.ar    1  UNL1       -0.2392
     15 C         -27.0642   48.8169   -9.9198 C.3     1  UNL1        0.0265
     16 C         -28.1606   49.5654   -9.1440 C.3     1  UNL1        0.1007
     17 C         -27.6712   50.2607   -7.8813 C.ar    1  UNL1        0.0234
     18 C         -26.3805   50.0383   -7.3558 C.ar    1  UNL1        0.0019
     19 C         -25.9797   50.6586   -6.1691 C.ar    1  UNL1        0.0295
     20 C         -26.8603   51.4954   -5.4824 C.ar    1  UNL1        0.1424
     21 F         -26.4688   52.0933   -4.3302 F       1  UNL1       -0.2041
     22 C         -28.1477   51.7086   -5.9775 C.ar    1  UNL1        0.0590
     23 C         -28.5571   51.0921   -7.1641 C.ar    1  UNL1        0.1399
     24 F         -29.8226   51.3028   -7.6084 F       1  UNL1       -0.2044
     25 C         -30.6437   48.9443   -9.3892 C.3     1  UNL1        0.1207
     26 C         -30.5309   49.5958  -10.7431 C.ar    1  UNL1       -0.0021
     27 C         -30.4458   48.8107  -11.9028 C.ar    1  UNL1       -0.0026
     28 C         -30.3935   49.4160  -13.1596 C.ar    1  UNL1       -0.0001
     29 C         -30.4347   50.8076  -13.2719 C.ar    1  UNL1        0.0064
     30 C         -30.5305   51.6115  -12.1221 C.ar    1  UNL1        0.0752
     31 C         -30.5787   50.9945  -10.8595 C.ar    1  UNL1        0.0038
     32 C         -30.5862   53.0858  -12.2349 C.2     1  UNL1        0.3380
     33 O         -31.5702   53.7249  -11.7732 O.2     1  UNL1       -0.2451
     34 O         -29.5502   53.7825  -12.8520 O.3     1  UNL1       -0.4771
     35 H         -29.5779   54.7918  -12.9336 H       1  UNL1        0.2954
@<TRIPOS>BOND
     1    15    16    1
     2    16    17    1
     3    17    18   ar
     4    18    19   ar
     5    19    20   ar
     6    20    21    1
     7    20    22   ar
     8    22    23   ar
     9    23    24    1
    10    16     1    1
    11     1    25    1
    12    25    26    1
    13    26    27   ar
    14    27    28   ar
    15    28    29   ar
    16    29    30   ar
    17    30    32    1
    18    32    33    2
    19    32    34    1
    20    30    31   ar
    21     1     2   am
    22     2     3    2
    23     2     4    1
    24     4     5   ar
    25     5     6   ar
    26     6     7   ar
    27     7     8   ar
    28     8     9   ar
    29     9    10   ar
    30    10    11    1
    31    10    12   ar
    32    12    13   ar
    33    13    14   ar
    34    23    17   ar
    35    31    26   ar
    36    14     4   ar
    37    12     6   ar
    38    34    35    1
@<TRIPOS>MOLECULE
*****
 35 38 0 0 0
SMALL
GASTEIGER

@<TRIPOS>ATOM
      1 N         -29.3635   46.4720   -6.4667 N.am    1  UNL1       -0.2685
      2 C         -28.7231   46.5807   -7.7516 C.2     1  UNL1        0.2672
      3 O         -28.9460   45.7040   -8.6306 O.2     1  UNL1       -0.2682
      4 C         -27.7793   47.6825   -8.0318 C.ar    1  UNL1        0.1347
      5 C         -28.0408   48.6224   -9.0391 C.ar    1  UNL1        0.0238
      6 C         -27.1154   49.6442   -9.2902 C.ar    1  UNL1        0.0040
      7 C         -27.3635   50.5947  -10.2916 C.ar    1  UNL1        0.0002
      8 C         -26.4391   51.6107  -10.5389 C.ar    1  UNL1        0.0009
      9 C         -25.2622   51.6877   -9.7922 C.ar    1  UNL1        0.0114
     10 C         -24.9944   50.7493   -8.7884 C.ar    1  UNL1        0.0591
     11 CL        -23.4888   50.9088   -7.8870 Cl      1  UNL1       -0.0822
     12 C         -25.9231   49.7167   -8.5292 C.ar    1  UNL1        0.0298
     13 C         -25.7057   48.7476   -7.5350 C.ar    1  UNL1        0.0998
     14 N         -26.6245   47.7711   -7.3188 N.ar    1  UNL1       -0.2392
     15 C         -31.5020   47.6997   -6.8371 C.3     1  UNL1        0.0265
     16 C         -30.2204   47.5781   -5.9964 C.3     1  UNL1        0.1007
     17 C         -29.4141   48.8652   -5.8934 C.ar    1  UNL1        0.0234
     18 C         -29.6484   49.9662   -6.7444 C.ar    1  UNL1        0.0019
     19 C         -28.8590   51.1160   -6.6527 C.ar    1  UNL1        0.0295
     20 C         -27.8183   51.1808   -5.7252 C.ar    1  UNL1        0.1424
     21 F         -27.0531   52.2969   -5.6409 F       1  UNL1       -0.2041
     22 C         -27.5599   50.0921   -4.8910 C.ar    1  UNL1        0.0590
     23 C         -28.3446   48.9377   -4.9760 C.ar    1  UNL1        0.1399
     24 F         -28.0546   47.8879   -4.1655 F       1  UNL1       -0.2044
     25 C         -29.3556   45.1653   -5.7908 C.3     1  UNL1        0.1207
     26 C         -28.8724   45.3151   -4.3715 C.ar    1  UNL1       -0.0021
     27 C         -29.7822   45.5827   -3.3373 C.ar    1  UNL1       -0.0026
     28 C         -29.3395   45.6697   -2.0164 C.ar    1  UNL1       -0.0001
     29 C         -27.9889   45.4820   -1.7137 C.ar    1  UNL1        0.0064
     30 C         -27.0633   45.2026   -2.7348 C.ar    1  UNL1        0.0752
     31 C         -27.5162   45.1203   -4.0634 C.ar    1  UNL1        0.0038
     32 C         -25.6332   44.9912   -2.4194 C.2     1  UNL1        0.3380
     33 O         -24.7382   45.3935   -3.2113 O.2     1  UNL1       -0.2451
     34 O         -25.2616   44.3462   -1.2424 O.3     1  UNL1       -0.4771
     35 H         -24.2854   44.1973   -1.0163 H       1  UNL1        0.2954
@<TRIPOS>BOND
     1    15    16    1
     2    16    17    1
     3    17    18   ar
     4    18    19   ar
     5    19    20   ar
     6    20    21    1
     7    20    22   ar
     8    22    23   ar
     9    23    24    1
    10    16     1    1
    11     1    25    1
    12    25    26    1
    13    26    27   ar
    14    27    28   ar
    15    28    29   ar
    16    29    30   ar
    17    30    32    1
    18    32    33    2
    19    32    34    1
    20    30    31   ar
    21     1     2   am
    22     2     3    2
    23     2     4    1
    24     4     5   ar
    25     5     6   ar
    26     6     7   ar
    27     7     8   ar
    28     8     9   ar
    29     9    10   ar
    30    10    11    1
    31    10    12   ar
    32    12    13   ar
    33    13    14   ar
    34    23    17   ar
    35    31    26   ar
    36    14     4   ar
    37    12     6   ar
    38    34    35    1
@<TRIPOS>MOLECULE
*****
 35 38 0 0 0
SMALL
GASTEIGER

@<TRIPOS>ATOM
      1 N         -27.7485   46.9977   -7.3914 N.am    1  UNL1       -0.2685
      2 C         -29.0642   46.8332   -6.8304 C.2     1  UNL1        0.2672
      3 O         -29.7392   45.8092   -7.1250 O.2     1  UNL1       -0.2682
      4 C         -29.6428   47.8698   -5.9506 C.ar    1  UNL1        0.1347
      5 C         -29.9127   49.1594   -6.4304 C.ar    1  UNL1        0.0238
      6 C         -30.4449   50.1236   -5.5640 C.ar    1  UNL1        0.0040
      7 C         -30.7244   51.4172   -6.0289 C.ar    1  UNL1        0.0002
      8 C         -31.2542   52.3747   -5.1627 C.ar    1  UNL1        0.0009
      9 C         -31.5091   52.0519   -3.8288 C.ar    1  UNL1        0.0114
     10 C         -31.2373   50.7671   -3.3437 C.ar    1  UNL1        0.0591
     11 CL        -31.5841   50.4320   -1.6489 Cl      1  UNL1       -0.0822
     12 C         -30.7012   49.7897   -4.2117 C.ar    1  UNL1        0.0298
     13 C         -30.4081   48.4853   -3.7789 C.ar    1  UNL1        0.0998
     14 N         -29.8929   47.5762   -4.6464 N.ar    1  UNL1       -0.2392
     15 C         -26.5745   46.0346   -5.4136 C.3     1  UNL1        0.0265
     16 C         -26.5938   47.1395   -6.4828 C.3     1  UNL1        0.1007
     17 C         -26.5310   48.5538   -5.9235 C.ar    1  UNL1        0.0234
     18 C         -26.9122   48.8531   -4.5982 C.ar    1  UNL1        0.0019
     19 C         -26.8852   50.1701   -4.1310 C.ar    1  UNL1        0.0295
     20 C         -26.4937   51.2075   -4.9783 C.ar    1  UNL1        0.1424
     21 F         -26.4712   52.4842   -4.5223 F       1  UNL1       -0.2041
     22 C         -26.1343   50.9309   -6.2983 C.ar    1  UNL1        0.0590
     23 C         -26.1584   49.6161   -6.7740 C.ar    1  UNL1        0.1399
     24 F         -25.8237   49.3822   -8.0688 F       1  UNL1       -0.2044
     25 C         -27.5680   46.7562   -8.8314 C.3     1  UNL1        0.1207
     26 C         -28.3653   47.7534   -9.6315 C.ar    1  UNL1       -0.0021
     27 C         -29.4633   47.3325  -10.3970 C.ar    1  UNL1       -0.0026
     28 C         -30.2318   48.2647  -11.0962 C.ar    1  UNL1       -0.0001
     29 C         -29.9185   49.6243  -11.0312 C.ar    1  UNL1        0.0064
     30 C         -28.8285   50.0671  -10.2611 C.ar    1  UNL1        0.0752
     31 C         -28.0567   49.1216   -9.5628 C.ar    1  UNL1        0.0038
     32 C         -28.4985   51.5072  -10.1788 C.2     1  UNL1        0.3380
     33 O         -28.7363   52.2735  -11.1515 O.2     1  UNL1       -0.2451
     34 O         -27.9224   52.0306   -9.0240 O.3     1  UNL1       -0.4771
     35 H         -27.6936   53.0152   -8.9568 H       1  UNL1        0.2954
@<TRIPOS>BOND
     1    15    16    1
     2    16    17    1
     3    17    18   ar
     4    18    19   ar
     5    19    20   ar
     6    20    21    1
     7    20    22   ar
     8    22    23   ar
     9    23    24    1
    10    16     1    1
    11     1    25    1
    12    25    26    1
    13    26    27   ar
    14    27    28   ar
    15    28    29   ar
    16    29    30   ar
    17    30    32    1
    18    32    33    2
    19    32    34    1
    20    30    31   ar
    21     1     2   am
    22     2     3    2
    23     2     4    1
    24     4     5   ar
    25     5     6   ar
    26     6     7   ar
    27     7     8   ar
    28     8     9   ar
    29     9    10   ar
    30    10    11    1
    31    10    12   ar
    32    12    13   ar
    33    13    14   ar
    34    23    17   ar
    35    31    26   ar
    36    14     4   ar
    37    12     6   ar
    38    34    35    1
@<TRIPOS>MOLECULE
*****
 35 38 0 0 0
SMALL
GASTEIGER

@<TRIPOS>ATOM
      1 N         -28.3143   49.4479   -4.4531 N.am    1  UNL1       -0.2685
      2 C         -29.4304   50.0956   -5.0917 C.2     1  UNL1        0.2672
      3 O         -30.2755   50.7111   -4.3861 O.2     1  UNL1       -0.2682
      4 C         -29.6149   50.0089   -6.5552 C.ar    1  UNL1        0.1347
      5 C         -29.7866   48.7715   -7.1920 C.ar    1  UNL1        0.0238
      6 C         -29.9411   48.7243   -8.5839 C.ar    1  UNL1        0.0040
      7 C         -30.1177   47.4950   -9.2363 C.ar    1  UNL1        0.0002
      8 C         -30.2709   47.4523  -10.6228 C.ar    1  UNL1        0.0009
      9 C         -30.2491   48.6316  -11.3694 C.ar    1  UNL1        0.0114
     10 C         -30.0737   49.8692  -10.7389 C.ar    1  UNL1        0.0591
     11 CL        -30.0563   51.3155  -11.7452 Cl      1  UNL1       -0.0822
     12 C         -29.9179   49.9244   -9.3357 C.ar    1  UNL1        0.0298
     13 C         -29.7376   51.1380   -8.6506 C.ar    1  UNL1        0.0998
     14 N         -29.5911   51.1464   -7.3005 N.ar    1  UNL1       -0.2392
     15 C         -26.6474   51.3021   -4.4841 C.3     1  UNL1        0.0265
     16 C         -26.9433   49.8356   -4.8391 C.3     1  UNL1        0.1007
     17 C         -26.6825   49.4786   -6.2957 C.ar    1  UNL1        0.0234
     18 C         -26.5573   48.1413   -6.7285 C.ar    1  UNL1        0.0019
     19 C         -26.2727   47.8507   -8.0657 C.ar    1  UNL1        0.0295
     20 C         -26.0943   48.8845   -8.9860 C.ar    1  UNL1        0.1424
     21 F         -25.8158   48.5988  -10.2818 F       1  UNL1       -0.2041
     22 C         -26.1936   50.2129   -8.5694 C.ar    1  UNL1        0.0590
     23 C         -26.4781   50.5127   -7.2335 C.ar    1  UNL1        0.1399
     24 F         -26.5472   51.8147   -6.8551 F       1  UNL1       -0.2044
     25 C         -28.5732   48.6219   -3.2636 C.3     1  UNL1        0.1207
     26 C         -28.0671   47.2196   -3.4820 C.ar    1  UNL1       -0.0021
     27 C         -28.7106   46.3675   -4.3922 C.ar    1  UNL1       -0.0026
     28 C         -28.2095   45.0868   -4.6314 C.ar    1  UNL1       -0.0001
     29 C         -27.0585   44.6479   -3.9729 C.ar    1  UNL1        0.0064
     30 C         -26.3933   45.4908   -3.0650 C.ar    1  UNL1        0.0752
     31 C         -26.9064   46.7781   -2.8264 C.ar    1  UNL1        0.0038
     32 C         -25.1670   45.0362   -2.3729 C.2     1  UNL1        0.3380
     33 O         -24.0373   45.4751   -2.7208 O.2     1  UNL1       -0.2451
     34 O         -25.2494   44.1188   -1.3284 O.3     1  UNL1       -0.4771
     35 H         -24.4162   43.8017   -0.8472 H       1  UNL1        0.2954
@<TRIPOS>BOND
     1    15    16    1
     2    16    17    1
     3    17    18   ar
     4    18    19   ar
     5    19    20   ar
     6    20    21    1
     7    20    22   ar
     8    22    23   ar
     9    23    24    1
    10    16     1    1
    11     1    25    1
    12    25    26    1
    13    26    27   ar
    14    27    28   ar
    15    28    29   ar
    16    29    30   ar
    17    30    32    1
    18    32    33    2
    19    32    34    1
    20    30    31   ar
    21     1     2   am
    22     2     3    2
    23     2     4    1
    24     4     5   ar
    25     5     6   ar
    26     6     7   ar
    27     7     8   ar
    28     8     9   ar
    29     9    10   ar
    30    10    11    1
    31    10    12   ar
    32    12    13   ar
    33    13    14   ar
    34    23    17   ar
    35    31    26   ar
    36    14     4   ar
    37    12     6   ar
    38    34    35    1
@<TRIPOS>MOLECULE
*****
 35 38 0 0 0
SMALL
GASTEIGER

@<TRIPOS>ATOM
      1 N         -29.0433   51.1117   -6.7935 N.am    1  UNL1       -0.2685
      2 C         -29.6235   51.1311   -5.4760 C.2     1  UNL1        0.2672
      3 O         -30.1226   52.2023   -5.0350 O.2     1  UNL1       -0.2682
      4 C         -29.6008   49.9233   -4.6252 C.ar    1  UNL1        0.1347
      5 C         -28.3927   49.2938   -4.2925 C.ar    1  UNL1        0.0238
      6 C         -28.4088   48.1395   -3.4982 C.ar    1  UNL1        0.0040
      7 C         -27.2091   47.4998   -3.1530 C.ar    1  UNL1        0.0002
      8 C         -27.2295   46.3502   -2.3620 C.ar    1  UNL1        0.0009
      9 C         -28.4430   45.8294   -1.9095 C.ar    1  UNL1        0.0114
     10 C         -29.6521   46.4516   -2.2424 C.ar    1  UNL1        0.0591
     11 CL        -31.1445   45.7376   -1.6360 Cl      1  UNL1       -0.0822
     12 C         -29.6434   47.6161   -3.0424 C.ar    1  UNL1        0.0298
     13 C         -30.8262   48.2809   -3.4080 C.ar    1  UNL1        0.0998
     14 N         -30.7731   49.3975   -4.1792 N.ar    1  UNL1       -0.2392
     15 C         -30.9765   49.6671   -7.4206 C.3     1  UNL1        0.0265
     16 C         -29.5712   50.1654   -7.7959 C.3     1  UNL1        0.1007
     17 C         -28.5626   49.0560   -8.0590 C.ar    1  UNL1        0.0234
     18 C         -28.2043   48.1183   -7.0672 C.ar    1  UNL1        0.0019
     19 C         -27.2408   47.1401   -7.3288 C.ar    1  UNL1        0.0295
     20 C         -26.6108   47.0904   -8.5730 C.ar    1  UNL1        0.1424
     21 F         -25.6748   46.1417   -8.8221 F       1  UNL1       -0.2041
     22 C         -26.9383   48.0241   -9.5574 C.ar    1  UNL1        0.0590
     23 C         -27.9012   49.0061   -9.3043 C.ar    1  UNL1        0.1399
     24 F         -28.1823   49.9128  -10.2749 F       1  UNL1       -0.2044
     25 C         -28.1341   52.2045   -7.1725 C.3     1  UNL1        0.1207
     26 C         -26.7707   51.6567   -7.5062 C.ar    1  UNL1       -0.0021
     27 C         -26.0785   50.8642   -6.5780 C.ar    1  UNL1       -0.0026
     28 C         -24.8385   50.3151   -6.9087 C.ar    1  UNL1       -0.0001
     29 C         -24.2823   50.5431   -8.1695 C.ar    1  UNL1        0.0064
     30 C         -24.9654   51.3258   -9.1172 C.ar    1  UNL1        0.0752
     31 C         -26.2121   51.8788   -8.7753 C.ar    1  UNL1        0.0038
     32 C         -24.3870   51.5616  -10.4586 C.2     1  UNL1        0.3380
     33 O         -23.6524   52.5643  -10.6702 O.2     1  UNL1       -0.2451
     34 O         -24.6480   50.6760  -11.5013 O.3     1  UNL1       -0.4771
     35 H         -24.2562   50.8275  -12.4231 H       1  UNL1        0.2954
@<TRIPOS>BOND
     1    15    16    1
     2    16    17    1
     3    17    18   ar
     4    18    19   ar
     5    19    20   ar
     6    20    21    1
     7    20    22   ar
     8    22    23   ar
     9    23    24    1
    10    16     1    1
    11     1    25    1
    12    25    26    1
    13    26    27   ar
    14    27    28   ar
    15    28    29   ar
    16    29    30   ar
    17    30    32    1
    18    32    33    2
    19    32    34    1
    20    30    31   ar
    21     1     2   am
    22     2     3    2
    23     2     4    1
    24     4     5   ar
    25     5     6   ar
    26     6     7   ar
    27     7     8   ar
    28     8     9   ar
    29     9    10   ar
    30    10    11    1
    31    10    12   ar
    32    12    13   ar
    33    13    14   ar
    34    23    17   ar
    35    31    26   ar
    36    14     4   ar
    37    12     6   ar
    38    34    35    1
@<TRIPOS>MOLECULE
*****
 35 38 0 0 0
SMALL
GASTEIGER

@<TRIPOS>ATOM
      1 N         -28.1359   47.2224   -7.6832 N.am    1  UNL1       -0.2685
      2 C         -27.8887   46.7065   -9.0045 C.2     1  UNL1        0.2672
      3 O         -26.9450   45.8889   -9.1833 O.2     1  UNL1       -0.2682
      4 C         -28.7009   47.1579  -10.1533 C.ar    1  UNL1        0.1347
      5 C         -28.9971   46.2924  -11.2161 C.ar    1  UNL1        0.0238
      6 C         -29.7550   46.7586  -12.2985 C.ar    1  UNL1        0.0040
      7 C         -30.0635   45.9047  -13.3679 C.ar    1  UNL1        0.0002
      8 C         -30.8184   46.3730  -14.4443 C.ar    1  UNL1        0.0009
      9 C         -31.2711   47.6933  -14.4641 C.ar    1  UNL1        0.0114
     10 C         -30.9745   48.5627  -13.4077 C.ar    1  UNL1        0.0591
     11 CL        -31.5787   50.2152  -13.5013 Cl      1  UNL1       -0.0822
     12 C         -30.2112   48.0993  -12.3127 C.ar    1  UNL1        0.0298
     13 C         -29.8829   48.9278  -11.2262 C.ar    1  UNL1        0.0998
     14 N         -29.1463   48.4423  -10.1936 N.ar    1  UNL1       -0.2392
     15 C         -30.3720   46.1543   -7.9605 C.3     1  UNL1        0.0265
     16 C         -29.4622   47.0156   -7.0690 C.3     1  UNL1        0.1007
     17 C         -30.0689   48.3498   -6.6580 C.ar    1  UNL1        0.0234
     18 C         -30.4402   49.3276   -7.6052 C.ar    1  UNL1        0.0019
     19 C         -30.9526   50.5603   -7.1908 C.ar    1  UNL1        0.0295
     20 C         -31.0885   50.8424   -5.8310 C.ar    1  UNL1        0.1424
     21 F         -31.5835   52.0402   -5.4327 F       1  UNL1       -0.2041
     22 C         -30.7057   49.8942   -4.8811 C.ar    1  UNL1        0.0590
     23 C         -30.1922   48.6583   -5.2868 C.ar    1  UNL1        0.1399
     24 F         -29.8091   47.7655   -4.3385 F       1  UNL1       -0.2044
     25 C         -26.9899   47.7003   -6.8943 C.3     1  UNL1        0.1207
     26 C         -27.0186   49.2032   -6.7901 C.ar    1  UNL1       -0.0021
     27 C         -27.0644   49.8260   -5.5337 C.ar    1  UNL1       -0.0026
     28 C         -27.0388   51.2183   -5.4377 C.ar    1  UNL1       -0.0001
     29 C         -26.9580   52.0012   -6.5916 C.ar    1  UNL1        0.0064
     30 C         -26.9006   51.3956   -7.8594 C.ar    1  UNL1        0.0752
     31 C         -26.9309   49.9927   -7.9482 C.ar    1  UNL1        0.0038
     32 C         -26.8033   52.2190   -9.0850 C.2     1  UNL1        0.3380
     33 O         -27.8098   52.3813   -9.8270 O.2     1  UNL1       -0.2451
     34 O         -25.5976   52.8245   -9.4303 O.3     1  UNL1       -0.4771
     35 H         -25.5204   53.3910  -10.2665 H       1  UNL1        0.2954
@<TRIPOS>BOND
     1    15    16    1
     2    16    17    1
     3    17    18   ar
     4    18    19   ar
     5    19    20   ar
     6    20    21    1
     7    20    22   ar
     8    22    23   ar
     9    23    24    1
    10    16     1    1
    11     1    25    1
    12    25    26    1
    13    26    27   ar
    14    27    28   ar
    15    28    29   ar
    16    29    30   ar
    17    30    32    1
    18    32    33    2
    19    32    34    1
    20    30    31   ar
    21     1     2   am
    22     2     3    2
    23     2     4    1
    24     4     5   ar
    25     5     6   ar
    26     6     7   ar
    27     7     8   ar
    28     8     9   ar
    29     9    10   ar
    30    10    11    1
    31    10    12   ar
    32    12    13   ar
    33    13    14   ar
    34    23    17   ar
    35    31    26   ar
    36    14     4   ar
    37    12     6   ar
    38    34    35    1
