@<TRIPOS>MOLECULE
*****
 34 38 0 0 0
SMALL
GASTEIGER

@<TRIPOS>ATOM
      1 C          50.1268   11.5743  -20.0987 C.2     1  UNL1        0.2494
      2 O          50.9094   11.9455  -21.0160 O.2     1  UNL1       -0.2699
      3 N          48.9474   10.8195  -20.4382 N.am    1  UNL1       -0.2680
      4 C          47.6327   11.2410  -19.9456 C.3     1  UNL1        0.1412
      5 C          46.9758   12.1952  -20.9376 C.3     1  UNL1        0.2268
      6 O          46.6921   11.5512  -22.1784 O.3     1  UNL1       -0.4739
      7 C          47.6691   11.2972  -23.1482 C.ar    1  UNL1        0.1362
      8 C          47.4708   11.8051  -24.4354 C.ar    1  UNL1        0.0366
      9 C          48.4278   11.6102  -25.4321 C.ar    1  UNL1        0.0031
     10 C          49.6002   10.8866  -25.1612 C.ar    1  UNL1       -0.0000
     11 C          49.7858   10.3472  -23.8763 C.ar    1  UNL1        0.0004
     12 C          48.8275   10.5412  -22.8661 C.ar    1  UNL1        0.0317
     13 C          49.0027    9.8534  -21.5364 C.3     1  UNL1        0.1236
     14 C          50.6233   10.6841  -26.2181 C.ar    1  UNL1        0.0015
     15 C          51.7605   11.5365  -26.2942 C.ar    1  UNL1        0.0016
     16 C          52.7356   11.3515  -27.2923 C.ar    1  UNL1        0.0206
     17 C          52.5484   10.3112  -28.1960 C.ar    1  UNL1        0.0985
     18 N          53.3465    9.9545  -29.2183 N.ar    1  UNL1       -0.2241
     19 C          52.6921    8.8909  -29.7551 C.ar    1  UNL1        0.1750
     20 N          51.5396    8.5844  -29.1121 N.ar    1  UNL1       -0.3349
     21 C          51.4646    9.4918  -28.1316 C.ar    1  UNL1        0.0757
     22 C          50.4764    9.6383  -27.1623 C.ar    1  UNL1        0.0185
     23 H          50.8675    7.8167  -29.3335 H       1  UNL1        0.1675
     24 C          48.8619   11.5228  -15.2523 C.3     1  UNL1        0.0324
     25 C          49.8685   11.8748  -16.3158 C.ar    1  UNL1       -0.0046
     26 C          49.5600   11.5824  -17.6564 C.ar    1  UNL1        0.0015
     27 C          50.4522   11.9035  -18.6914 C.ar    1  UNL1        0.0534
     28 C          51.6758   12.5069  -18.3731 C.ar    1  UNL1        0.0058
     29 C          51.9885   12.8159  -17.0495 C.ar    1  UNL1        0.0182
     30 C          51.0915   12.5238  -16.0112 C.ar    1  UNL1        0.1018
     31 S          51.5621   12.9505  -14.3558 S.O2    1  UNL1        0.0101
     32 C          51.7752   11.4693  -13.3929 C.3     1  UNL1        0.1816
     33 O          50.5251   13.8307  -13.7171 O.2     1  UNL1       -0.1686
     34 O          52.8639   13.7021  -14.3791 O.2     1  UNL1       -0.1686
@<TRIPOS>BOND
     1    24    25    1
     2    25    26   ar
     3    26    27   ar
     4    27     1    1
     5     1     2    2
     6     1     3   am
     7     3     4    1
     8     4     5    1
     9     5     6    1
    10     6     7    1
    11     7     8   ar
    12     8     9   ar
    13     9    10   ar
    14    10    14    1
    15    14    15   ar
    16    15    16   ar
    17    16    17   ar
    18    17    18   ar
    19    18    19   ar
    20    19    20   ar
    21    20    21   ar
    22    21    22   ar
    23    10    11   ar
    24    11    12   ar
    25    12    13    1
    26    27    28   ar
    27    28    29   ar
    28    29    30   ar
    29    30    31    1
    30    31    32    1
    31    31    33    2
    32    31    34    2
    33    30    25   ar
    34    13     3    1
    35    12     7   ar
    36    22    14   ar
    37    21    17   ar
    38    20    23    1
@<TRIPOS>MOLECULE
*****
 34 38 0 0 0
SMALL
GASTEIGER

@<TRIPOS>ATOM
      1 C          49.9039   11.1809  -23.3531 C.2     1  UNL1        0.2494
      2 O          49.7473   10.0732  -23.9364 O.2     1  UNL1       -0.2699
      3 N          50.5130   12.2751  -24.0657 N.am    1  UNL1       -0.2680
      4 C          51.6427   13.0019  -23.4788 C.3     1  UNL1        0.1412
      5 C          52.9610   12.3562  -23.8927 C.3     1  UNL1        0.2268
      6 O          53.1768   12.4551  -25.2992 O.3     1  UNL1       -0.4739
      7 C          52.5382   11.6274  -26.2302 C.ar    1  UNL1        0.1362
      8 C          53.3326   10.8791  -27.1039 C.ar    1  UNL1        0.0366
      9 C          52.7497   10.0128  -28.0297 C.ar    1  UNL1        0.0031
     10 C          51.3531    9.8903  -28.1084 C.ar    1  UNL1       -0.0000
     11 C          50.5523   10.6666  -27.2528 C.ar    1  UNL1        0.0004
     12 C          51.1318   11.5399  -26.3158 C.ar    1  UNL1        0.0317
     13 C          50.2451   12.4410  -25.4950 C.3     1  UNL1        0.1236
     14 C          50.7309    8.9637  -29.0878 C.ar    1  UNL1        0.0015
     15 C          49.3417    8.6633  -29.0147 C.ar    1  UNL1        0.0016
     16 C          48.7434    7.7867  -29.9392 C.ar    1  UNL1        0.0206
     17 C          49.5544    7.2284  -30.9213 C.ar    1  UNL1        0.0985
     18 N          49.1971    6.3758  -31.8984 N.ar    1  UNL1       -0.2241
     19 C          50.3670    6.1645  -32.5573 C.ar    1  UNL1        0.1750
     20 N          51.4144    6.8440  -32.0311 N.ar    1  UNL1       -0.3349
     21 C          50.8832    7.5092  -30.9988 C.ar    1  UNL1        0.0757
     22 C          51.5161    8.3695  -30.1061 C.ar    1  UNL1        0.0185
     23 H          52.4060    6.8456  -32.3581 H       1  UNL1        0.1675
     24 C          46.1635   11.9879  -20.1207 C.3     1  UNL1        0.0324
     25 C          47.6252   11.7099  -20.3539 C.ar    1  UNL1       -0.0046
     26 C          48.0816   11.5787  -21.6777 C.ar    1  UNL1        0.0015
     27 C          49.4359   11.3366  -21.9561 C.ar    1  UNL1        0.0534
     28 C          50.3372   11.2056  -20.8918 C.ar    1  UNL1        0.0058
     29 C          49.9012   11.3480  -19.5745 C.ar    1  UNL1        0.0182
     30 C          48.5547   11.6172  -19.2876 C.ar    1  UNL1        0.1018
     31 S          48.0807   11.7869  -17.5874 S.O2    1  UNL1        0.0101
     32 C          49.5157   11.6307  -16.5469 C.3     1  UNL1        0.1816
     33 O          47.0616   10.7482  -17.2121 O.2     1  UNL1       -0.1686
     34 O          47.4701   13.1428  -17.3667 O.2     1  UNL1       -0.1686
@<TRIPOS>BOND
     1    24    25    1
     2    25    26   ar
     3    26    27   ar
     4    27     1    1
     5     1     2    2
     6     1     3   am
     7     3     4    1
     8     4     5    1
     9     5     6    1
    10     6     7    1
    11     7     8   ar
    12     8     9   ar
    13     9    10   ar
    14    10    14    1
    15    14    15   ar
    16    15    16   ar
    17    16    17   ar
    18    17    18   ar
    19    18    19   ar
    20    19    20   ar
    21    20    21   ar
    22    21    22   ar
    23    10    11   ar
    24    11    12   ar
    25    12    13    1
    26    27    28   ar
    27    28    29   ar
    28    29    30   ar
    29    30    31    1
    30    31    32    1
    31    31    33    2
    32    31    34    2
    33    30    25   ar
    34    13     3    1
    35    12     7   ar
    36    22    14   ar
    37    21    17   ar
    38    20    23    1
@<TRIPOS>MOLECULE
*****
 34 38 0 0 0
SMALL
GASTEIGER

@<TRIPOS>ATOM
      1 C          48.5006   11.8139  -23.0847 C.2     1  UNL1        0.2494
      2 O          48.7061   10.7169  -23.6730 O.2     1  UNL1       -0.2699
      3 N          49.2246   12.9871  -23.5036 N.am    1  UNL1       -0.2680
      4 C          49.9445   13.8019  -22.5204 C.3     1  UNL1        0.1412
      5 C          51.3784   13.3050  -22.3681 C.3     1  UNL1        0.2268
      6 O          52.1244   13.4733  -23.5723 O.3     1  UNL1       -0.4739
      7 C          51.9996   12.6188  -24.6740 C.ar    1  UNL1        0.1362
      8 C          53.1496   11.9837  -25.1517 C.ar    1  UNL1        0.0366
      9 C          53.0776   11.0962  -26.2262 C.ar    1  UNL1        0.0031
     10 C          51.8490   10.8383  -26.8550 C.ar    1  UNL1       -0.0000
     11 C          50.6972   11.5013  -26.3967 C.ar    1  UNL1        0.0004
     12 C          50.7610   12.3950  -25.3134 C.ar    1  UNL1        0.0317
     13 C          49.5318   13.1747  -24.9223 C.3     1  UNL1        0.1236
     14 C          51.7687    9.8888  -27.9939 C.ar    1  UNL1        0.0015
     15 C          52.9104    9.6380  -28.8058 C.ar    1  UNL1        0.0016
     16 C          52.8437    8.7391  -29.8868 C.ar    1  UNL1        0.0206
     17 C          51.6285    8.1084  -30.1311 C.ar    1  UNL1        0.0985
     18 N          51.3416    7.2195  -31.0990 N.ar    1  UNL1       -0.2241
     19 C          50.0320    6.9362  -30.8700 C.ar    1  UNL1        0.1750
     20 N          49.5104    7.6065  -29.8144 N.ar    1  UNL1       -0.3349
     21 C          50.5319    8.3421  -29.3609 C.ar    1  UNL1        0.0757
     22 C          50.5526    9.2225  -28.2829 C.ar    1  UNL1        0.0185
     23 H          48.5356    7.5579  -29.4433 H       1  UNL1        0.1675
     24 C          47.4369   11.5978  -18.1946 C.3     1  UNL1        0.0324
     25 C          46.9564   11.7921  -19.6087 C.ar    1  UNL1       -0.0046
     26 C          47.8948   11.7184  -20.6536 C.ar    1  UNL1        0.0015
     27 C          47.5018   11.8741  -21.9921 C.ar    1  UNL1        0.0534
     28 C          46.1546   12.1261  -22.2815 C.ar    1  UNL1        0.0058
     29 C          45.2107   12.1872  -21.2564 C.ar    1  UNL1        0.0182
     30 C          45.5895   12.0056  -19.9180 C.ar    1  UNL1        0.1018
     31 S          44.3295   12.0954  -18.6737 S.O2    1  UNL1        0.0101
     32 C          42.7259   11.9693  -19.4346 C.3     1  UNL1        0.1816
     33 O          44.4307   13.3826  -17.9048 O.2     1  UNL1       -0.1686
     34 O          44.4947   10.9576  -17.7052 O.2     1  UNL1       -0.1686
@<TRIPOS>BOND
     1    24    25    1
     2    25    26   ar
     3    26    27   ar
     4    27     1    1
     5     1     2    2
     6     1     3   am
     7     3     4    1
     8     4     5    1
     9     5     6    1
    10     6     7    1
    11     7     8   ar
    12     8     9   ar
    13     9    10   ar
    14    10    14    1
    15    14    15   ar
    16    15    16   ar
    17    16    17   ar
    18    17    18   ar
    19    18    19   ar
    20    19    20   ar
    21    20    21   ar
    22    21    22   ar
    23    10    11   ar
    24    11    12   ar
    25    12    13    1
    26    27    28   ar
    27    28    29   ar
    28    29    30   ar
    29    30    31    1
    30    31    32    1
    31    31    33    2
    32    31    34    2
    33    30    25   ar
    34    13     3    1
    35    12     7   ar
    36    22    14   ar
    37    21    17   ar
    38    20    23    1
@<TRIPOS>MOLECULE
*****
 34 38 0 0 0
SMALL
GASTEIGER

@<TRIPOS>ATOM
      1 C          50.2585   11.2367  -24.9066 C.2     1  UNL1        0.2494
      2 O          50.5033   10.6813  -23.8005 O.2     1  UNL1       -0.2699
      3 N          49.3919   12.3873  -24.9432 N.am    1  UNL1       -0.2680
      4 C          48.2558   12.4280  -25.8687 C.3     1  UNL1        0.1412
      5 C          47.0101   11.8510  -25.2045 C.3     1  UNL1        0.2268
      6 O          46.5866   12.6467  -24.0989 O.3     1  UNL1       -0.4739
      7 C          47.2101   12.6076  -22.8462 C.ar    1  UNL1        0.1362
      8 C          46.4283   12.3043  -21.7277 C.ar    1  UNL1        0.0366
      9 C          47.0042   12.2194  -20.4594 C.ar    1  UNL1        0.0031
     10 C          48.3777   12.4524  -20.2845 C.ar    1  UNL1       -0.0000
     11 C          49.1590   12.7896  -21.4034 C.ar    1  UNL1        0.0004
     12 C          48.5869   12.8749  -22.6847 C.ar    1  UNL1        0.0317
     13 C          49.4277   13.3505  -23.8418 C.3     1  UNL1        0.1236
     14 C          48.9939   12.3554  -18.9370 C.ar    1  UNL1        0.0015
     15 C          48.2392   11.8714  -17.8317 C.ar    1  UNL1        0.0016
     16 C          48.8153   11.7754  -16.5511 C.ar    1  UNL1        0.0206
     17 C          50.1414   12.1683  -16.4061 C.ar    1  UNL1        0.0985
     18 N          50.8857   12.1588  -15.2857 N.ar    1  UNL1       -0.2241
     19 C          52.0841   12.6350  -15.7154 C.ar    1  UNL1        0.1750
     20 N          52.1053   12.9325  -17.0370 N.ar    1  UNL1       -0.3349
     21 C          50.8706   12.6326  -17.4564 C.ar    1  UNL1        0.0757
     22 C          50.3415   12.7444  -18.7391 C.ar    1  UNL1        0.0185
     23 H          52.9028   13.3089  -17.5960 H       1  UNL1        0.1675
     24 C          50.1648    8.0506  -28.7705 C.3     1  UNL1        0.0324
     25 C          50.8578    9.1743  -28.0458 C.ar    1  UNL1       -0.0046
     26 C          50.2774    9.6718  -26.8654 C.ar    1  UNL1        0.0015
     27 C          50.8873   10.7063  -26.1386 C.ar    1  UNL1        0.0534
     28 C          52.0831   11.2596  -26.6144 C.ar    1  UNL1        0.0058
     29 C          52.6776   10.7661  -27.7757 C.ar    1  UNL1        0.0182
     30 C          52.0897    9.7141  -28.4937 C.ar    1  UNL1        0.1018
     31 S          52.9091    9.1420  -29.9584 S.O2    1  UNL1        0.0101
     32 C          54.0671    7.8590  -29.5347 C.3     1  UNL1        0.1816
     33 O          53.6254   10.2712  -30.6439 O.2     1  UNL1       -0.1686
     34 O          51.8961    8.5802  -30.9166 O.2     1  UNL1       -0.1686
@<TRIPOS>BOND
     1    24    25    1
     2    25    26   ar
     3    26    27   ar
     4    27     1    1
     5     1     2    2
     6     1     3   am
     7     3     4    1
     8     4     5    1
     9     5     6    1
    10     6     7    1
    11     7     8   ar
    12     8     9   ar
    13     9    10   ar
    14    10    14    1
    15    14    15   ar
    16    15    16   ar
    17    16    17   ar
    18    17    18   ar
    19    18    19   ar
    20    19    20   ar
    21    20    21   ar
    22    21    22   ar
    23    10    11   ar
    24    11    12   ar
    25    12    13    1
    26    27    28   ar
    27    28    29   ar
    28    29    30   ar
    29    30    31    1
    30    31    32    1
    31    31    33    2
    32    31    34    2
    33    30    25   ar
    34    13     3    1
    35    12     7   ar
    36    22    14   ar
    37    21    17   ar
    38    20    23    1
@<TRIPOS>MOLECULE
*****
 34 38 0 0 0
SMALL
GASTEIGER

@<TRIPOS>ATOM
      1 C          52.1169   10.7002  -27.6270 C.2     1  UNL1        0.2494
      2 O          52.3001   11.9278  -27.8532 O.2     1  UNL1       -0.2699
      3 N          51.3050   10.3017  -26.5054 N.am    1  UNL1       -0.2680
      4 C          51.8116    9.3259  -25.5357 C.3     1  UNL1        0.1412
      5 C          52.5456   10.0362  -24.4031 C.3     1  UNL1        0.2268
      6 O          51.6654   10.8598  -23.6403 O.3     1  UNL1       -0.4739
      7 C          51.2262   12.1159  -24.0747 C.ar    1  UNL1        0.1362
      8 C          51.4656   13.2207  -23.2524 C.ar    1  UNL1        0.0366
      9 C          51.0789   14.5010  -23.6508 C.ar    1  UNL1        0.0031
     10 C          50.4285   14.6977  -24.8796 C.ar    1  UNL1       -0.0000
     11 C          50.1578   13.5834  -25.6927 C.ar    1  UNL1        0.0004
     12 C          50.5462   12.2907  -25.2995 C.ar    1  UNL1        0.0317
     13 C          50.1390   11.1069  -26.1388 C.3     1  UNL1        0.1236
     14 C          50.0226   16.0600  -25.3089 C.ar    1  UNL1        0.0015
     15 C          50.7901   16.7709  -26.2738 C.ar    1  UNL1        0.0016
     16 C          50.4124   18.0623  -26.6872 C.ar    1  UNL1        0.0206
     17 C          49.2683   18.6149  -26.1218 C.ar    1  UNL1        0.0985
     18 N          48.7274   19.8213  -26.3691 N.ar    1  UNL1       -0.2241
     19 C          47.6381   19.8361  -25.5562 C.ar    1  UNL1        0.1750
     20 N          47.4904   18.7022  -24.8295 N.ar    1  UNL1       -0.3349
     21 C          48.5287   17.9433  -25.1986 C.ar    1  UNL1        0.0757
     22 C          48.8651   16.6654  -24.7610 C.ar    1  UNL1        0.0185
     23 H          46.7386   18.4763  -24.1410 H       1  UNL1        0.1675
     24 C          51.5641    7.1462  -31.1132 C.3     1  UNL1        0.0324
     25 C          52.4830    7.9718  -30.2517 C.ar    1  UNL1       -0.0046
     26 C          51.9160    8.9129  -29.3739 C.ar    1  UNL1        0.0015
     27 C          52.7222    9.6980  -28.5348 C.ar    1  UNL1        0.0534
     28 C          54.1139    9.5491  -28.5932 C.ar    1  UNL1        0.0058
     29 C          54.6891    8.6094  -29.4484 C.ar    1  UNL1        0.0182
     30 C          53.8902    7.8011  -30.2709 C.ar    1  UNL1        0.1018
     31 S          54.6976    6.6288  -31.3280 S.O2    1  UNL1        0.0101
     32 C          56.3353    7.2040  -31.7200 C.3     1  UNL1        0.1816
     33 O          53.9122    6.4219  -32.5923 O.2     1  UNL1       -0.1686
     34 O          54.8071    5.3054  -30.6233 O.2     1  UNL1       -0.1686
@<TRIPOS>BOND
     1    24    25    1
     2    25    26   ar
     3    26    27   ar
     4    27     1    1
     5     1     2    2
     6     1     3   am
     7     3     4    1
     8     4     5    1
     9     5     6    1
    10     6     7    1
    11     7     8   ar
    12     8     9   ar
    13     9    10   ar
    14    10    14    1
    15    14    15   ar
    16    15    16   ar
    17    16    17   ar
    18    17    18   ar
    19    18    19   ar
    20    19    20   ar
    21    20    21   ar
    22    21    22   ar
    23    10    11   ar
    24    11    12   ar
    25    12    13    1
    26    27    28   ar
    27    28    29   ar
    28    29    30   ar
    29    30    31    1
    30    31    32    1
    31    31    33    2
    32    31    34    2
    33    30    25   ar
    34    13     3    1
    35    12     7   ar
    36    22    14   ar
    37    21    17   ar
    38    20    23    1
@<TRIPOS>MOLECULE
*****
 34 38 0 0 0
SMALL
GASTEIGER

@<TRIPOS>ATOM
      1 C          49.2005   12.4304  -20.3669 C.2     1  UNL1        0.2494
      2 O          48.5995   13.4221  -20.8638 O.2     1  UNL1       -0.2699
      3 N          49.9255   11.5364  -21.2336 N.am    1  UNL1       -0.2680
      4 C          49.6900   10.0909  -21.1685 C.3     1  UNL1        0.1412
      5 C          48.5803    9.6905  -22.1351 C.3     1  UNL1        0.2268
      6 O          48.9556    9.9210  -23.4919 O.3     1  UNL1       -0.4739
      7 C          48.9427   11.1897  -24.0832 C.ar    1  UNL1        0.1362
      8 C          48.1803   11.3719  -25.2407 C.ar    1  UNL1        0.0366
      9 C          48.1049   12.6237  -25.8528 C.ar    1  UNL1        0.0031
     10 C          48.8071   13.7183  -25.3233 C.ar    1  UNL1       -0.0000
     11 C          49.6003   13.5288  -24.1782 C.ar    1  UNL1        0.0004
     12 C          49.6796   12.2715  -23.5543 C.ar    1  UNL1        0.0317
     13 C          50.6277   12.0757  -22.3990 C.3     1  UNL1        0.1236
     14 C          48.7226   15.0528  -25.9688 C.ar    1  UNL1        0.0015
     15 C          47.5544   15.4343  -26.6866 C.ar    1  UNL1        0.0016
     16 C          47.4653   16.6975  -27.3010 C.ar    1  UNL1        0.0206
     17 C          48.5541   17.5544  -27.1816 C.ar    1  UNL1        0.0985
     18 N          48.6838   18.7964  -27.6815 N.ar    1  UNL1       -0.2241
     19 C          49.9255   19.1610  -27.2657 C.ar    1  UNL1        0.1750
     20 N          50.5549   18.2056  -26.5401 N.ar    1  UNL1       -0.3349
     21 C          49.6750   17.1985  -26.4980 C.ar    1  UNL1        0.0757
     22 C          49.8063   15.9603  -25.8756 C.ar    1  UNL1        0.0185
     23 H          51.5071   18.2486  -26.1137 H       1  UNL1        0.1675
     24 C          51.5266   12.5720  -15.9330 C.3     1  UNL1        0.0324
     25 C          50.2713   12.3000  -16.7195 C.ar    1  UNL1       -0.0046
     26 C          50.3004   12.4774  -18.1143 C.ar    1  UNL1        0.0015
     27 C          49.1659   12.2224  -18.9005 C.ar    1  UNL1        0.0534
     28 C          47.9842   11.8037  -18.2755 C.ar    1  UNL1        0.0058
     29 C          47.9452   11.6095  -16.8948 C.ar    1  UNL1        0.0182
     30 C          49.0817   11.8354  -16.1041 C.ar    1  UNL1        0.1018
     31 S          48.9514   11.5633  -14.3569 S.O2    1  UNL1        0.0101
     32 C          49.0348   13.1207  -13.5001 C.3     1  UNL1        0.1816
     33 O          50.0481   10.6557  -13.8756 O.2     1  UNL1       -0.1686
     34 O          47.6334   10.9110  -14.0447 O.2     1  UNL1       -0.1686
@<TRIPOS>BOND
     1    24    25    1
     2    25    26   ar
     3    26    27   ar
     4    27     1    1
     5     1     2    2
     6     1     3   am
     7     3     4    1
     8     4     5    1
     9     5     6    1
    10     6     7    1
    11     7     8   ar
    12     8     9   ar
    13     9    10   ar
    14    10    14    1
    15    14    15   ar
    16    15    16   ar
    17    16    17   ar
    18    17    18   ar
    19    18    19   ar
    20    19    20   ar
    21    20    21   ar
    22    21    22   ar
    23    10    11   ar
    24    11    12   ar
    25    12    13    1
    26    27    28   ar
    27    28    29   ar
    28    29    30   ar
    29    30    31    1
    30    31    32    1
    31    31    33    2
    32    31    34    2
    33    30    25   ar
    34    13     3    1
    35    12     7   ar
    36    22    14   ar
    37    21    17   ar
    38    20    23    1
@<TRIPOS>MOLECULE
*****
 34 38 0 0 0
SMALL
GASTEIGER

@<TRIPOS>ATOM
      1 C          49.9672   10.6249  -24.6654 C.2     1  UNL1        0.2494
      2 O          49.7888    9.5195  -25.2468 O.2     1  UNL1       -0.2699
      3 N          50.7520   11.6454  -25.3126 N.am    1  UNL1       -0.2680
      4 C          51.8589   12.2900  -24.5997 C.3     1  UNL1        0.1412
      5 C          53.1575   11.5255  -24.8349 C.3     1  UNL1        0.2268
      6 O          53.5535   11.5695  -26.2046 O.3     1  UNL1       -0.4739
      7 C          52.9659   10.7743  -27.1956 C.ar    1  UNL1        0.1362
      8 C          53.7946    9.9397  -27.9511 C.ar    1  UNL1        0.0366
      9 C          53.2582    9.1016  -28.9294 C.ar    1  UNL1        0.0031
     10 C          51.8768    9.0945  -29.1810 C.ar    1  UNL1       -0.0000
     11 C          51.0463    9.9571  -28.4446 C.ar    1  UNL1        0.0004
     12 C          51.5787   10.8028  -27.4557 C.ar    1  UNL1        0.0317
     13 C          50.6784   11.7960  -26.7665 C.3     1  UNL1        0.1236
     14 C          51.3029    8.1982  -30.2164 C.ar    1  UNL1        0.0015
     15 C          52.1551    7.4773  -31.0992 C.ar    1  UNL1        0.0016
     16 C          51.6199    6.6250  -32.0833 C.ar    1  UNL1        0.0206
     17 C          50.2359    6.5135  -32.1607 C.ar    1  UNL1        0.0985
     18 N          49.5163    5.7629  -33.0140 N.ar    1  UNL1       -0.2241
     19 C          48.2356    6.0310  -32.6457 C.ar    1  UNL1        0.1750
     20 N          48.1413    6.9043  -31.6142 N.ar    1  UNL1       -0.3349
     21 C          49.4133    7.1989  -31.3217 C.ar    1  UNL1        0.0757
     22 C          49.8989    8.0523  -30.3350 C.ar    1  UNL1        0.0185
     23 H          47.2743    7.2628  -31.1558 H       1  UNL1        0.1675
     24 C          49.7794    9.6429  -19.7572 C.3     1  UNL1        0.0324
     25 C          49.2431   10.4092  -20.9376 C.ar    1  UNL1       -0.0046
     26 C          49.8156   10.1831  -22.2021 C.ar    1  UNL1        0.0015
     27 C          49.3450   10.8555  -23.3408 C.ar    1  UNL1        0.0534
     28 C          48.3011   11.7795  -23.2033 C.ar    1  UNL1        0.0058
     29 C          47.7141   12.0029  -21.9579 C.ar    1  UNL1        0.0182
     30 C          48.1593   11.3153  -20.8190 C.ar    1  UNL1        0.1018
     31 S          47.3595   11.6536  -19.2732 S.O2    1  UNL1        0.0101
     32 C          48.2401   12.9373  -18.4112 C.3     1  UNL1        0.1816
     33 O          47.2981   10.4160  -18.4229 O.2     1  UNL1       -0.1686
     34 O          45.9522   12.1190  -19.5243 O.2     1  UNL1       -0.1686
@<TRIPOS>BOND
     1    24    25    1
     2    25    26   ar
     3    26    27   ar
     4    27     1    1
     5     1     2    2
     6     1     3   am
     7     3     4    1
     8     4     5    1
     9     5     6    1
    10     6     7    1
    11     7     8   ar
    12     8     9   ar
    13     9    10   ar
    14    10    14    1
    15    14    15   ar
    16    15    16   ar
    17    16    17   ar
    18    17    18   ar
    19    18    19   ar
    20    19    20   ar
    21    20    21   ar
    22    21    22   ar
    23    10    11   ar
    24    11    12   ar
    25    12    13    1
    26    27    28   ar
    27    28    29   ar
    28    29    30   ar
    29    30    31    1
    30    31    32    1
    31    31    33    2
    32    31    34    2
    33    30    25   ar
    34    13     3    1
    35    12     7   ar
    36    22    14   ar
    37    21    17   ar
    38    20    23    1
@<TRIPOS>MOLECULE
*****
 34 38 0 0 0
SMALL
GASTEIGER

@<TRIPOS>ATOM
      1 C          47.0867   11.9257  -23.3225 C.2     1  UNL1        0.2494
      2 O          47.9292   11.3510  -24.0651 O.2     1  UNL1       -0.2699
      3 N          45.8723   12.4432  -23.9000 N.am    1  UNL1       -0.2680
      4 C          45.4668   13.8295  -23.6495 C.3     1  UNL1        0.1412
      5 C          46.0456   14.7522  -24.7171 C.3     1  UNL1        0.2268
      6 O          45.5133   14.4621  -26.0084 O.3     1  UNL1       -0.4739
      7 C          45.9411   13.3792  -26.7854 C.ar    1  UNL1        0.1362
      8 C          46.4260   13.6383  -28.0706 C.ar    1  UNL1        0.0366
      9 C          46.8963   12.6003  -28.8760 C.ar    1  UNL1        0.0031
     10 C          46.8758   11.2749  -28.4127 C.ar    1  UNL1       -0.0000
     11 C          46.3581   11.0090  -27.1331 C.ar    1  UNL1        0.0004
     12 C          45.8846   12.0494  -26.3148 C.ar    1  UNL1        0.0317
     13 C          45.2313   11.7176  -24.9976 C.3     1  UNL1        0.1236
     14 C          47.3824   10.1697  -29.2651 C.ar    1  UNL1        0.0015
     15 C          46.7200    9.8330  -30.4790 C.ar    1  UNL1        0.0016
     16 C          47.1936    8.7874  -31.2935 C.ar    1  UNL1        0.0206
     17 C          48.3260    8.0993  -30.8715 C.ar    1  UNL1        0.0985
     18 N          48.9466    7.0775  -31.4879 N.ar    1  UNL1       -0.2241
     19 C          49.9790    6.8006  -30.6482 C.ar    1  UNL1        0.1750
     20 N          50.0168    7.6007  -29.5555 N.ar    1  UNL1       -0.3349
     21 C          48.9656    8.4135  -29.7128 C.ar    1  UNL1        0.0757
     22 C          48.5322    9.4390  -28.8771 C.ar    1  UNL1        0.0185
     23 H          50.7080    7.5841  -28.7732 H       1  UNL1        0.1675
     24 C          45.3769   12.0634  -18.6163 C.3     1  UNL1        0.0324
     25 C          46.5502   12.0847  -19.5602 C.ar    1  UNL1       -0.0046
     26 C          46.3028   12.0011  -20.9421 C.ar    1  UNL1        0.0015
     27 C          47.3558   12.0336  -21.8696 C.ar    1  UNL1        0.0534
     28 C          48.6727   12.1313  -21.4018 C.ar    1  UNL1        0.0058
     29 C          48.9319   12.2298  -20.0349 C.ar    1  UNL1        0.0182
     30 C          47.8843   12.2257  -19.1019 C.ar    1  UNL1        0.1018
     31 S          48.2965   12.3573  -17.3824 S.O2    1  UNL1        0.0101
     32 C          50.0595   12.5152  -17.1993 C.3     1  UNL1        0.1816
     33 O          47.8094   11.1549  -16.6241 O.2     1  UNL1       -0.1686
     34 O          47.6398   13.5768  -16.7979 O.2     1  UNL1       -0.1686
@<TRIPOS>BOND
     1    24    25    1
     2    25    26   ar
     3    26    27   ar
     4    27     1    1
     5     1     2    2
     6     1     3   am
     7     3     4    1
     8     4     5    1
     9     5     6    1
    10     6     7    1
    11     7     8   ar
    12     8     9   ar
    13     9    10   ar
    14    10    14    1
    15    14    15   ar
    16    15    16   ar
    17    16    17   ar
    18    17    18   ar
    19    18    19   ar
    20    19    20   ar
    21    20    21   ar
    22    21    22   ar
    23    10    11   ar
    24    11    12   ar
    25    12    13    1
    26    27    28   ar
    27    28    29   ar
    28    29    30   ar
    29    30    31    1
    30    31    32    1
    31    31    33    2
    32    31    34    2
    33    30    25   ar
    34    13     3    1
    35    12     7   ar
    36    22    14   ar
    37    21    17   ar
    38    20    23    1
@<TRIPOS>MOLECULE
*****
 34 38 0 0 0
SMALL
GASTEIGER

@<TRIPOS>ATOM
      1 C          50.1761   11.3052  -23.3208 C.2     1  UNL1        0.2494
      2 O          50.5678   10.7562  -22.2546 O.2     1  UNL1       -0.2699
      3 N          49.2014   12.3642  -23.2538 N.am    1  UNL1       -0.2680
      4 C          47.9916   12.3089  -24.0800 C.3     1  UNL1        0.1412
      5 C          46.8697   11.5983  -23.3301 C.3     1  UNL1        0.2268
      6 O          46.4668   12.3270  -22.1718 O.3     1  UNL1       -0.4739
      7 C          47.1962   12.3267  -20.9770 C.ar    1  UNL1        0.1362
      8 C          46.5464   11.9261  -19.8059 C.ar    1  UNL1        0.0366
      9 C          47.2343   11.8751  -18.5928 C.ar    1  UNL1        0.0031
     10 C          48.5884   12.2404  -18.5267 C.ar    1  UNL1       -0.0000
     11 C          49.2343   12.6747  -19.6973 C.ar    1  UNL1        0.0004
     12 C          48.5490   12.7267  -20.9237 C.ar    1  UNL1        0.0317
     13 C          49.2371   13.3053  -22.1335 C.3     1  UNL1        0.1236
     14 C          49.3243   12.1800  -17.2384 C.ar    1  UNL1        0.0015
     15 C          48.7410   11.5500  -16.1033 C.ar    1  UNL1        0.0016
     16 C          49.4315   11.4875  -14.8784 C.ar    1  UNL1        0.0206
     17 C          50.6974   12.0602  -14.8182 C.ar    1  UNL1        0.0985
     18 N          51.5281   12.1135  -13.7616 N.ar    1  UNL1       -0.2241
     19 C          52.6076   12.7728  -14.2594 C.ar    1  UNL1        0.1750
     20 N          52.4748   13.1217  -15.5618 N.ar    1  UNL1       -0.3349
     21 C          51.2628   12.6648  -15.8976 C.ar    1  UNL1        0.0757
     22 C          50.6164   12.7499  -17.1274 C.ar    1  UNL1        0.0185
     23 H          53.1616   13.6300  -16.1618 H       1  UNL1        0.1675
     24 C          53.6075   11.8374  -26.9309 C.3     1  UNL1        0.0324
     25 C          52.4212   11.0883  -26.3835 C.ar    1  UNL1       -0.0046
     26 C          51.8626   11.5123  -25.1645 C.ar    1  UNL1        0.0015
     27 C          50.7459   10.8632  -24.6150 C.ar    1  UNL1        0.0534
     28 C          50.1973    9.7641  -25.2883 C.ar    1  UNL1        0.0058
     29 C          50.7320    9.3417  -26.5054 C.ar    1  UNL1        0.0182
     30 C          51.8309   10.0012  -27.0759 C.ar    1  UNL1        0.1018
     31 S          52.4500    9.4048  -28.6267 S.O2    1  UNL1        0.0101
     32 C          51.2282    8.3686  -29.4010 C.3     1  UNL1        0.1816
     33 O          53.7245    8.6332  -28.4304 O.2     1  UNL1       -0.1686
     34 O          52.7418   10.5672  -29.5342 O.2     1  UNL1       -0.1686
@<TRIPOS>BOND
     1    24    25    1
     2    25    26   ar
     3    26    27   ar
     4    27     1    1
     5     1     2    2
     6     1     3   am
     7     3     4    1
     8     4     5    1
     9     5     6    1
    10     6     7    1
    11     7     8   ar
    12     8     9   ar
    13     9    10   ar
    14    10    14    1
    15    14    15   ar
    16    15    16   ar
    17    16    17   ar
    18    17    18   ar
    19    18    19   ar
    20    19    20   ar
    21    20    21   ar
    22    21    22   ar
    23    10    11   ar
    24    11    12   ar
    25    12    13    1
    26    27    28   ar
    27    28    29   ar
    28    29    30   ar
    29    30    31    1
    30    31    32    1
    31    31    33    2
    32    31    34    2
    33    30    25   ar
    34    13     3    1
    35    12     7   ar
    36    22    14   ar
    37    21    17   ar
    38    20    23    1
