@<TRIPOS>MOLECULE
*****
 43 47 0 0 0
SMALL
GASTEIGER

@<TRIPOS>ATOM
      1 C         -26.9345   50.4719   -7.2039 C.ar    1  UNL1        0.0888
      2 C         -25.5755   50.8588   -7.3715 C.ar    1  UNL1        0.0282
      3 C         -25.0925   51.0494   -8.6739 C.ar    1  UNL1        0.0997
      4 N         -23.8514   51.4055   -9.0507 N.ar    1  UNL1       -0.2137
      5 C         -23.9495   51.4349  -10.4073 C.ar    1  UNL1        0.1984
      6 N         -25.1782   51.1017  -10.8817 N.ar    1  UNL1       -0.3255
      7 C         -25.8841   50.8685   -9.7703 C.ar    1  UNL1        0.0755
      8 C         -27.2080   50.4788   -9.6329 C.ar    1  UNL1        0.0325
      9 C         -27.7164   50.2771   -8.3734 C.ar    1  UNL1        0.1401
     10 O         -29.0303   49.8609   -8.4455 O.3     1  UNL1       -0.4824
     11 C         -29.4778   49.8082   -9.8044 C.3     1  UNL1        0.1375
     12 C         -30.6231   50.8123   -9.9921 C.3     1  UNL1        0.0439
     13 C         -29.9554   48.3870  -10.1272 C.3     1  UNL1        0.0439
     14 C         -28.2335   50.2002  -10.6685 C.3     1  UNL1        0.0709
     15 H         -25.4976   51.0175  -11.8721 H       1  UNL1        0.1686
     16 N         -28.4478   49.2350   -5.5817 N.am    1  UNL1       -0.2808
     17 C         -27.4879   50.2692   -5.8454 C.2     1  UNL1        0.2525
     18 O         -27.1315   51.0393   -4.9114 O.2     1  UNL1       -0.2697
     19 H         -29.0293   48.8772   -6.3716 H       1  UNL1        0.1552
     20 C         -30.1102   49.3756   -3.7522 C.ar    1  UNL1        0.0204
     21 C         -30.4835   49.0730   -2.4323 C.ar    1  UNL1        0.0032
     22 C         -29.6499   48.3080   -1.6032 C.ar    1  UNL1        0.0710
     23 C         -28.4026   47.8895   -2.0879 C.ar    1  UNL1        0.0008
     24 C         -28.0102   48.1736   -3.4043 C.ar    1  UNL1       -0.0087
     25 C         -26.6661   47.7066   -3.8951 C.3     1  UNL1        0.0323
     26 C         -28.8672   48.9143   -4.2459 C.ar    1  UNL1        0.0448
     27 C         -30.0421   48.0353   -0.1719 C.3     1  UNL1        0.4186
     28 F         -31.3635   48.3961    0.0143 F       1  UNL1       -0.1659
     29 F         -29.8947   46.6921    0.1284 F       1  UNL1       -0.1659
     30 F         -29.2493   48.7614    0.7002 F       1  UNL1       -0.1659
     31 C         -31.0109   50.2473   -4.5928 C.3     1  UNL1        0.1699
     32 C         -31.3437   52.5194   -4.7697 C.3     1  UNL1        0.1746
     33 O         -30.3798   51.4915   -4.8108 O.3     1  UNL1       -0.3463
     34 N         -22.8292   51.7382  -11.2484 N.pl3   1  UNL1       -0.2816
     35 H         -22.9188   51.5437  -12.2709 H       1  UNL1        0.1551
     36 C         -21.6370   52.3792  -10.7698 C.ar    1  UNL1        0.0889
     37 C         -20.4301   51.6607  -10.6682 C.ar    1  UNL1        0.1543
     38 F         -20.3700   50.3555  -11.0341 F       1  UNL1       -0.2028
     39 C         -19.2683   52.2968  -10.2206 C.ar    1  UNL1        0.0310
     40 C         -19.2952   53.6514   -9.8842 C.ar    1  UNL1        0.0033
     41 C         -20.4825   54.3775  -10.0012 C.ar    1  UNL1        0.0128
     42 C         -21.6515   53.7506  -10.4488 C.ar    1  UNL1        0.0733
     43 CL        -23.1300   54.6959  -10.5648 Cl      1  UNL1       -0.0809
@<TRIPOS>BOND
     1    32    33    1
     2    33    31    1
     3    31    20    1
     4    20    21   ar
     5    21    22   ar
     6    22    27    1
     7    27    28    1
     8    27    29    1
     9    27    30    1
    10    22    23   ar
    11    23    24   ar
    12    24    25    1
    13    24    26   ar
    14    26    16    1
    15    16    17   am
    16    17    18    2
    17    17     1    1
    18     1     2   ar
    19     2     3   ar
    20     3     4   ar
    21     4     5   ar
    22     5    34    1
    23    34    36    1
    24    36    37   ar
    25    37    38    1
    26    37    39   ar
    27    39    40   ar
    28    40    41   ar
    29    41    42   ar
    30    42    43    1
    31     5     6   ar
    32     6     7   ar
    33     7     8   ar
    34     8     9   ar
    35     9    10    1
    36    10    11    1
    37    11    12    1
    38    11    13    1
    39    11    14    1
    40    26    20   ar
    41     9     1   ar
    42     7     3   ar
    43    14     8    1
    44    42    36   ar
    45    16    19    1
    46    34    35    1
    47     6    15    1
@<TRIPOS>MOLECULE
*****
 43 47 0 0 0
SMALL
GASTEIGER

@<TRIPOS>ATOM
      1 C         -26.8224   50.4486   -7.1536 C.ar    1  UNL1        0.0888
      2 C         -25.4696   50.8480   -7.3405 C.ar    1  UNL1        0.0282
      3 C         -25.0025   51.0277   -8.6503 C.ar    1  UNL1        0.0997
      4 N         -23.7694   51.3924   -9.0447 N.ar    1  UNL1       -0.2137
      5 C         -23.8823   51.4041  -10.4005 C.ar    1  UNL1        0.1984
      6 N         -25.1123   51.0519  -10.8575 N.ar    1  UNL1       -0.3255
      7 C         -25.8037   50.8248   -9.7358 C.ar    1  UNL1        0.0755
      8 C         -27.1218   50.4227   -9.5794 C.ar    1  UNL1        0.0325
      9 C         -27.6146   50.2310   -8.3121 C.ar    1  UNL1        0.1401
     10 O         -28.9246   49.8000   -8.3650 O.3     1  UNL1       -0.4824
     11 C         -29.3859   49.7258   -9.7182 C.3     1  UNL1        0.1375
     12 C         -30.5440   50.7151   -9.9058 C.3     1  UNL1        0.0439
     13 C         -29.8514   48.2956  -10.0186 C.3     1  UNL1        0.0439
     14 C         -28.1552   50.1204  -10.6004 C.3     1  UNL1        0.0709
     15 H         -25.4413   50.9521  -11.8433 H       1  UNL1        0.1686
     16 N         -28.3435   49.2493   -5.5108 N.am    1  UNL1       -0.2808
     17 C         -27.3591   50.2567   -5.7868 C.2     1  UNL1        0.2525
     18 O         -26.9657   51.0130   -4.8564 O.2     1  UNL1       -0.2697
     19 H         -28.9478   48.9109   -6.2920 H       1  UNL1        0.1552
     20 C         -27.9564   48.0928   -3.3559 C.ar    1  UNL1        0.0204
     21 C         -28.3914   47.7778   -2.0579 C.ar    1  UNL1        0.0032
     22 C         -29.5916   48.2985   -1.5520 C.ar    1  UNL1        0.0710
     23 C         -30.3909   49.1000   -2.3794 C.ar    1  UNL1        0.0008
     24 C         -29.9750   49.4339   -3.6767 C.ar    1  UNL1       -0.0087
     25 C         -30.8547   50.2997   -4.5382 C.3     1  UNL1        0.0323
     26 C         -28.7500   48.9356   -4.1693 C.ar    1  UNL1        0.0448
     27 C         -30.0702   47.9092   -0.1750 C.3     1  UNL1        0.4186
     28 F         -29.8058   46.5690    0.0365 F       1  UNL1       -0.1659
     29 F         -29.4247   48.6550    0.7963 F       1  UNL1       -0.1659
     30 F         -31.4318   48.1254   -0.0502 F       1  UNL1       -0.1659
     31 C         -26.6871   47.4679   -3.8811 C.3     1  UNL1        0.1699
     32 C         -25.3064   45.8589   -2.9816 C.3     1  UNL1        0.1746
     33 O         -25.8436   47.1488   -2.7946 O.3     1  UNL1       -0.3463
     34 N         -22.7744   51.7090  -11.2572 N.pl3   1  UNL1       -0.2816
     35 H         -22.8770   51.5115  -12.2779 H       1  UNL1        0.1551
     36 C         -21.5781   52.3554  -10.7963 C.ar    1  UNL1        0.0889
     37 C         -20.3694   51.6390  -10.7006 C.ar    1  UNL1        0.1543
     38 F         -20.3116   50.3307  -11.0559 F       1  UNL1       -0.2028
     39 C         -19.2039   52.2801  -10.2703 C.ar    1  UNL1        0.0310
     40 C         -19.2290   53.6376   -9.9454 C.ar    1  UNL1        0.0033
     41 C         -20.4182   54.3614  -10.0567 C.ar    1  UNL1        0.0128
     42 C         -21.5909   53.7294  -10.4870 C.ar    1  UNL1        0.0733
     43 CL        -23.0716   54.6722  -10.5961 Cl      1  UNL1       -0.0809
@<TRIPOS>BOND
     1    32    33    1
     2    33    31    1
     3    31    20    1
     4    20    21   ar
     5    21    22   ar
     6    22    27    1
     7    27    28    1
     8    27    29    1
     9    27    30    1
    10    22    23   ar
    11    23    24   ar
    12    24    25    1
    13    24    26   ar
    14    26    16    1
    15    16    17   am
    16    17    18    2
    17    17     1    1
    18     1     2   ar
    19     2     3   ar
    20     3     4   ar
    21     4     5   ar
    22     5    34    1
    23    34    36    1
    24    36    37   ar
    25    37    38    1
    26    37    39   ar
    27    39    40   ar
    28    40    41   ar
    29    41    42   ar
    30    42    43    1
    31     5     6   ar
    32     6     7   ar
    33     7     8   ar
    34     8     9   ar
    35     9    10    1
    36    10    11    1
    37    11    12    1
    38    11    13    1
    39    11    14    1
    40    26    20   ar
    41     9     1   ar
    42     7     3   ar
    43    14     8    1
    44    42    36   ar
    45    16    19    1
    46    34    35    1
    47     6    15    1
@<TRIPOS>MOLECULE
*****
 43 47 0 0 0
SMALL
GASTEIGER

@<TRIPOS>ATOM
      1 C         -26.6508   49.6876   -7.5777 C.ar    1  UNL1        0.0888
      2 C         -25.3104   50.1463   -7.7109 C.ar    1  UNL1        0.0282
      3 C         -24.9302   50.7527   -8.9165 C.ar    1  UNL1        0.0997
      4 N         -23.7234   51.2450   -9.2488 N.ar    1  UNL1       -0.2137
      5 C         -23.9261   51.6992  -10.5152 C.ar    1  UNL1        0.1984
      6 N         -25.1863   51.4982  -10.9812 N.ar    1  UNL1       -0.3255
      7 C         -25.8033   50.9054   -9.9537 C.ar    1  UNL1        0.0755
      8 C         -27.1110   50.4547   -9.8524 C.ar    1  UNL1        0.0325
      9 C         -27.5198   49.8505   -8.6891 C.ar    1  UNL1        0.1401
     10 O         -28.8336   49.4412   -8.7950 O.3     1  UNL1       -0.4824
     11 C         -29.3844   49.8083  -10.0644 C.3     1  UNL1        0.1375
     12 C         -30.5451   50.7871   -9.8408 C.3     1  UNL1        0.0439
     13 C         -29.8794   48.5492  -10.7867 C.3     1  UNL1        0.0439
     14 C         -28.2122   50.4889  -10.8464 C.3     1  UNL1        0.0709
     15 H         -25.5809   51.7226  -11.9215 H       1  UNL1        0.1686
     16 N         -27.6666   49.8269   -5.2539 N.am    1  UNL1       -0.2808
     17 C         -27.0968   49.0499   -6.3178 C.2     1  UNL1        0.2525
     18 O         -26.9443   47.8064   -6.1666 O.2     1  UNL1       -0.2697
     19 H         -27.4364   50.8437   -5.1964 H       1  UNL1        0.1552
     20 C         -29.6542   48.9944   -4.0344 C.ar    1  UNL1        0.0204
     21 C         -30.2104   48.4169   -2.8810 C.ar    1  UNL1        0.0032
     22 C         -29.4004   48.0377   -1.8005 C.ar    1  UNL1        0.0710
     23 C         -28.0228   48.2925   -1.8572 C.ar    1  UNL1        0.0008
     24 C         -27.4430   48.8621   -3.0004 C.ar    1  UNL1       -0.0087
     25 C         -25.9602   49.1194   -3.0307 C.3     1  UNL1        0.0323
     26 C         -28.2574   49.2105   -4.0989 C.ar    1  UNL1        0.0448
     27 C         -30.0190   47.4661   -0.5486 C.3     1  UNL1        0.4186
     28 F         -31.3953   47.4720   -0.6778 F       1  UNL1       -0.1659
     29 F         -29.5911   46.1662   -0.3409 F       1  UNL1       -0.1659
     30 F         -29.6669   48.2178    0.5592 F       1  UNL1       -0.1659
     31 C         -30.5668   49.4381   -5.1515 C.3     1  UNL1        0.1699
     32 C         -30.9717   51.6906   -4.8935 C.3     1  UNL1        0.1746
     33 O         -30.1902   50.7327   -5.5709 O.3     1  UNL1       -0.3463
     34 N         -22.8754   52.2848  -11.2946 N.pl3   1  UNL1       -0.2816
     35 H         -22.9409   52.2142  -12.3348 H       1  UNL1        0.1551
     36 C         -21.7971   53.0393  -10.7207 C.ar    1  UNL1        0.0889
     37 C         -21.9779   54.3908  -10.3684 C.ar    1  UNL1        0.1543
     38 F         -23.1774   54.9981  -10.5516 F       1  UNL1       -0.2028
     39 C         -20.9295   55.1136   -9.7913 C.ar    1  UNL1        0.0310
     40 C         -19.7013   54.4958   -9.5491 C.ar    1  UNL1        0.0033
     41 C         -19.5187   53.1504   -9.8762 C.ar    1  UNL1        0.0128
     42 C         -20.5619   52.4171  -10.4540 C.ar    1  UNL1        0.0733
     43 CL        -20.2855   50.7303  -10.8678 Cl      1  UNL1       -0.0809
@<TRIPOS>BOND
     1    32    33    1
     2    33    31    1
     3    31    20    1
     4    20    21   ar
     5    21    22   ar
     6    22    27    1
     7    27    28    1
     8    27    29    1
     9    27    30    1
    10    22    23   ar
    11    23    24   ar
    12    24    25    1
    13    24    26   ar
    14    26    16    1
    15    16    17   am
    16    17    18    2
    17    17     1    1
    18     1     2   ar
    19     2     3   ar
    20     3     4   ar
    21     4     5   ar
    22     5    34    1
    23    34    36    1
    24    36    37   ar
    25    37    38    1
    26    37    39   ar
    27    39    40   ar
    28    40    41   ar
    29    41    42   ar
    30    42    43    1
    31     5     6   ar
    32     6     7   ar
    33     7     8   ar
    34     8     9   ar
    35     9    10    1
    36    10    11    1
    37    11    12    1
    38    11    13    1
    39    11    14    1
    40    26    20   ar
    41     9     1   ar
    42     7     3   ar
    43    14     8    1
    44    42    36   ar
    45    16    19    1
    46    34    35    1
    47     6    15    1
@<TRIPOS>MOLECULE
*****
 43 47 0 0 0
SMALL
GASTEIGER

@<TRIPOS>ATOM
      1 C         -27.1223   50.3013   -8.1480 C.ar    1  UNL1        0.0888
      2 C         -25.7189   50.5342   -8.1172 C.ar    1  UNL1        0.0282
      3 C         -25.0880   50.9606   -9.2944 C.ar    1  UNL1        0.0997
      4 N         -23.7833   51.2285   -9.4818 N.ar    1  UNL1       -0.2137
      5 C         -23.7392   51.5891  -10.7929 C.ar    1  UNL1        0.1984
      6 N         -24.9426   51.5420  -11.4217 N.ar    1  UNL1       -0.3255
      7 C         -25.7792   51.1489  -10.4555 C.ar    1  UNL1        0.0755
      8 C         -27.1451   50.9158  -10.5137 C.ar    1  UNL1        0.0325
      9 C         -27.7981   50.4921   -9.3824 C.ar    1  UNL1        0.1401
     10 O         -29.1357   50.2817   -9.6489 O.3     1  UNL1       -0.4824
     11 C         -29.4459   50.6099  -11.0075 C.3     1  UNL1        0.1375
     12 C         -30.4482   51.7719  -11.0240 C.3     1  UNL1        0.0439
     13 C         -30.0424   49.3803  -11.7037 C.3     1  UNL1        0.0439
     14 C         -28.0846   51.0266  -11.6569 C.3     1  UNL1        0.0709
     15 H         -25.1672   51.7362  -12.4227 H       1  UNL1        0.1686
     16 N         -27.4410   48.6626   -6.2337 N.am    1  UNL1       -0.2808
     17 C         -27.8298   49.8593   -6.9245 C.2     1  UNL1        0.2525
     18 O         -28.8107   50.5308   -6.5009 O.2     1  UNL1       -0.2697
     19 H         -26.9344   47.9194   -6.7639 H       1  UNL1        0.1552
     20 C         -29.1048   47.4284   -4.8776 C.ar    1  UNL1        0.0204
     21 C         -29.6517   47.1219   -3.6205 C.ar    1  UNL1        0.0032
     22 C         -29.1095   47.6631   -2.4456 C.ar    1  UNL1        0.0710
     23 C         -28.0408   48.5659   -2.5391 C.ar    1  UNL1        0.0008
     24 C         -27.4734   48.8826   -3.7822 C.ar    1  UNL1       -0.0087
     25 C         -26.3244   49.8527   -3.8479 C.3     1  UNL1        0.0323
     26 C         -28.0003   48.3089   -4.9589 C.ar    1  UNL1        0.0448
     27 C         -29.7405   47.3648   -1.1078 C.3     1  UNL1        0.4186
     28 F         -29.3215   46.1208   -0.6745 F       1  UNL1       -0.1659
     29 F         -29.3738   48.3157   -0.1710 F       1  UNL1       -0.1659
     30 F         -31.1213   47.3667   -1.2059 F       1  UNL1       -0.1659
     31 C         -29.7520   46.8684   -6.1207 C.3     1  UNL1        0.1699
     32 C         -29.2430   46.4286   -8.3233 C.3     1  UNL1        0.1746
     33 O         -28.7465   46.4184   -7.0040 O.3     1  UNL1       -0.3463
     34 N         -22.5127   51.9314  -11.4508 N.pl3   1  UNL1       -0.2816
     35 H         -22.4702   51.8294  -12.4896 H       1  UNL1        0.1551
     36 C         -21.3827   52.4931  -10.7658 C.ar    1  UNL1        0.0889
     37 C         -20.2205   51.7262  -10.5550 C.ar    1  UNL1        0.1543
     38 F         -20.1434   50.4495  -11.0080 F       1  UNL1       -0.2028
     39 C         -19.1165   52.2862   -9.9052 C.ar    1  UNL1        0.0310
     40 C         -19.1554   53.6131   -9.4731 C.ar    1  UNL1        0.0033
     41 C         -20.2958   54.3879   -9.6958 C.ar    1  UNL1        0.0128
     42 C         -21.4067   53.8373  -10.3460 C.ar    1  UNL1        0.0733
     43 CL        -22.8300   54.8410  -10.5908 Cl      1  UNL1       -0.0809
@<TRIPOS>BOND
     1    32    33    1
     2    33    31    1
     3    31    20    1
     4    20    21   ar
     5    21    22   ar
     6    22    27    1
     7    27    28    1
     8    27    29    1
     9    27    30    1
    10    22    23   ar
    11    23    24   ar
    12    24    25    1
    13    24    26   ar
    14    26    16    1
    15    16    17   am
    16    17    18    2
    17    17     1    1
    18     1     2   ar
    19     2     3   ar
    20     3     4   ar
    21     4     5   ar
    22     5    34    1
    23    34    36    1
    24    36    37   ar
    25    37    38    1
    26    37    39   ar
    27    39    40   ar
    28    40    41   ar
    29    41    42   ar
    30    42    43    1
    31     5     6   ar
    32     6     7   ar
    33     7     8   ar
    34     8     9   ar
    35     9    10    1
    36    10    11    1
    37    11    12    1
    38    11    13    1
    39    11    14    1
    40    26    20   ar
    41     9     1   ar
    42     7     3   ar
    43    14     8    1
    44    42    36   ar
    45    16    19    1
    46    34    35    1
    47     6    15    1
@<TRIPOS>MOLECULE
*****
 43 47 0 0 0
SMALL
GASTEIGER

@<TRIPOS>ATOM
      1 C         -29.8630   49.2421   -3.3513 C.ar    1  UNL1        0.0888
      2 C         -30.6955   49.7535   -2.3168 C.ar    1  UNL1        0.0282
      3 C         -30.6442   49.1419   -1.0562 C.ar    1  UNL1        0.0997
      4 N         -31.3456   49.4614    0.0460 N.ar    1  UNL1       -0.2137
      5 C         -30.9037   48.5500    0.9542 C.ar    1  UNL1        0.1984
      6 N         -29.9817   47.6810    0.4640 N.ar    1  UNL1       -0.3255
      7 C         -29.8292   48.0772   -0.8039 C.ar    1  UNL1        0.0755
      8 C         -29.0185   47.5528   -1.7995 C.ar    1  UNL1        0.0325
      9 C         -29.0446   48.1214   -3.0492 C.ar    1  UNL1        0.1401
     10 O         -28.2026   47.4411   -3.9053 O.3     1  UNL1       -0.4824
     11 C         -27.5256   46.3801   -3.2232 C.3     1  UNL1        0.1375
     12 C         -26.0161   46.6564   -3.2438 C.3     1  UNL1        0.0439
     13 C         -27.8343   45.0494   -3.9205 C.3     1  UNL1        0.0439
     14 C         -28.0853   46.3998   -1.7621 C.3     1  UNL1        0.0709
     15 H         -29.5184   46.8773    0.9434 H       1  UNL1        0.1686
     16 N         -28.8452   49.5904   -5.6521 N.am    1  UNL1       -0.2808
     17 C         -29.8791   49.8644   -4.6949 C.2     1  UNL1        0.2525
     18 O         -30.8017   50.6730   -4.9907 O.2     1  UNL1       -0.2697
     19 H         -27.9134   49.2705   -5.3063 H       1  UNL1        0.1552
     20 C         -29.6702   49.3160   -7.9705 C.ar    1  UNL1        0.0204
     21 C         -29.7139   49.7688   -9.2994 C.ar    1  UNL1        0.0032
     22 C         -29.0496   50.9424   -9.6849 C.ar    1  UNL1        0.0710
     23 C         -28.2871   51.6387   -8.7363 C.ar    1  UNL1        0.0008
     24 C         -28.2331   51.2100   -7.4018 C.ar    1  UNL1       -0.0087
     25 C         -27.4083   51.9821   -6.4072 C.3     1  UNL1        0.0323
     26 C         -28.9313   50.0476   -7.0110 C.ar    1  UNL1        0.0448
     27 C         -29.0638   51.3873  -11.1267 C.3     1  UNL1        0.4186
     28 F         -29.9690   50.6163  -11.8316 F       1  UNL1       -0.1659
     29 F         -29.4324   52.7180  -11.2245 F       1  UNL1       -0.1659
     30 F         -27.8101   51.2444  -11.6959 F       1  UNL1       -0.1659
     31 C         -30.3532   48.0195   -7.6094 C.3     1  UNL1        0.1699
     32 C         -29.1304   46.0693   -7.5342 C.3     1  UNL1        0.1746
     33 O         -29.4775   47.2372   -6.8252 O.3     1  UNL1       -0.3463
     34 N         -31.4184   48.4910    2.2906 N.pl3   1  UNL1       -0.2816
     35 H         -31.9610   47.6426    2.5685 H       1  UNL1        0.1551
     36 C         -31.1442   49.4906    3.2841 C.ar    1  UNL1        0.0889
     37 C         -31.2259   50.8594    2.9631 C.ar    1  UNL1        0.1543
     38 F         -31.5790   51.2565    1.7146 F       1  UNL1       -0.2028
     39 C         -30.9774   51.8273    3.9409 C.ar    1  UNL1        0.0310
     40 C         -30.6594   51.4420    5.2446 C.ar    1  UNL1        0.0033
     41 C         -30.5961   50.0872    5.5777 C.ar    1  UNL1        0.0128
     42 C         -30.8436   49.1098    4.6064 C.ar    1  UNL1        0.0733
     43 CL        -30.7360   47.4146    5.0622 Cl      1  UNL1       -0.0809
@<TRIPOS>BOND
     1    32    33    1
     2    33    31    1
     3    31    20    1
     4    20    21   ar
     5    21    22   ar
     6    22    27    1
     7    27    28    1
     8    27    29    1
     9    27    30    1
    10    22    23   ar
    11    23    24   ar
    12    24    25    1
    13    24    26   ar
    14    26    16    1
    15    16    17   am
    16    17    18    2
    17    17     1    1
    18     1     2   ar
    19     2     3   ar
    20     3     4   ar
    21     4     5   ar
    22     5    34    1
    23    34    36    1
    24    36    37   ar
    25    37    38    1
    26    37    39   ar
    27    39    40   ar
    28    40    41   ar
    29    41    42   ar
    30    42    43    1
    31     5     6   ar
    32     6     7   ar
    33     7     8   ar
    34     8     9   ar
    35     9    10    1
    36    10    11    1
    37    11    12    1
    38    11    13    1
    39    11    14    1
    40    26    20   ar
    41     9     1   ar
    42     7     3   ar
    43    14     8    1
    44    42    36   ar
    45    16    19    1
    46    34    35    1
    47     6    15    1
@<TRIPOS>MOLECULE
*****
 43 47 0 0 0
SMALL
GASTEIGER

@<TRIPOS>ATOM
      1 C         -26.1777   49.9282   -7.3258 C.ar    1  UNL1        0.0888
      2 C         -24.8092   50.2890   -7.1784 C.ar    1  UNL1        0.0282
      3 C         -24.1908   50.9974   -8.2184 C.ar    1  UNL1        0.0997
      4 N         -22.9173   51.4251   -8.2833 N.ar    1  UNL1       -0.2137
      5 C         -22.8708   52.0370   -9.4975 C.ar    1  UNL1        0.1984
      6 N         -24.0415   51.9940  -10.1853 N.ar    1  UNL1       -0.3255
      7 C         -24.8612   51.3388   -9.3566 C.ar    1  UNL1        0.0755
      8 C         -26.1916   50.9869   -9.5289 C.ar    1  UNL1        0.0325
      9 C         -26.8306   50.2880   -8.5346 C.ar    1  UNL1        0.1401
     10 O         -28.1288   50.0016   -8.9054 O.3     1  UNL1       -0.4824
     11 C         -28.4293   50.5559  -10.1907 C.3     1  UNL1        0.1375
     12 C         -29.5498   51.5933  -10.0374 C.3     1  UNL1        0.0439
     13 C         -28.8676   49.4326  -11.1385 C.3     1  UNL1        0.0439
     14 C         -27.1008   51.2246  -10.6772 C.3     1  UNL1        0.0709
     15 H         -24.2539   52.3563  -11.1413 H       1  UNL1        0.1686
     16 N         -27.1656   49.8124   -4.9888 N.am    1  UNL1       -0.2808
     17 C         -26.8719   49.1880   -6.2474 C.2     1  UNL1        0.2525
     18 O         -27.1825   47.9784   -6.4287 O.2     1  UNL1       -0.2697
     19 H         -26.5879   50.6278   -4.6864 H       1  UNL1        0.1552
     20 C         -27.3957   48.3702   -2.9893 C.ar    1  UNL1        0.0204
     21 C         -28.2199   47.7290   -2.0498 C.ar    1  UNL1        0.0032
     22 C         -29.6136   47.8828   -2.0876 C.ar    1  UNL1        0.0710
     23 C         -30.1892   48.6446   -3.1143 C.ar    1  UNL1        0.0008
     24 C         -29.3870   49.2999   -4.0602 C.ar    1  UNL1       -0.0087
     25 C         -30.0361   50.1132   -5.1478 C.3     1  UNL1        0.0323
     26 C         -27.9832   49.1702   -3.9977 C.ar    1  UNL1        0.0448
     27 C         -30.4881   47.1462   -1.1029 C.3     1  UNL1        0.4186
     28 F         -29.7453   46.1568   -0.4863 F       1  UNL1       -0.1659
     29 F         -30.9753   48.0115   -0.1385 F       1  UNL1       -0.1659
     30 F         -31.5678   46.5653   -1.7455 F       1  UNL1       -0.1659
     31 C         -25.9057   48.1346   -2.9468 C.3     1  UNL1        0.1699
     32 C         -25.7204   46.0443   -3.8960 C.3     1  UNL1        0.1746
     33 O         -25.6598   46.7685   -2.6880 O.3     1  UNL1       -0.3463
     34 N         -21.6679   52.6213  -10.0136 N.pl3   1  UNL1       -0.2816
     35 H         -21.7578   53.3447  -10.7619 H       1  UNL1        0.1551
     36 C         -20.3638   52.3307   -9.4879 C.ar    1  UNL1        0.0889
     37 C         -20.0570   52.6089   -8.1419 C.ar    1  UNL1        0.1543
     38 F         -20.9920   53.1424   -7.3159 F       1  UNL1       -0.2028
     39 C         -18.7914   52.3046   -7.6315 C.ar    1  UNL1        0.0310
     40 C         -17.8289   51.7110   -8.4502 C.ar    1  UNL1        0.0033
     41 C         -18.1305   51.4125   -9.7808 C.ar    1  UNL1        0.0128
     42 C         -19.3947   51.7126  -10.3019 C.ar    1  UNL1        0.0733
     43 CL        -19.7284   51.3373  -11.9873 Cl      1  UNL1       -0.0809
@<TRIPOS>BOND
     1    32    33    1
     2    33    31    1
     3    31    20    1
     4    20    21   ar
     5    21    22   ar
     6    22    27    1
     7    27    28    1
     8    27    29    1
     9    27    30    1
    10    22    23   ar
    11    23    24   ar
    12    24    25    1
    13    24    26   ar
    14    26    16    1
    15    16    17   am
    16    17    18    2
    17    17     1    1
    18     1     2   ar
    19     2     3   ar
    20     3     4   ar
    21     4     5   ar
    22     5    34    1
    23    34    36    1
    24    36    37   ar
    25    37    38    1
    26    37    39   ar
    27    39    40   ar
    28    40    41   ar
    29    41    42   ar
    30    42    43    1
    31     5     6   ar
    32     6     7   ar
    33     7     8   ar
    34     8     9   ar
    35     9    10    1
    36    10    11    1
    37    11    12    1
    38    11    13    1
    39    11    14    1
    40    26    20   ar
    41     9     1   ar
    42     7     3   ar
    43    14     8    1
    44    42    36   ar
    45    16    19    1
    46    34    35    1
    47     6    15    1
@<TRIPOS>MOLECULE
*****
 43 47 0 0 0
SMALL
GASTEIGER

@<TRIPOS>ATOM
      1 C         -26.5301   49.4717   -7.2671 C.ar    1  UNL1        0.0888
      2 C         -25.1947   49.9112   -7.0477 C.ar    1  UNL1        0.0282
      3 C         -24.6112   50.7678   -7.9920 C.ar    1  UNL1        0.0997
      4 N         -23.3715   51.2894   -7.9793 N.ar    1  UNL1       -0.2137
      5 C         -23.3480   52.0280   -9.1215 C.ar    1  UNL1        0.1984
      6 N         -24.4998   51.9749   -9.8399 N.ar    1  UNL1       -0.3255
      7 C         -25.2840   51.1792   -9.1053 C.ar    1  UNL1        0.0755
      8 C         -26.5817   50.7539   -9.3475 C.ar    1  UNL1        0.0325
      9 C         -27.1857   49.9100   -8.4482 C.ar    1  UNL1        0.1401
     10 O         -28.4524   49.5729   -8.8801 O.3     1  UNL1       -0.4824
     11 C         -28.7694   50.2373  -10.1079 C.3     1  UNL1        0.1375
     12 C         -29.9656   51.1704   -9.8762 C.3     1  UNL1        0.0439
     13 C         -29.1070   49.1923  -11.1786 C.3     1  UNL1        0.0439
     14 C         -27.4850   51.0464  -10.4878 C.3     1  UNL1        0.0709
     15 H         -24.7208   52.4203  -10.7580 H       1  UNL1        0.1686
     16 N         -27.3634   48.9687   -4.9211 N.am    1  UNL1       -0.2808
     17 C         -27.1876   48.5741   -6.2899 C.2     1  UNL1        0.2525
     18 O         -27.5717   47.4310   -6.6615 O.2     1  UNL1       -0.2697
     19 H         -26.7253   49.6922   -4.5216 H       1  UNL1        0.1552
     20 C         -29.5124   48.4816   -3.7919 C.ar    1  UNL1        0.0204
     21 C         -30.2464   47.7218   -2.8661 C.ar    1  UNL1        0.0032
     22 C         -29.6476   46.6680   -2.1602 C.ar    1  UNL1        0.0710
     23 C         -28.2818   46.4106   -2.3459 C.ar    1  UNL1        0.0008
     24 C         -27.5293   47.1511   -3.2693 C.ar    1  UNL1       -0.0087
     25 C         -26.0659   46.8472   -3.4477 C.3     1  UNL1        0.0323
     26 C         -28.1445   48.1881   -4.0026 C.ar    1  UNL1        0.0448
     27 C         -30.4361   45.8949   -1.1319 C.3     1  UNL1        0.4186
     28 F         -30.8691   44.7067   -1.6898 F       1  UNL1       -0.1659
     29 F         -29.6538   45.6147   -0.0248 F       1  UNL1       -0.1659
     30 F         -31.5357   46.6220   -0.7095 F       1  UNL1       -0.1659
     31 C         -30.1801   49.6412   -4.4898 C.3     1  UNL1        0.1699
     32 C         -31.5614   51.4604   -4.1944 C.3     1  UNL1        0.1746
     33 O         -30.8994   50.4008   -3.5414 O.3     1  UNL1       -0.3463
     34 N         -22.1821   52.7476   -9.5427 N.pl3   1  UNL1       -0.2816
     35 H         -22.3214   53.6540  -10.0431 H       1  UNL1        0.1551
     36 C         -20.8445   52.3318   -9.2276 C.ar    1  UNL1        0.0889
     37 C         -20.2843   52.6190   -7.9679 C.ar    1  UNL1        0.1543
     38 F         -21.0035   53.2803   -7.0263 F       1  UNL1       -0.2028
     39 C         -18.9885   52.1933   -7.6607 C.ar    1  UNL1        0.0310
     40 C         -18.2474   51.4695   -8.5966 C.ar    1  UNL1        0.0033
     41 C         -18.8019   51.1620   -9.8410 C.ar    1  UNL1        0.0128
     42 C         -20.0987   51.5831  -10.1587 C.ar    1  UNL1        0.0733
     43 CL        -20.7535   51.1910  -11.7432 Cl      1  UNL1       -0.0809
@<TRIPOS>BOND
     1    32    33    1
     2    33    31    1
     3    31    20    1
     4    20    21   ar
     5    21    22   ar
     6    22    27    1
     7    27    28    1
     8    27    29    1
     9    27    30    1
    10    22    23   ar
    11    23    24   ar
    12    24    25    1
    13    24    26   ar
    14    26    16    1
    15    16    17   am
    16    17    18    2
    17    17     1    1
    18     1     2   ar
    19     2     3   ar
    20     3     4   ar
    21     4     5   ar
    22     5    34    1
    23    34    36    1
    24    36    37   ar
    25    37    38    1
    26    37    39   ar
    27    39    40   ar
    28    40    41   ar
    29    41    42   ar
    30    42    43    1
    31     5     6   ar
    32     6     7   ar
    33     7     8   ar
    34     8     9   ar
    35     9    10    1
    36    10    11    1
    37    11    12    1
    38    11    13    1
    39    11    14    1
    40    26    20   ar
    41     9     1   ar
    42     7     3   ar
    43    14     8    1
    44    42    36   ar
    45    16    19    1
    46    34    35    1
    47     6    15    1
@<TRIPOS>MOLECULE
*****
 43 47 0 0 0
SMALL
GASTEIGER

@<TRIPOS>ATOM
      1 C         -26.2634   49.5109   -7.7513 C.ar    1  UNL1        0.0888
      2 C         -24.9168   49.8726   -7.4679 C.ar    1  UNL1        0.0282
      3 C         -24.2886   50.8090   -8.3012 C.ar    1  UNL1        0.0997
      4 N         -23.0315   51.2793   -8.2148 N.ar    1  UNL1       -0.2137
      5 C         -22.9640   52.1420   -9.2646 C.ar    1  UNL1        0.1984
      6 N         -24.1057   52.2140   -9.9974 N.ar    1  UNL1       -0.3255
      7 C         -24.9290   51.3693   -9.3676 C.ar    1  UNL1        0.0755
      8 C         -26.2371   51.0229   -9.6716 C.ar    1  UNL1        0.0325
      9 C         -26.8846   50.1051   -8.8818 C.ar    1  UNL1        0.1401
     10 O         -28.1557   49.8667   -9.3638 O.3     1  UNL1       -0.4824
     11 C         -28.4298   50.6781  -10.5109 C.3     1  UNL1        0.1375
     12 C         -29.5954   51.6225  -10.1875 C.3     1  UNL1        0.0439
     13 C         -28.7877   49.7752  -11.6980 C.3     1  UNL1        0.0439
     14 C         -27.1116   51.4769  -10.7811 C.3     1  UNL1        0.0709
     15 H         -24.2964   52.7691  -10.8609 H       1  UNL1        0.1686
     16 N         -27.0407   48.7129   -5.4687 N.am    1  UNL1       -0.2808
     17 C         -26.9675   48.5328   -6.8908 C.2     1  UNL1        0.2525
     18 O         -27.4850   47.5082   -7.4150 O.2     1  UNL1       -0.2697
     19 H         -26.3135   49.2965   -4.9989 H       1  UNL1        0.1552
     20 C         -27.4324   46.5652   -4.3004 C.ar    1  UNL1        0.0204
     21 C         -28.2639   45.7515   -3.5133 C.ar    1  UNL1        0.0032
     22 C         -29.5010   46.2199   -3.0470 C.ar    1  UNL1        0.0710
     23 C         -29.9320   47.5004   -3.4220 C.ar    1  UNL1        0.0008
     24 C         -29.1169   48.3340   -4.2018 C.ar    1  UNL1       -0.0087
     25 C         -29.6076   49.7047   -4.5841 C.3     1  UNL1        0.0323
     26 C         -27.8580   47.8711   -4.6401 C.ar    1  UNL1        0.0448
     27 C         -30.4050   45.3156   -2.2458 C.3     1  UNL1        0.4186
     28 F         -30.7607   45.9524   -1.0717 F       1  UNL1       -0.1659
     29 F         -31.5515   45.0127   -2.9599 F       1  UNL1       -0.1659
     30 F         -29.7628   44.1285   -1.9383 F       1  UNL1       -0.1659
     31 C         -26.1343   46.0038   -4.8272 C.3     1  UNL1        0.1699
     32 C         -24.9270   46.1484   -2.8712 C.3     1  UNL1        0.1746
     33 O         -25.0555   46.6481   -4.1831 O.3     1  UNL1       -0.3463
     34 N         -21.7669   52.8611   -9.5874 N.pl3   1  UNL1       -0.2816
     35 H         -21.8576   53.8677   -9.8519 H       1  UNL1        0.1551
     36 C         -20.4531   52.2936   -9.4725 C.ar    1  UNL1        0.0889
     37 C         -19.8904   51.5701  -10.5417 C.ar    1  UNL1        0.1543
     38 F         -20.5738   51.4096  -11.7029 F       1  UNL1       -0.2028
     39 C         -18.6025   51.0376  -10.4301 C.ar    1  UNL1        0.0310
     40 C         -17.8619   51.2313   -9.2627 C.ar    1  UNL1        0.0033
     41 C         -18.4033   51.9648   -8.2047 C.ar    1  UNL1        0.0128
     42 C         -19.6918   52.5028   -8.3060 C.ar    1  UNL1        0.0733
     43 CL        -20.3440   53.4047   -6.9443 Cl      1  UNL1       -0.0809
@<TRIPOS>BOND
     1    32    33    1
     2    33    31    1
     3    31    20    1
     4    20    21   ar
     5    21    22   ar
     6    22    27    1
     7    27    28    1
     8    27    29    1
     9    27    30    1
    10    22    23   ar
    11    23    24   ar
    12    24    25    1
    13    24    26   ar
    14    26    16    1
    15    16    17   am
    16    17    18    2
    17    17     1    1
    18     1     2   ar
    19     2     3   ar
    20     3     4   ar
    21     4     5   ar
    22     5    34    1
    23    34    36    1
    24    36    37   ar
    25    37    38    1
    26    37    39   ar
    27    39    40   ar
    28    40    41   ar
    29    41    42   ar
    30    42    43    1
    31     5     6   ar
    32     6     7   ar
    33     7     8   ar
    34     8     9   ar
    35     9    10    1
    36    10    11    1
    37    11    12    1
    38    11    13    1
    39    11    14    1
    40    26    20   ar
    41     9     1   ar
    42     7     3   ar
    43    14     8    1
    44    42    36   ar
    45    16    19    1
    46    34    35    1
    47     6    15    1
