@<TRIPOS>MOLECULE
*****
 30 33 0 0 0
SMALL
GASTEIGER

@<TRIPOS>ATOM
      1 N         -24.3531   -9.6995  -11.0937 N.ar    1  UNL1       -0.3243
      2 C         -23.3678   -9.3086  -10.2429 C.ar    1  UNL1        0.0600
      3 C         -23.4529   -8.4179   -9.1669 C.ar    1  UNL1        0.0177
      4 C         -22.2887   -8.1656   -8.4189 C.ar    1  UNL1        0.0082
      5 C         -21.0714   -8.8028   -8.7448 C.ar    1  UNL1        0.0347
      6 BR        -19.5055   -8.4455   -7.7124 Br      1  UNL1       -0.0490
      7 C         -21.0069   -9.7049   -9.8212 C.ar    1  UNL1        0.0082
      8 C         -22.1742   -9.9348  -10.5467 C.ar    1  UNL1        0.0177
      9 C         -22.4274  -10.7540  -11.6221 C.ar    1  UNL1        0.0177
     10 C         -21.6009  -11.6178  -12.3337 C.ar    1  UNL1        0.0079
     11 C         -22.1628  -12.3445  -13.3988 C.ar    1  UNL1        0.0307
     12 BR        -21.0221  -13.5344  -14.3789 Br      1  UNL1       -0.0493
     13 C         -23.5403  -12.1941  -13.7255 C.ar    1  UNL1       -0.0142
     14 C         -24.1476  -12.9727  -14.8585 C.3     1  UNL1        0.0316
     15 C         -24.3477  -11.3078  -12.9767 C.ar    1  UNL1        0.0134
     16 C         -23.7612  -10.5924  -11.9292 C.ar    1  UNL1        0.0597
     17 C         -25.7440   -9.2292  -11.1461 C.3     1  UNL1        0.1429
     18 C         -25.9513   -8.2109  -12.2805 C.3     1  UNL1        0.2027
     19 F         -27.0601   -8.5795  -13.0216 F       1  UNL1       -0.2334
     20 C         -26.1043   -6.7648  -11.7789 C.3     1  UNL1        0.1259
     21 N         -25.0664   -5.8867  -12.3209 N.pl3   1  UNL1       -0.3157
     22 H         -25.3549   -4.9480  -12.6760 H       1  UNL1        0.1483
     23 C         -21.8004   -7.4601  -13.0312 C.ar    1  UNL1        0.2261
     24 C         -20.9587   -6.8156  -12.1209 C.ar    1  UNL1        0.0578
     25 C         -21.4883   -5.8486  -11.2647 C.ar    1  UNL1        0.0077
     26 C         -22.8471   -5.5340  -11.3255 C.ar    1  UNL1        0.0343
     27 C         -23.6659   -6.1943  -12.2513 C.ar    1  UNL1        0.1317
     28 N         -23.1237   -7.1374  -13.0714 N.ar    1  UNL1       -0.1969
     29 C         -21.9551   -8.8697  -15.0590 C.3     1  UNL1        0.2542
     30 O         -21.2737   -8.4280  -13.8908 O.3     1  UNL1       -0.4561
@<TRIPOS>BOND
     1    29    30    1
     2    30    23    1
     3    23    24   ar
     4    24    25   ar
     5    25    26   ar
     6    26    27   ar
     7    27    21    1
     8    21    20    1
     9    20    18    1
    10    18    19    1
    11    18    17    1
    12    17     1    1
    13     1     2   ar
    14     2     3   ar
    15     3     4   ar
    16     4     5   ar
    17     5     6    1
    18     5     7   ar
    19     7     8   ar
    20     8     9   ar
    21     9    10   ar
    22    10    11   ar
    23    11    12    1
    24    11    13   ar
    25    13    14    1
    26    13    15   ar
    27    15    16   ar
    28    27    28   ar
    29    28    23   ar
    30    16     1   ar
    31     8     2   ar
    32    16     9   ar
    33    21    22    1
@<TRIPOS>MOLECULE
*****
 30 33 0 0 0
SMALL
GASTEIGER

@<TRIPOS>ATOM
      1 N         -21.7482  -12.7542  -14.5527 N.ar    1  UNL1       -0.3243
      2 C         -21.3203  -12.2190  -13.3789 C.ar    1  UNL1        0.0600
      3 C         -20.7984  -12.8815  -12.2621 C.ar    1  UNL1        0.0177
      4 C         -20.4167  -12.1099  -11.1496 C.ar    1  UNL1        0.0082
      5 C         -20.5515  -10.7043  -11.1680 C.ar    1  UNL1        0.0347
      6 BR        -20.0237   -9.6791   -9.6461 Br      1  UNL1       -0.0490
      7 C         -21.0657  -10.0540  -12.3034 C.ar    1  UNL1        0.0082
      8 C         -21.4382  -10.8424  -13.3904 C.ar    1  UNL1        0.0177
      9 C         -21.9505  -10.5061  -14.6217 C.ar    1  UNL1        0.0177
     10 C         -22.2629   -9.2710  -15.1806 C.ar    1  UNL1        0.0079
     11 C         -22.7710   -9.2470  -16.4919 C.ar    1  UNL1        0.0307
     12 BR        -23.2016   -7.5436  -17.2607 Br      1  UNL1       -0.0493
     13 C         -22.9513  -10.4591  -17.2165 C.ar    1  UNL1       -0.0142
     14 C         -23.4878  -10.4391  -18.6202 C.3     1  UNL1        0.0316
     15 C         -22.6196  -11.6942  -16.6142 C.ar    1  UNL1        0.0134
     16 C         -22.1246  -11.6889  -15.3073 C.ar    1  UNL1        0.0597
     17 C         -21.8406  -14.1736  -14.9208 C.3     1  UNL1        0.1429
     18 C         -23.2557  -14.5394  -15.4007 C.3     1  UNL1        0.2027
     19 F         -23.2223  -15.7879  -15.9963 F       1  UNL1       -0.2334
     20 C         -24.3044  -14.5153  -14.2756 C.3     1  UNL1        0.1259
     21 N         -25.2741  -13.4341  -14.4567 N.pl3   1  UNL1       -0.3157
     22 H         -26.1413  -13.6396  -15.0011 H       1  UNL1        0.1483
     23 C         -24.5152  -10.8854  -11.8927 C.ar    1  UNL1        0.2261
     24 C         -24.9421   -9.7079  -12.5123 C.ar    1  UNL1        0.0578
     25 C         -25.4869   -9.7683  -13.7960 C.ar    1  UNL1        0.0077
     26 C         -25.5990  -10.9980  -14.4475 C.ar    1  UNL1        0.0343
     27 C         -25.1589  -12.1615  -13.8025 C.ar    1  UNL1        0.1317
     28 N         -24.6359  -12.0742  -12.5477 N.ar    1  UNL1       -0.1969
     29 C         -24.0999   -9.6885   -9.7672 C.3     1  UNL1        0.2542
     30 O         -23.9682  -10.8287  -10.6079 O.3     1  UNL1       -0.4561
@<TRIPOS>BOND
     1    29    30    1
     2    30    23    1
     3    23    24   ar
     4    24    25   ar
     5    25    26   ar
     6    26    27   ar
     7    27    21    1
     8    21    20    1
     9    20    18    1
    10    18    19    1
    11    18    17    1
    12    17     1    1
    13     1     2   ar
    14     2     3   ar
    15     3     4   ar
    16     4     5   ar
    17     5     6    1
    18     5     7   ar
    19     7     8   ar
    20     8     9   ar
    21     9    10   ar
    22    10    11   ar
    23    11    12    1
    24    11    13   ar
    25    13    14    1
    26    13    15   ar
    27    15    16   ar
    28    27    28   ar
    29    28    23   ar
    30    16     1   ar
    31     8     2   ar
    32    16     9   ar
    33    21    22    1
@<TRIPOS>MOLECULE
*****
 30 33 0 0 0
SMALL
GASTEIGER

@<TRIPOS>ATOM
      1 N         -24.0631  -10.1968  -11.6458 N.ar    1  UNL1       -0.3243
      2 C         -23.8699  -11.1163  -12.6279 C.ar    1  UNL1        0.0600
      3 C         -24.7872  -11.5752  -13.5800 C.ar    1  UNL1        0.0177
      4 C         -24.3553  -12.5395  -14.5086 C.ar    1  UNL1        0.0082
      5 C         -23.0285  -13.0221  -14.4810 C.ar    1  UNL1        0.0347
      6 BR        -22.4661  -14.3292  -15.7540 Br      1  UNL1       -0.0490
      7 C         -22.1164  -12.5405  -13.5257 C.ar    1  UNL1        0.0082
      8 C         -22.5710  -11.5874  -12.6163 C.ar    1  UNL1        0.0177
      9 C         -21.9278  -10.9298  -11.5939 C.ar    1  UNL1        0.0177
     10 C         -20.6160  -11.0029  -11.1363 C.ar    1  UNL1        0.0079
     11 C         -20.2446  -10.1815  -10.0566 C.ar    1  UNL1        0.0307
     12 BR        -18.4361  -10.2839   -9.4267 Br      1  UNL1       -0.0493
     13 C         -21.1929   -9.3021   -9.4615 C.ar    1  UNL1       -0.0142
     14 C         -20.8000   -8.4176   -8.3117 C.3     1  UNL1        0.0316
     15 C         -22.5159   -9.2552   -9.9570 C.ar    1  UNL1        0.0134
     16 C         -22.8594  -10.0883  -11.0252 C.ar    1  UNL1        0.0597
     17 C         -25.3075   -9.5033  -11.2863 C.3     1  UNL1        0.1429
     18 C         -25.6893   -8.4501  -12.3407 C.3     1  UNL1        0.2027
     19 F         -26.9651   -8.7173  -12.8050 F       1  UNL1       -0.2334
     20 C         -25.6064   -7.0065  -11.8158 C.3     1  UNL1        0.1259
     21 N         -24.5529   -6.2423  -12.4853 N.pl3   1  UNL1       -0.3157
     22 H         -24.7531   -5.2490  -12.7379 H       1  UNL1        0.1483
     23 C         -21.7100   -8.1590  -13.8603 C.ar    1  UNL1        0.2261
     24 C         -20.6526   -7.7412  -13.0480 C.ar    1  UNL1        0.0578
     25 C         -20.8934   -6.8122  -12.0344 C.ar    1  UNL1        0.0077
     26 C         -22.1818   -6.3098  -11.8423 C.ar    1  UNL1        0.0343
     27 C         -23.2215   -6.7446  -12.6750 C.ar    1  UNL1        0.1317
     28 N         -22.9593   -7.6558  -13.6532 N.ar    1  UNL1       -0.1969
     29 C         -22.4531   -9.4285  -15.8501 C.3     1  UNL1        0.2542
     30 O         -21.4726   -9.0882  -14.8769 O.3     1  UNL1       -0.4561
@<TRIPOS>BOND
     1    29    30    1
     2    30    23    1
     3    23    24   ar
     4    24    25   ar
     5    25    26   ar
     6    26    27   ar
     7    27    21    1
     8    21    20    1
     9    20    18    1
    10    18    19    1
    11    18    17    1
    12    17     1    1
    13     1     2   ar
    14     2     3   ar
    15     3     4   ar
    16     4     5   ar
    17     5     6    1
    18     5     7   ar
    19     7     8   ar
    20     8     9   ar
    21     9    10   ar
    22    10    11   ar
    23    11    12    1
    24    11    13   ar
    25    13    14    1
    26    13    15   ar
    27    15    16   ar
    28    27    28   ar
    29    28    23   ar
    30    16     1   ar
    31     8     2   ar
    32    16     9   ar
    33    21    22    1
@<TRIPOS>MOLECULE
*****
 30 33 0 0 0
SMALL
GASTEIGER

@<TRIPOS>ATOM
      1 N         -21.6454  -10.8100  -11.2173 N.ar    1  UNL1       -0.3243
      2 C         -22.7440  -10.1946  -10.7058 C.ar    1  UNL1        0.0600
      3 C         -22.8202   -9.3189   -9.6168 C.ar    1  UNL1        0.0177
      4 C         -24.0800   -8.7991   -9.2685 C.ar    1  UNL1        0.0082
      5 C         -25.2322   -9.1489  -10.0064 C.ar    1  UNL1        0.0347
      6 BR        -26.9305   -8.4277   -9.5150 Br      1  UNL1       -0.0490
      7 C         -25.1353  -10.0198  -11.1056 C.ar    1  UNL1        0.0082
      8 C         -23.8759  -10.5220  -11.4274 C.ar    1  UNL1        0.0177
      9 C         -23.4657  -11.3664  -12.4325 C.ar    1  UNL1        0.0177
     10 C         -24.1744  -11.9927  -13.4529 C.ar    1  UNL1        0.0079
     11 C         -23.4611  -12.8046  -14.3529 C.ar    1  UNL1        0.0307
     12 BR        -24.4397  -13.6675  -15.7585 Br      1  UNL1       -0.0493
     13 C         -22.0537  -12.9686  -14.2147 C.ar    1  UNL1       -0.0142
     14 C         -21.2853  -13.8299  -15.1772 C.3     1  UNL1        0.0316
     15 C         -21.3692  -12.3133  -13.1658 C.ar    1  UNL1        0.0134
     16 C         -22.1044  -11.5194  -12.2813 C.ar    1  UNL1        0.0597
     17 C         -20.2668  -10.7705  -10.7110 C.3     1  UNL1        0.1429
     18 C         -19.8368   -9.3354  -10.3613 C.3     1  UNL1        0.2027
     19 F         -18.7252   -9.3844   -9.5389 F       1  UNL1       -0.2334
     20 C         -19.5444   -8.4698  -11.5989 C.3     1  UNL1        0.1259
     21 N         -20.6396   -7.5427  -11.8872 N.pl3   1  UNL1       -0.3157
     22 H         -20.6168   -6.6016  -11.4353 H       1  UNL1        0.1483
     23 C         -22.3245   -8.8870  -14.8873 C.ar    1  UNL1        0.2261
     24 C         -23.6005   -8.3270  -14.7844 C.ar    1  UNL1        0.0578
     25 C         -23.8980   -7.4947  -13.7039 C.ar    1  UNL1        0.0077
     26 C         -22.9237   -7.2311  -12.7394 C.ar    1  UNL1        0.0343
     27 C         -21.6540   -7.8100  -12.8672 C.ar    1  UNL1        0.1317
     28 N         -21.3893   -8.6143  -13.9344 N.ar    1  UNL1       -0.1969
     29 C         -23.0086  -10.1651  -16.8926 C.3     1  UNL1        0.2542
     30 O         -22.0233   -9.7216  -15.9670 O.3     1  UNL1       -0.4561
@<TRIPOS>BOND
     1    29    30    1
     2    30    23    1
     3    23    24   ar
     4    24    25   ar
     5    25    26   ar
     6    26    27   ar
     7    27    21    1
     8    21    20    1
     9    20    18    1
    10    18    19    1
    11    18    17    1
    12    17     1    1
    13     1     2   ar
    14     2     3   ar
    15     3     4   ar
    16     4     5   ar
    17     5     6    1
    18     5     7   ar
    19     7     8   ar
    20     8     9   ar
    21     9    10   ar
    22    10    11   ar
    23    11    12    1
    24    11    13   ar
    25    13    14    1
    26    13    15   ar
    27    15    16   ar
    28    27    28   ar
    29    28    23   ar
    30    16     1   ar
    31     8     2   ar
    32    16     9   ar
    33    21    22    1
@<TRIPOS>MOLECULE
*****
 30 33 0 0 0
SMALL
GASTEIGER

@<TRIPOS>ATOM
      1 N         -22.8247   -9.2755  -11.5071 N.ar    1  UNL1       -0.3243
      2 C         -24.0139   -8.7401  -11.8901 C.ar    1  UNL1        0.0600
      3 C         -24.6094   -7.5498  -11.4576 C.ar    1  UNL1        0.0177
      4 C         -25.8570   -7.1946  -12.0016 C.ar    1  UNL1        0.0082
      5 C         -26.4833   -8.0170  -12.9637 C.ar    1  UNL1        0.0347
      6 BR        -28.1757   -7.5114  -13.6889 Br      1  UNL1       -0.0490
      7 C         -25.8647   -9.2029  -13.3964 C.ar    1  UNL1        0.0082
      8 C         -24.6304   -9.5322  -12.8396 C.ar    1  UNL1        0.0177
      9 C         -23.7892  -10.5969  -13.0638 C.ar    1  UNL1        0.0177
     10 C         -23.8977  -11.6896  -13.9181 C.ar    1  UNL1        0.0079
     11 C         -22.8480  -12.6257  -13.9325 C.ar    1  UNL1        0.0307
     12 BR        -22.9994  -14.1315  -15.1104 Br      1  UNL1       -0.0493
     13 C         -21.7110  -12.4454  -13.0949 C.ar    1  UNL1       -0.0142
     14 C         -20.5836  -13.4391  -13.1108 C.3     1  UNL1        0.0316
     15 C         -21.6372  -11.3204  -12.2423 C.ar    1  UNL1        0.0134
     16 C         -22.6982  -10.4109  -12.2424 C.ar    1  UNL1        0.0597
     17 C         -21.8941   -8.7771  -10.4853 C.3     1  UNL1        0.1429
     18 C         -20.6877   -8.0657  -11.1220 C.3     1  UNL1        0.2027
     19 F         -19.7330   -9.0089  -11.4586 F       1  UNL1       -0.2334
     20 C         -21.0596   -7.2229  -12.3539 C.3     1  UNL1        0.1259
     21 N         -20.5818   -7.8319  -13.5959 N.pl3   1  UNL1       -0.3157
     22 H         -19.5649   -8.0570  -13.6719 H       1  UNL1        0.1483
     23 C         -22.0463   -9.8833  -16.2966 C.ar    1  UNL1        0.2261
     24 C         -23.1448   -9.1137  -16.6886 C.ar    1  UNL1        0.0578
     25 C         -23.3961   -7.9011  -16.0444 C.ar    1  UNL1        0.0077
     26 C         -22.5532   -7.4701  -15.0183 C.ar    1  UNL1        0.0343
     27 C         -21.4615   -8.2651  -14.6444 C.ar    1  UNL1        0.1317
     28 N         -21.2367   -9.4416  -15.2935 N.ar    1  UNL1       -0.1969
     29 C         -22.7511  -11.7438  -17.7679 C.3     1  UNL1        0.2542
     30 O         -21.7920  -11.0984  -16.9385 O.3     1  UNL1       -0.4561
@<TRIPOS>BOND
     1    29    30    1
     2    30    23    1
     3    23    24   ar
     4    24    25   ar
     5    25    26   ar
     6    26    27   ar
     7    27    21    1
     8    21    20    1
     9    20    18    1
    10    18    19    1
    11    18    17    1
    12    17     1    1
    13     1     2   ar
    14     2     3   ar
    15     3     4   ar
    16     4     5   ar
    17     5     6    1
    18     5     7   ar
    19     7     8   ar
    20     8     9   ar
    21     9    10   ar
    22    10    11   ar
    23    11    12    1
    24    11    13   ar
    25    13    14    1
    26    13    15   ar
    27    15    16   ar
    28    27    28   ar
    29    28    23   ar
    30    16     1   ar
    31     8     2   ar
    32    16     9   ar
    33    21    22    1
@<TRIPOS>MOLECULE
*****
 30 33 0 0 0
SMALL
GASTEIGER

@<TRIPOS>ATOM
      1 N         -24.5674  -10.1172  -12.2506 N.ar    1  UNL1       -0.3243
      2 C         -24.4934  -11.2072  -13.0593 C.ar    1  UNL1        0.0600
      3 C         -25.4697  -11.7139  -13.9246 C.ar    1  UNL1        0.0177
      4 C         -25.1630  -12.8659  -14.6712 C.ar    1  UNL1        0.0082
      5 C         -23.8997  -13.4856  -14.5526 C.ar    1  UNL1        0.0347
      6 BR        -23.5070  -15.0469  -15.5790 Br      1  UNL1       -0.0490
      7 C         -22.9260  -12.9554  -13.6881 C.ar    1  UNL1        0.0082
      8 C         -23.2568  -11.8151  -12.9586 C.ar    1  UNL1        0.0177
      9 C         -22.5292  -11.0704  -12.0599 C.ar    1  UNL1        0.0177
     10 C         -21.2283  -11.2141  -11.5880 C.ar    1  UNL1        0.0079
     11 C         -20.7514  -10.2683  -10.6627 C.ar    1  UNL1        0.0307
     12 BR        -18.9581  -10.4681  -10.0128 Br      1  UNL1       -0.0493
     13 C         -21.5851   -9.1971  -10.2334 C.ar    1  UNL1       -0.0142
     14 C         -21.0786   -8.1799   -9.2498 C.3     1  UNL1        0.0316
     15 C         -22.9006   -9.0843  -10.7382 C.ar    1  UNL1        0.0134
     16 C         -23.3511  -10.0429  -11.6500 C.ar    1  UNL1        0.0597
     17 C         -25.7197   -9.2343  -12.0236 C.3     1  UNL1        0.1429
     18 C         -26.0488   -8.4053  -13.2770 C.3     1  UNL1        0.2027
     19 F         -27.4133   -8.1805  -13.3246 F       1  UNL1       -0.2334
     20 C         -25.2878   -7.0699  -13.3398 C.3     1  UNL1        0.1259
     21 N         -24.4470   -6.9769  -14.5341 N.pl3   1  UNL1       -0.3157
     22 H         -24.4880   -6.0970  -15.0950 H       1  UNL1        0.1483
     23 C         -22.8898   -9.9454  -16.0863 C.ar    1  UNL1        0.2261
     24 C         -21.5965   -9.9096  -15.5586 C.ar    1  UNL1        0.0578
     25 C         -21.2443   -8.8852  -14.6782 C.ar    1  UNL1        0.0077
     26 C         -22.1818   -7.9093  -14.3349 C.ar    1  UNL1        0.0343
     27 C         -23.4700   -7.9692  -14.8830 C.ar    1  UNL1        0.1317
     28 N         -23.7883   -8.9827  -15.7358 N.ar    1  UNL1       -0.1969
     29 C         -22.3051  -11.9099  -17.4726 C.3     1  UNL1        0.2542
     30 O         -23.2458  -10.9689  -16.9690 O.3     1  UNL1       -0.4561
@<TRIPOS>BOND
     1    29    30    1
     2    30    23    1
     3    23    24   ar
     4    24    25   ar
     5    25    26   ar
     6    26    27   ar
     7    27    21    1
     8    21    20    1
     9    20    18    1
    10    18    19    1
    11    18    17    1
    12    17     1    1
    13     1     2   ar
    14     2     3   ar
    15     3     4   ar
    16     4     5   ar
    17     5     6    1
    18     5     7   ar
    19     7     8   ar
    20     8     9   ar
    21     9    10   ar
    22    10    11   ar
    23    11    12    1
    24    11    13   ar
    25    13    14    1
    26    13    15   ar
    27    15    16   ar
    28    27    28   ar
    29    28    23   ar
    30    16     1   ar
    31     8     2   ar
    32    16     9   ar
    33    21    22    1
@<TRIPOS>MOLECULE
*****
 30 33 0 0 0
SMALL
GASTEIGER

@<TRIPOS>ATOM
      1 N         -23.5804  -11.6583  -13.3992 N.ar    1  UNL1       -0.3243
      2 C         -24.1977  -10.4474  -13.3979 C.ar    1  UNL1        0.0600
      3 C         -25.3986  -10.0846  -14.0183 C.ar    1  UNL1        0.0177
      4 C         -25.8467   -8.7590  -13.8754 C.ar    1  UNL1        0.0082
      5 C         -25.1048   -7.8258  -13.1185 C.ar    1  UNL1        0.0347
      6 BR        -25.7360   -6.0329  -12.9375 Br      1  UNL1       -0.0490
      7 C         -23.9071   -8.2109  -12.4911 C.ar    1  UNL1        0.0082
      8 C         -23.4850   -9.5293  -12.6508 C.ar    1  UNL1        0.0177
      9 C         -22.3864  -10.1957  -12.1604 C.ar    1  UNL1        0.0177
     10 C         -21.3412   -9.7701  -11.3468 C.ar    1  UNL1        0.0079
     11 C         -20.3498  -10.7052  -10.9988 C.ar    1  UNL1        0.0307
     12 BR        -18.9095  -10.1167   -9.8776 Br      1  UNL1       -0.0493
     13 C         -20.4285  -12.0466  -11.4692 C.ar    1  UNL1       -0.0142
     14 C         -19.3755  -13.0517  -11.0954 C.3     1  UNL1        0.0316
     15 C         -21.5080  -12.4408  -12.2923 C.ar    1  UNL1        0.0134
     16 C         -22.4741  -11.4888  -12.6290 C.ar    1  UNL1        0.0597
     17 C         -23.9796  -12.8778  -14.1149 C.3     1  UNL1        0.1429
     18 C         -23.2232  -13.0216  -15.4468 C.3     1  UNL1        0.2027
     19 F         -23.0291  -14.3654  -15.7134 F       1  UNL1       -0.2334
     20 C         -23.9378  -12.3433  -16.6281 C.3     1  UNL1        0.1259
     21 N         -23.0522  -11.4270  -17.3479 N.pl3   1  UNL1       -0.3157
     22 H         -22.7821  -11.6737  -18.3261 H       1  UNL1        0.1483
     23 C         -22.9944   -7.7868  -16.7223 C.ar    1  UNL1        0.2261
     24 C         -21.9116   -7.6550  -15.8489 C.ar    1  UNL1        0.0578
     25 C         -21.1973   -8.7920  -15.4675 C.ar    1  UNL1        0.0077
     26 C         -21.5693  -10.0450  -15.9581 C.ar    1  UNL1        0.0343
     27 C         -22.6619  -10.1464  -16.8296 C.ar    1  UNL1        0.1317
     28 N         -23.3382   -9.0199  -17.1893 N.ar    1  UNL1       -0.1969
     29 C         -24.3841   -6.5530  -18.3562 C.3     1  UNL1        0.2542
     30 O         -23.7128   -6.6508  -17.1056 O.3     1  UNL1       -0.4561
@<TRIPOS>BOND
     1    29    30    1
     2    30    23    1
     3    23    24   ar
     4    24    25   ar
     5    25    26   ar
     6    26    27   ar
     7    27    21    1
     8    21    20    1
     9    20    18    1
    10    18    19    1
    11    18    17    1
    12    17     1    1
    13     1     2   ar
    14     2     3   ar
    15     3     4   ar
    16     4     5   ar
    17     5     6    1
    18     5     7   ar
    19     7     8   ar
    20     8     9   ar
    21     9    10   ar
    22    10    11   ar
    23    11    12    1
    24    11    13   ar
    25    13    14    1
    26    13    15   ar
    27    15    16   ar
    28    27    28   ar
    29    28    23   ar
    30    16     1   ar
    31     8     2   ar
    32    16     9   ar
    33    21    22    1
@<TRIPOS>MOLECULE
*****
 30 33 0 0 0
SMALL
GASTEIGER

@<TRIPOS>ATOM
      1 N         -23.2926   -9.7992  -13.5212 N.ar    1  UNL1       -0.3243
      2 C         -23.7536  -10.8941  -14.1815 C.ar    1  UNL1        0.0600
      3 C         -24.7766  -10.9667  -15.1337 C.ar    1  UNL1        0.0177
      4 C         -25.0808  -12.2231  -15.6883 C.ar    1  UNL1        0.0082
      5 C         -24.3645  -13.3754  -15.2968 C.ar    1  UNL1        0.0347
      6 BR        -24.7949  -15.0689  -16.0664 Br      1  UNL1       -0.0490
      7 C         -23.3310  -13.2821  -14.3484 C.ar    1  UNL1        0.0082
      8 C         -23.0519  -12.0260  -13.8133 C.ar    1  UNL1        0.0177
      9 C         -22.1119  -11.6195  -12.8953 C.ar    1  UNL1        0.0177
     10 C         -21.1357  -12.3299  -12.2039 C.ar    1  UNL1        0.0079
     11 C         -20.2996  -11.6204  -11.3231 C.ar    1  UNL1        0.0307
     12 BR        -18.9548  -12.6012  -10.3704 Br      1  UNL1       -0.0493
     13 C         -20.4558  -10.2151  -11.1569 C.ar    1  UNL1       -0.0142
     14 C         -19.5611   -9.4508  -10.2220 C.3     1  UNL1        0.0316
     15 C         -21.4583   -9.5289  -11.8796 C.ar    1  UNL1        0.0134
     16 C         -22.2802  -10.2603  -12.7414 C.ar    1  UNL1        0.0597
     17 C         -23.8014   -8.4223  -13.5847 C.3     1  UNL1        0.1429
     18 C         -25.0817   -8.2564  -12.7480 C.3     1  UNL1        0.2027
     19 F         -25.0362   -9.1283  -11.6746 F       1  UNL1       -0.2334
     20 C         -25.3028   -6.8165  -12.2540 C.3     1  UNL1        0.1259
     21 N         -24.0857   -6.0105  -12.3599 N.pl3   1  UNL1       -0.3157
     22 H         -23.9931   -5.3679  -13.1779 H       1  UNL1        0.1483
     23 C         -22.1438   -6.8679   -9.3367 C.ar    1  UNL1        0.2261
     24 C         -21.1844   -5.8524   -9.3049 C.ar    1  UNL1        0.0578
     25 C         -21.1882   -4.8754  -10.3019 C.ar    1  UNL1        0.0077
     26 C         -22.1445   -4.9213  -11.3179 C.ar    1  UNL1        0.0343
     27 C         -23.0917   -5.9539  -11.3257 C.ar    1  UNL1        0.1317
     28 N         -23.0682   -6.8914  -10.3376 N.ar    1  UNL1       -0.1969
     29 C         -22.9985   -8.9842   -8.3809 C.3     1  UNL1        0.2542
     30 O         -22.1425   -7.8484   -8.3408 O.3     1  UNL1       -0.4561
@<TRIPOS>BOND
     1    29    30    1
     2    30    23    1
     3    23    24   ar
     4    24    25   ar
     5    25    26   ar
     6    26    27   ar
     7    27    21    1
     8    21    20    1
     9    20    18    1
    10    18    19    1
    11    18    17    1
    12    17     1    1
    13     1     2   ar
    14     2     3   ar
    15     3     4   ar
    16     4     5   ar
    17     5     6    1
    18     5     7   ar
    19     7     8   ar
    20     8     9   ar
    21     9    10   ar
    22    10    11   ar
    23    11    12    1
    24    11    13   ar
    25    13    14    1
    26    13    15   ar
    27    15    16   ar
    28    27    28   ar
    29    28    23   ar
    30    16     1   ar
    31     8     2   ar
    32    16     9   ar
    33    21    22    1
@<TRIPOS>MOLECULE
*****
 30 33 0 0 0
SMALL
GASTEIGER

@<TRIPOS>ATOM
      1 N         -22.9901   -9.2029  -11.5340 N.ar    1  UNL1       -0.3243
      2 C         -22.8904  -10.3675  -12.2277 C.ar    1  UNL1        0.0600
      3 C         -21.9040  -11.3553  -12.1284 C.ar    1  UNL1        0.0177
      4 C         -22.0113  -12.4876  -12.9559 C.ar    1  UNL1        0.0082
      5 C         -23.0918  -12.6224  -13.8551 C.ar    1  UNL1        0.0347
      6 BR        -23.2162  -14.1704  -14.9659 Br      1  UNL1       -0.0490
      7 C         -24.0809  -11.6265  -13.9325 C.ar    1  UNL1        0.0082
      8 C         -23.9491  -10.5143  -13.1033 C.ar    1  UNL1        0.0177
      9 C         -24.7436   -9.4032  -12.9427 C.ar    1  UNL1        0.0177
     10 C         -25.9354   -9.0296  -13.5556 C.ar    1  UNL1        0.0079
     11 C         -26.5286   -7.8156  -13.1652 C.ar    1  UNL1        0.0307
     12 BR        -28.1712   -7.3019  -14.0113 Br      1  UNL1       -0.0493
     13 C         -25.9185   -7.0043  -12.1670 C.ar    1  UNL1       -0.0142
     14 C         -26.5511   -5.7092  -11.7413 C.3     1  UNL1        0.0316
     15 C         -24.7084   -7.4200  -11.5661 C.ar    1  UNL1        0.0134
     16 C         -24.1370   -8.6266  -11.9793 C.ar    1  UNL1        0.0597
     17 C         -22.0462   -8.6487  -10.5539 C.3     1  UNL1        0.1429
     18 C         -20.8045   -8.0557  -11.2417 C.3     1  UNL1        0.2027
     19 F         -19.9500   -9.0844  -11.5967 F       1  UNL1       -0.2334
     20 C         -21.1430   -7.1974  -12.4725 C.3     1  UNL1        0.1259
     21 N         -20.6347   -7.7926  -13.7092 N.pl3   1  UNL1       -0.3157
     22 H         -19.6067   -7.9589  -13.7866 H       1  UNL1        0.1483
     23 C         -22.0416  -10.0056  -16.3110 C.ar    1  UNL1        0.2261
     24 C         -23.1293   -9.2609  -16.7746 C.ar    1  UNL1        0.0578
     25 C         -23.3927   -8.0107  -16.2123 C.ar    1  UNL1        0.0077
     26 C         -22.5725   -7.5179  -15.1957 C.ar    1  UNL1        0.0343
     27 C         -21.4912   -8.2890  -14.7488 C.ar    1  UNL1        0.1317
     28 N         -21.2541   -9.5034  -15.3188 N.ar    1  UNL1       -0.1969
     29 C         -22.6689  -11.9020  -17.7715 C.3     1  UNL1        0.2542
     30 O         -21.7753  -11.2581  -16.8709 O.3     1  UNL1       -0.4561
@<TRIPOS>BOND
     1    29    30    1
     2    30    23    1
     3    23    24   ar
     4    24    25   ar
     5    25    26   ar
     6    26    27   ar
     7    27    21    1
     8    21    20    1
     9    20    18    1
    10    18    19    1
    11    18    17    1
    12    17     1    1
    13     1     2   ar
    14     2     3   ar
    15     3     4   ar
    16     4     5   ar
    17     5     6    1
    18     5     7   ar
    19     7     8   ar
    20     8     9   ar
    21     9    10   ar
    22    10    11   ar
    23    11    12    1
    24    11    13   ar
    25    13    14    1
    26    13    15   ar
    27    15    16   ar
    28    27    28   ar
    29    28    23   ar
    30    16     1   ar
    31     8     2   ar
    32    16     9   ar
    33    21    22    1
