@<TRIPOS>MOLECULE
*****
 45 50 0 0 0
SMALL
GASTEIGER

@<TRIPOS>ATOM
      1 C         -66.1411  -54.1287  -23.2166 C.ar    1  UNL1        0.0702
      2 C         -66.1372  -55.4794  -22.8482 C.ar    1  UNL1        0.0191
      3 C         -67.3002  -56.2427  -22.9586 C.ar    1  UNL1        0.0356
      4 C         -68.4828  -55.6400  -23.4156 C.ar    1  UNL1        0.1318
      5 N         -68.4664  -54.3223  -23.7599 N.ar    1  UNL1       -0.2279
      6 C         -67.3444  -53.5608  -23.6656 C.ar    1  UNL1        0.1149
      7 N         -69.6975  -56.3993  -23.5641 N.pl3   1  UNL1       -0.2932
      8 C         -69.9460  -57.2273  -24.7528 C.3     1  UNL1        0.0923
      9 C         -71.3415  -56.9437  -25.3347 C.3     1  UNL1        0.0252
     10 C         -72.3923  -56.5570  -24.2593 C.3     1  UNL1        0.0472
     11 C         -71.9878  -57.0714  -22.8639 C.3     1  UNL1        0.0252
     12 C         -70.6467  -56.4520  -22.4421 C.3     1  UNL1        0.0923
     13 C         -73.7923  -57.0649  -24.6556 C.3     1  UNL1        0.2054
     14 O         -73.9249  -57.1647  -26.0748 O.3     1  UNL1       -0.4755
     15 C         -74.2286  -56.1047  -26.9452 C.ar    1  UNL1        0.1388
     16 C         -74.3596  -56.3905  -28.3067 C.ar    1  UNL1        0.0378
     17 C         -74.6539  -55.3773  -29.2199 C.ar    1  UNL1        0.0147
     18 C         -74.8309  -54.0598  -28.7852 C.ar    1  UNL1        0.0641
     19 CL        -75.0981  -52.8174  -30.0046 Cl      1  UNL1       -0.0820
     20 C         -74.7181  -53.7536  -27.4116 C.ar    1  UNL1        0.0890
     21 C         -74.3984  -54.7781  -26.5034 C.ar    1  UNL1        0.0442
     22 C         -74.9114  -52.3802  -26.8993 C.2     1  UNL1        0.3390
     23 O         -74.6352  -51.3952  -27.6340 O.2     1  UNL1       -0.2451
     24 O         -75.3492  -52.1493  -25.5973 O.3     1  UNL1       -0.4771
     25 H         -75.4647  -52.9055  -24.9338 H       1  UNL1        0.2954
     26 C         -64.2649  -52.7106  -24.1729 C.2     1  UNL1        0.2839
     27 O         -64.5542  -53.0148  -25.3614 O.2     1  UNL1       -0.2665
     28 N         -64.9405  -53.3496  -23.0776 N.am    1  UNL1       -0.2766
     29 H         -64.4874  -53.3176  -22.1363 H       1  UNL1        0.1553
     30 C         -64.4072  -49.5433  -24.6437 C.3     1  UNL1        0.0345
     31 C         -63.2584  -50.3425  -24.1061 C.ar    1  UNL1        0.0202
     32 C         -63.2002  -51.7259  -23.9026 C.ar    1  UNL1        0.1946
     33 O         -62.0199  -52.0614  -23.4124 O.2     1  UNL1       -0.4492
     34 C         -61.3092  -50.9672  -23.2888 C.ar    1  UNL1        0.1452
     35 C         -60.0071  -50.8558  -22.8139 C.ar    1  UNL1        0.0375
     36 C         -59.4290  -49.5755  -22.7665 C.ar    1  UNL1        0.0031
     37 C         -60.1567  -48.4313  -23.1918 C.ar    1  UNL1        0.0002
     38 C         -61.4805  -48.5885  -23.6681 C.ar    1  UNL1        0.0028
     39 C         -62.0230  -49.8740  -23.7013 C.ar    1  UNL1        0.0337
     40 C         -59.5353  -47.0837  -23.1373 C.ar    1  UNL1        0.0000
     41 C         -58.1765  -46.9352  -22.7992 C.ar    1  UNL1        0.0000
     42 C         -57.5940  -45.6651  -22.7486 C.ar    1  UNL1        0.0000
     43 C         -58.3584  -44.5314  -23.0329 C.ar    1  UNL1        0.0000
     44 C         -59.7073  -44.6654  -23.3689 C.ar    1  UNL1        0.0000
     45 C         -60.2950  -45.9330  -23.4220 C.ar    1  UNL1        0.0000
@<TRIPOS>BOND
     1    30    31    1
     2    31    32   ar
     3    32    26    1
     4    26    27    2
     5    26    28   am
     6    28     1    1
     7     1     2   ar
     8     2     3   ar
     9     3     4   ar
    10     4     7    1
    11     7     8    1
    12     8     9    1
    13     9    10    1
    14    10    13    1
    15    13    14    1
    16    14    15    1
    17    15    16   ar
    18    16    17   ar
    19    17    18   ar
    20    18    19    1
    21    18    20   ar
    22    20    22    1
    23    22    23    2
    24    22    24    1
    25    20    21   ar
    26    10    11    1
    27    11    12    1
    28     4     5   ar
    29     5     6   ar
    30    32    33   ar
    31    33    34   ar
    32    34    35   ar
    33    35    36   ar
    34    36    37   ar
    35    37    40    1
    36    40    41   ar
    37    41    42   ar
    38    42    43   ar
    39    43    44   ar
    40    44    45   ar
    41    37    38   ar
    42    38    39   ar
    43    39    31   ar
    44     6     1   ar
    45    39    34   ar
    46    12     7    1
    47    45    40   ar
    48    21    15   ar
    49    28    29    1
    50    24    25    1
@<TRIPOS>MOLECULE
*****
 45 50 0 0 0
SMALL
GASTEIGER

@<TRIPOS>ATOM
      1 C         -70.6085  -55.1392  -23.3010 C.ar    1  UNL1        0.0702
      2 C         -69.2347  -55.2811  -23.0713 C.ar    1  UNL1        0.0191
      3 C         -68.7610  -55.5668  -21.7902 C.ar    1  UNL1        0.0356
      4 C         -69.6694  -55.6838  -20.7264 C.ar    1  UNL1        0.1318
      5 N         -71.0009  -55.5329  -20.9706 N.ar    1  UNL1       -0.2279
      6 C         -71.4854  -55.2595  -22.2108 C.ar    1  UNL1        0.1149
      7 N         -69.2216  -55.9995  -19.3945 N.pl3   1  UNL1       -0.2932
      8 C         -69.6393  -57.2344  -18.7157 C.3     1  UNL1        0.0923
      9 C         -70.1498  -56.9322  -17.2963 C.3     1  UNL1        0.0252
     10 C         -69.4415  -55.7223  -16.6297 C.3     1  UNL1        0.0472
     11 C         -68.0612  -55.4572  -17.2621 C.3     1  UNL1        0.0252
     12 C         -68.2193  -55.1336  -18.7557 C.3     1  UNL1        0.0923
     13 C         -69.3257  -55.9279  -15.1067 C.3     1  UNL1        0.2054
     14 O         -70.5254  -56.4849  -14.5662 O.3     1  UNL1       -0.4755
     15 C         -71.3054  -55.9151  -13.5462 C.ar    1  UNL1        0.1388
     16 C         -72.5774  -56.4466  -13.3182 C.ar    1  UNL1        0.0378
     17 C         -73.4002  -55.9176  -12.3231 C.ar    1  UNL1        0.0147
     18 C         -72.9608  -54.8513  -11.5317 C.ar    1  UNL1        0.0641
     19 CL        -74.0906  -54.1686  -10.3658 Cl      1  UNL1       -0.0820
     20 C         -71.6727  -54.3107  -11.7363 C.ar    1  UNL1        0.0890
     21 C         -70.8612  -54.8362  -12.7570 C.ar    1  UNL1        0.0442
     22 C         -71.1553  -53.1941  -10.9167 C.2     1  UNL1        0.3390
     23 O         -69.9214  -53.1155  -10.6766 O.2     1  UNL1       -0.2451
     24 O         -72.0128  -52.2478  -10.3605 O.3     1  UNL1       -0.4771
     25 H         -73.0192  -52.3407  -10.4238 H       1  UNL1        0.2954
     26 C         -71.6472  -55.7875  -25.5251 C.2     1  UNL1        0.2839
     27 O         -71.5259  -57.0209  -25.2953 O.2     1  UNL1       -0.2665
     28 N         -71.0802  -54.8241  -24.6224 N.am    1  UNL1       -0.2766
     29 H         -70.9231  -53.8534  -24.9766 H       1  UNL1        0.1553
     30 C         -70.7175  -56.2639  -28.5554 C.3     1  UNL1        0.0345
     31 C         -71.9351  -55.5361  -28.0706 C.ar    1  UNL1        0.0202
     32 C         -72.3372  -55.3298  -26.7461 C.ar    1  UNL1        0.1946
     33 O         -73.4663  -54.6441  -26.7181 O.2     1  UNL1       -0.4492
     34 C         -73.8166  -54.3940  -27.9560 C.ar    1  UNL1        0.1452
     35 C         -74.9381  -53.6968  -28.3912 C.ar    1  UNL1        0.0375
     36 C         -75.1226  -53.5414  -29.7759 C.ar    1  UNL1        0.0031
     37 C         -74.1888  -54.0824  -30.7006 C.ar    1  UNL1        0.0002
     38 C         -73.0603  -54.7861  -30.2155 C.ar    1  UNL1        0.0028
     39 C         -72.9087  -54.9214  -28.8347 C.ar    1  UNL1        0.0337
     40 C         -74.3942  -53.9116  -32.1614 C.ar    1  UNL1        0.0000
     41 C         -73.8293  -52.8149  -32.8402 C.ar    1  UNL1        0.0000
     42 C         -74.0244  -52.6566  -34.2156 C.ar    1  UNL1        0.0000
     43 C         -74.7839  -53.5874  -34.9278 C.ar    1  UNL1        0.0000
     44 C         -75.3499  -54.6791  -34.2659 C.ar    1  UNL1        0.0000
     45 C         -75.1575  -54.8432  -32.8906 C.ar    1  UNL1        0.0000
@<TRIPOS>BOND
     1    30    31    1
     2    31    32   ar
     3    32    26    1
     4    26    27    2
     5    26    28   am
     6    28     1    1
     7     1     2   ar
     8     2     3   ar
     9     3     4   ar
    10     4     7    1
    11     7     8    1
    12     8     9    1
    13     9    10    1
    14    10    13    1
    15    13    14    1
    16    14    15    1
    17    15    16   ar
    18    16    17   ar
    19    17    18   ar
    20    18    19    1
    21    18    20   ar
    22    20    22    1
    23    22    23    2
    24    22    24    1
    25    20    21   ar
    26    10    11    1
    27    11    12    1
    28     4     5   ar
    29     5     6   ar
    30    32    33   ar
    31    33    34   ar
    32    34    35   ar
    33    35    36   ar
    34    36    37   ar
    35    37    40    1
    36    40    41   ar
    37    41    42   ar
    38    42    43   ar
    39    43    44   ar
    40    44    45   ar
    41    37    38   ar
    42    38    39   ar
    43    39    31   ar
    44     6     1   ar
    45    39    34   ar
    46    12     7    1
    47    45    40   ar
    48    21    15   ar
    49    28    29    1
    50    24    25    1
@<TRIPOS>MOLECULE
*****
 45 50 0 0 0
SMALL
GASTEIGER

@<TRIPOS>ATOM
      1 C         -65.9854  -53.8763  -23.1127 C.ar    1  UNL1        0.0702
      2 C         -65.9828  -55.2392  -22.7926 C.ar    1  UNL1        0.0191
      3 C         -67.1633  -55.9804  -22.8598 C.ar    1  UNL1        0.0356
      4 C         -68.3604  -55.3439  -23.2238 C.ar    1  UNL1        0.1318
      5 N         -68.3418  -54.0151  -23.5222 N.ar    1  UNL1       -0.2279
      6 C         -67.2032  -53.2746  -23.4687 C.ar    1  UNL1        0.1149
      7 N         -69.5947  -56.0789  -23.3257 N.pl3   1  UNL1       -0.2932
      8 C         -70.2513  -56.3027  -24.6215 C.3     1  UNL1        0.0923
      9 C         -71.7438  -55.9373  -24.5483 C.3     1  UNL1        0.0252
     10 C         -72.3744  -56.1918  -23.1527 C.3     1  UNL1        0.0472
     11 C         -71.5704  -57.2342  -22.3513 C.3     1  UNL1        0.0252
     12 C         -70.1359  -56.7329  -22.1249 C.3     1  UNL1        0.0923
     13 C         -73.8509  -56.6120  -23.2885 C.3     1  UNL1        0.2054
     14 O         -74.6430  -56.0725  -22.2287 O.3     1  UNL1       -0.4755
     15 C         -74.2786  -56.0334  -20.8726 C.ar    1  UNL1        0.1388
     16 C         -74.7038  -57.0786  -20.0484 C.ar    1  UNL1        0.0378
     17 C         -74.3781  -57.0906  -18.6916 C.ar    1  UNL1        0.0147
     18 C         -73.6129  -56.0598  -18.1364 C.ar    1  UNL1        0.0641
     19 CL        -73.3278  -56.0877  -16.3987 Cl      1  UNL1       -0.0820
     20 C         -73.1607  -55.0029  -18.9560 C.ar    1  UNL1        0.0890
     21 C         -73.5142  -54.9890  -20.3167 C.ar    1  UNL1        0.0442
     22 C         -72.3363  -53.8980  -18.4214 C.2     1  UNL1        0.3390
     23 O         -71.3450  -54.1567  -17.6888 O.2     1  UNL1       -0.2451
     24 O         -72.6614  -52.5670  -18.6718 O.3     1  UNL1       -0.4771
     25 H         -73.5160  -52.3099  -19.1504 H       1  UNL1        0.2954
     26 C         -64.1194  -52.4936  -24.1384 C.2     1  UNL1        0.2839
     27 O         -64.4594  -52.7903  -25.3153 O.2     1  UNL1       -0.2665
     28 N         -64.7653  -53.1210  -23.0188 N.am    1  UNL1       -0.2766
     29 H         -64.2764  -53.0992  -22.0952 H       1  UNL1        0.1553
     30 C         -64.2846  -49.3013  -24.3754 C.3     1  UNL1        0.0345
     31 C         -63.0942  -50.1360  -24.0097 C.ar    1  UNL1        0.0202
     32 C         -63.0262  -51.5301  -23.9079 C.ar    1  UNL1        0.1946
     33 O         -61.8058  -51.8990  -23.5608 O.2     1  UNL1       -0.4492
     34 C         -61.0786  -50.8161  -23.4334 C.ar    1  UNL1        0.1452
     35 C         -59.7353  -50.7381  -23.0829 C.ar    1  UNL1        0.0375
     36 C         -59.1461  -49.4644  -23.0055 C.ar    1  UNL1        0.0031
     37 C         -59.9039  -48.2933  -23.2777 C.ar    1  UNL1        0.0002
     38 C         -61.2693  -48.4169  -23.6307 C.ar    1  UNL1        0.0028
     39 C         -61.8216  -49.6969  -23.6978 C.ar    1  UNL1        0.0337
     40 C         -59.2705  -46.9529  -23.1929 C.ar    1  UNL1        0.0000
     41 C         -57.9794  -46.8044  -22.6511 C.ar    1  UNL1        0.0000
     42 C         -57.3855  -45.5410  -22.5724 C.ar    1  UNL1        0.0000
     43 C         -58.0711  -44.4141  -23.0312 C.ar    1  UNL1        0.0000
     44 C         -59.3524  -44.5482  -23.5702 C.ar    1  UNL1        0.0000
     45 C         -59.9511  -45.8092  -23.6523 C.ar    1  UNL1        0.0000
@<TRIPOS>BOND
     1    30    31    1
     2    31    32   ar
     3    32    26    1
     4    26    27    2
     5    26    28   am
     6    28     1    1
     7     1     2   ar
     8     2     3   ar
     9     3     4   ar
    10     4     7    1
    11     7     8    1
    12     8     9    1
    13     9    10    1
    14    10    13    1
    15    13    14    1
    16    14    15    1
    17    15    16   ar
    18    16    17   ar
    19    17    18   ar
    20    18    19    1
    21    18    20   ar
    22    20    22    1
    23    22    23    2
    24    22    24    1
    25    20    21   ar
    26    10    11    1
    27    11    12    1
    28     4     5   ar
    29     5     6   ar
    30    32    33   ar
    31    33    34   ar
    32    34    35   ar
    33    35    36   ar
    34    36    37   ar
    35    37    40    1
    36    40    41   ar
    37    41    42   ar
    38    42    43   ar
    39    43    44   ar
    40    44    45   ar
    41    37    38   ar
    42    38    39   ar
    43    39    31   ar
    44     6     1   ar
    45    39    34   ar
    46    12     7    1
    47    45    40   ar
    48    21    15   ar
    49    28    29    1
    50    24    25    1
@<TRIPOS>MOLECULE
*****
 45 50 0 0 0
SMALL
GASTEIGER

@<TRIPOS>ATOM
      1 C         -63.6860  -40.6828  -22.2937 C.ar    1  UNL1        0.0702
      2 C         -62.8598  -41.6298  -21.6768 C.ar    1  UNL1        0.0191
      3 C         -62.1601  -42.5609  -22.4456 C.ar    1  UNL1        0.0356
      4 C         -62.3118  -42.5600  -23.8411 C.ar    1  UNL1        0.1318
      5 N         -63.1279  -41.6357  -24.4198 N.ar    1  UNL1       -0.2279
      6 C         -63.8149  -40.7162  -23.6916 C.ar    1  UNL1        0.1149
      7 N         -61.5901  -43.4904  -24.6703 N.pl3   1  UNL1       -0.2932
      8 C         -60.5852  -43.0352  -25.6415 C.3     1  UNL1        0.0923
      9 C         -60.8253  -43.6777  -27.0185 C.3     1  UNL1        0.0252
     10 C         -61.4310  -45.1048  -26.9371 C.3     1  UNL1        0.0472
     11 C         -61.1420  -45.7641  -25.5744 C.3     1  UNL1        0.0252
     12 C         -61.7667  -44.9326  -24.4435 C.3     1  UNL1        0.0923
     13 C         -60.9229  -45.9812  -28.0985 C.3     1  UNL1        0.2054
     14 O         -59.9106  -45.3094  -28.8504 O.3     1  UNL1       -0.4755
     15 C         -60.0367  -44.8621  -30.1761 C.ar    1  UNL1        0.1388
     16 C         -58.9708  -45.0911  -31.0502 C.ar    1  UNL1        0.0378
     17 C         -59.0359  -44.6636  -32.3769 C.ar    1  UNL1        0.0147
     18 C         -60.1738  -44.0059  -32.8554 C.ar    1  UNL1        0.0641
     19 CL        -60.1445  -43.4044  -34.5104 Cl      1  UNL1       -0.0820
     20 C         -61.2674  -43.7790  -31.9919 C.ar    1  UNL1        0.0890
     21 C         -61.1817  -44.1933  -30.6511 C.ar    1  UNL1        0.0442
     22 C         -62.4988  -43.1024  -32.4525 C.2     1  UNL1        0.3390
     23 O         -63.1974  -42.4508  -31.6318 O.2     1  UNL1       -0.2451
     24 O         -62.9323  -43.2100  -33.7718 O.3     1  UNL1       -0.4771
     25 H         -62.4716  -43.8219  -34.4342 H       1  UNL1        0.2954
     26 C         -63.8134  -38.6414  -20.7897 C.2     1  UNL1        0.2839
     27 O         -62.5624  -38.5913  -20.6438 O.2     1  UNL1       -0.2665
     28 N         -64.4169  -39.7431  -21.4871 N.am    1  UNL1       -0.2766
     29 H         -65.4347  -39.9232  -21.3319 H       1  UNL1        0.1553
     30 C         -67.0102  -38.4555  -20.9291 C.3     1  UNL1        0.0345
     31 C         -66.0617  -37.5031  -20.2653 C.ar    1  UNL1        0.0202
     32 C         -64.6660  -37.5877  -20.2073 C.ar    1  UNL1        0.1946
     33 O         -64.1786  -36.5615  -19.5326 O.2     1  UNL1       -0.4492
     34 C         -65.1861  -35.8150  -19.1512 C.ar    1  UNL1        0.1452
     35 C         -65.1319  -34.6347  -18.4183 C.ar    1  UNL1        0.0375
     36 C         -66.3432  -33.9885  -18.1170 C.ar    1  UNL1        0.0031
     37 C         -67.5844  -34.5284  -18.5501 C.ar    1  UNL1        0.0002
     38 C         -67.5953  -35.7329  -19.2938 C.ar    1  UNL1        0.0028
     39 C         -66.3742  -36.3477  -19.5746 C.ar    1  UNL1        0.0337
     40 C         -68.8578  -33.8366  -18.2260 C.ar    1  UNL1        0.0000
     41 C         -70.0663  -34.2458  -18.8214 C.ar    1  UNL1        0.0000
     42 C         -71.2638  -33.5925  -18.5144 C.ar    1  UNL1        0.0000
     43 C         -71.2695  -32.5257  -17.6131 C.ar    1  UNL1        0.0000
     44 C         -70.0772  -32.1100  -17.0163 C.ar    1  UNL1        0.0000
     45 C         -68.8768  -32.7601  -17.3188 C.ar    1  UNL1        0.0000
@<TRIPOS>BOND
     1    30    31    1
     2    31    32   ar
     3    32    26    1
     4    26    27    2
     5    26    28   am
     6    28     1    1
     7     1     2   ar
     8     2     3   ar
     9     3     4   ar
    10     4     7    1
    11     7     8    1
    12     8     9    1
    13     9    10    1
    14    10    13    1
    15    13    14    1
    16    14    15    1
    17    15    16   ar
    18    16    17   ar
    19    17    18   ar
    20    18    19    1
    21    18    20   ar
    22    20    22    1
    23    22    23    2
    24    22    24    1
    25    20    21   ar
    26    10    11    1
    27    11    12    1
    28     4     5   ar
    29     5     6   ar
    30    32    33   ar
    31    33    34   ar
    32    34    35   ar
    33    35    36   ar
    34    36    37   ar
    35    37    40    1
    36    40    41   ar
    37    41    42   ar
    38    42    43   ar
    39    43    44   ar
    40    44    45   ar
    41    37    38   ar
    42    38    39   ar
    43    39    31   ar
    44     6     1   ar
    45    39    34   ar
    46    12     7    1
    47    45    40   ar
    48    21    15   ar
    49    28    29    1
    50    24    25    1
@<TRIPOS>MOLECULE
*****
 45 50 0 0 0
SMALL
GASTEIGER

@<TRIPOS>ATOM
      1 C         -64.4774  -52.2184  -24.7636 C.ar    1  UNL1        0.0702
      2 C         -65.4037  -53.1187  -25.3034 C.ar    1  UNL1        0.0191
      3 C         -65.9570  -54.1220  -24.5067 C.ar    1  UNL1        0.0356
      4 C         -65.5576  -54.2404  -23.1661 C.ar    1  UNL1        0.1318
      5 N         -64.6482  -53.3595  -22.6639 N.ar    1  UNL1       -0.2279
      6 C         -64.1001  -52.3715  -23.4197 C.ar    1  UNL1        0.1149
      7 N         -66.1218  -55.2484  -22.3061 N.pl3   1  UNL1       -0.2932
      8 C         -66.7525  -56.4588  -22.8514 C.3     1  UNL1        0.0923
      9 C         -68.1307  -56.6937  -22.2097 C.3     1  UNL1        0.0252
     10 C         -68.2182  -56.2060  -20.7384 C.3     1  UNL1        0.0472
     11 C         -66.8240  -56.1247  -20.0865 C.3     1  UNL1        0.0252
     12 C         -65.9418  -55.1265  -20.8517 C.3     1  UNL1        0.0923
     13 C         -69.1640  -57.1061  -19.9196 C.3     1  UNL1        0.2054
     14 O         -70.0510  -56.3283  -19.1135 O.3     1  UNL1       -0.4755
     15 C         -70.2481  -56.4820  -17.7310 C.ar    1  UNL1        0.1388
     16 C         -71.4459  -57.0572  -17.2989 C.ar    1  UNL1        0.0378
     17 C         -71.7007  -57.2294  -15.9378 C.ar    1  UNL1        0.0147
     18 C         -70.7563  -56.8361  -14.9840 C.ar    1  UNL1        0.0641
     19 CL        -71.1883  -56.9888  -13.2834 Cl      1  UNL1       -0.0820
     20 C         -69.5334  -56.2673  -15.4013 C.ar    1  UNL1        0.0890
     21 C         -69.2971  -56.0773  -16.7741 C.ar    1  UNL1        0.0442
     22 C         -68.4961  -55.8495  -14.4339 C.2     1  UNL1        0.3390
     23 O         -67.2927  -56.1618  -14.6352 O.2     1  UNL1       -0.2451
     24 O         -68.8281  -55.1554  -13.2729 O.3     1  UNL1       -0.4771
     25 H         -69.7920  -54.9913  -13.0093 H       1  UNL1        0.2954
     26 C         -64.0785  -49.7922  -25.3962 C.2     1  UNL1        0.2839
     27 O         -64.9688  -49.3735  -24.6082 O.2     1  UNL1       -0.2665
     28 N         -63.9001  -51.2029  -25.6023 N.am    1  UNL1       -0.2766
     29 H         -63.3908  -51.5125  -26.4608 H       1  UNL1        0.1553
     30 C         -64.1786  -49.1919  -28.5431 C.3     1  UNL1        0.0345
     31 C         -63.2844  -48.5661  -27.5155 C.ar    1  UNL1        0.0202
     32 C         -63.2435  -48.8316  -26.1421 C.ar    1  UNL1        0.1946
     33 O         -62.3236  -48.0799  -25.5635 O.2     1  UNL1       -0.4492
     34 C         -61.7650  -47.3415  -26.4911 C.ar    1  UNL1        0.1452
     35 C         -60.7477  -46.4079  -26.3276 C.ar    1  UNL1        0.0375
     36 C         -60.2912  -45.7226  -27.4667 C.ar    1  UNL1        0.0031
     37 C         -60.8552  -45.9786  -28.7457 C.ar    1  UNL1        0.0002
     38 C         -61.8899  -46.9370  -28.8685 C.ar    1  UNL1        0.0028
     39 C         -62.3186  -47.5984  -27.7167 C.ar    1  UNL1        0.0337
     40 C         -60.3646  -45.2485  -29.9422 C.ar    1  UNL1        0.0000
     41 C         -61.2156  -44.3757  -30.6469 C.ar    1  UNL1        0.0000
     42 C         -60.7510  -43.6896  -31.7731 C.ar    1  UNL1        0.0000
     43 C         -59.4360  -43.8664  -32.2088 C.ar    1  UNL1        0.0000
     44 C         -58.5822  -44.7298  -31.5187 C.ar    1  UNL1        0.0000
     45 C         -59.0410  -45.4179  -30.3913 C.ar    1  UNL1        0.0000
@<TRIPOS>BOND
     1    30    31    1
     2    31    32   ar
     3    32    26    1
     4    26    27    2
     5    26    28   am
     6    28     1    1
     7     1     2   ar
     8     2     3   ar
     9     3     4   ar
    10     4     7    1
    11     7     8    1
    12     8     9    1
    13     9    10    1
    14    10    13    1
    15    13    14    1
    16    14    15    1
    17    15    16   ar
    18    16    17   ar
    19    17    18   ar
    20    18    19    1
    21    18    20   ar
    22    20    22    1
    23    22    23    2
    24    22    24    1
    25    20    21   ar
    26    10    11    1
    27    11    12    1
    28     4     5   ar
    29     5     6   ar
    30    32    33   ar
    31    33    34   ar
    32    34    35   ar
    33    35    36   ar
    34    36    37   ar
    35    37    40    1
    36    40    41   ar
    37    41    42   ar
    38    42    43   ar
    39    43    44   ar
    40    44    45   ar
    41    37    38   ar
    42    38    39   ar
    43    39    31   ar
    44     6     1   ar
    45    39    34   ar
    46    12     7    1
    47    45    40   ar
    48    21    15   ar
    49    28    29    1
    50    24    25    1
@<TRIPOS>MOLECULE
*****
 45 50 0 0 0
SMALL
GASTEIGER

@<TRIPOS>ATOM
      1 C         -61.5322  -44.9274  -22.1044 C.ar    1  UNL1        0.0702
      2 C         -60.5705  -45.7483  -21.5034 C.ar    1  UNL1        0.0191
      3 C         -60.5029  -47.1048  -21.8242 C.ar    1  UNL1        0.0356
      4 C         -61.4244  -47.6476  -22.7336 C.ar    1  UNL1        0.1318
      5 N         -62.3575  -46.8327  -23.2996 N.ar    1  UNL1       -0.2279
      6 C         -62.4388  -45.5080  -23.0061 C.ar    1  UNL1        0.1149
      7 N         -61.3732  -49.0376  -23.1069 N.pl3   1  UNL1       -0.2932
      8 C         -61.9673  -49.5188  -24.3621 C.3     1  UNL1        0.0923
      9 C         -62.8595  -50.7463  -24.1095 C.3     1  UNL1        0.0252
     10 C         -62.3686  -51.6356  -22.9355 C.3     1  UNL1        0.0472
     11 C         -60.8654  -51.4320  -22.6630 C.3     1  UNL1        0.0252
     12 C         -60.5927  -49.9695  -22.2792 C.3     1  UNL1        0.0923
     13 C         -62.6900  -53.1191  -23.2021 C.3     1  UNL1        0.2054
     14 O         -64.0061  -53.2766  -23.7356 O.3     1  UNL1       -0.4755
     15 C         -65.0472  -54.0106  -23.1432 C.ar    1  UNL1        0.1388
     16 C         -64.7053  -55.0541  -22.2792 C.ar    1  UNL1        0.0378
     17 C         -65.6960  -55.8225  -21.6666 C.ar    1  UNL1        0.0147
     18 C         -67.0485  -55.5544  -21.9016 C.ar    1  UNL1        0.0641
     19 CL        -68.2408  -56.6289  -21.1765 Cl      1  UNL1       -0.0820
     20 C         -67.4143  -54.4943  -22.7592 C.ar    1  UNL1        0.0890
     21 C         -66.4077  -53.7416  -23.3891 C.ar    1  UNL1        0.0442
     22 C         -68.8294  -54.1603  -23.0282 C.2     1  UNL1        0.3390
     23 O         -69.1790  -53.8111  -24.1867 O.2     1  UNL1       -0.2451
     24 O         -69.7816  -54.1766  -22.0119 O.3     1  UNL1       -0.4771
     25 H         -69.5239  -54.3304  -21.0447 H       1  UNL1        0.2954
     26 C         -62.3475  -42.5536  -22.4864 C.2     1  UNL1        0.2839
     27 O         -62.7759  -42.8183  -23.6419 O.2     1  UNL1       -0.2665
     28 N         -61.6031  -43.5361  -21.7481 N.am    1  UNL1       -0.2766
     29 H         -61.0094  -43.2063  -20.9537 H       1  UNL1        0.1553
     30 C         -64.9149  -41.5847  -20.8300 C.3     1  UNL1        0.0345
     31 C         -63.6930  -40.7900  -21.1805 C.ar    1  UNL1        0.0202
     32 C         -62.5741  -41.2169  -21.9047 C.ar    1  UNL1        0.1946
     33 O         -61.6999  -40.2316  -22.0083 O.2     1  UNL1       -0.4492
     34 C         -62.1946  -39.1874  -21.3898 C.ar    1  UNL1        0.1452
     35 C         -61.6109  -37.9329  -21.2527 C.ar    1  UNL1        0.0375
     36 C         -62.3218  -36.9477  -20.5459 C.ar    1  UNL1        0.0031
     37 C         -63.5986  -37.2291  -19.9890 C.ar    1  UNL1        0.0002
     38 C         -64.1570  -38.5198  -20.1509 C.ar    1  UNL1        0.0028
     39 C         -63.4235  -39.4736  -20.8583 C.ar    1  UNL1        0.0337
     40 C         -64.3404  -36.1801  -19.2443 C.ar    1  UNL1        0.0000
     41 C         -63.7869  -35.5956  -18.0890 C.ar    1  UNL1        0.0000
     42 C         -64.4876  -34.6081  -17.3898 C.ar    1  UNL1        0.0000
     43 C         -65.7456  -34.1940  -17.8331 C.ar    1  UNL1        0.0000
     44 C         -66.3055  -34.7664  -18.9773 C.ar    1  UNL1        0.0000
     45 C         -65.6091  -35.7537  -19.6812 C.ar    1  UNL1        0.0000
@<TRIPOS>BOND
     1    30    31    1
     2    31    32   ar
     3    32    26    1
     4    26    27    2
     5    26    28   am
     6    28     1    1
     7     1     2   ar
     8     2     3   ar
     9     3     4   ar
    10     4     7    1
    11     7     8    1
    12     8     9    1
    13     9    10    1
    14    10    13    1
    15    13    14    1
    16    14    15    1
    17    15    16   ar
    18    16    17   ar
    19    17    18   ar
    20    18    19    1
    21    18    20   ar
    22    20    22    1
    23    22    23    2
    24    22    24    1
    25    20    21   ar
    26    10    11    1
    27    11    12    1
    28     4     5   ar
    29     5     6   ar
    30    32    33   ar
    31    33    34   ar
    32    34    35   ar
    33    35    36   ar
    34    36    37   ar
    35    37    40    1
    36    40    41   ar
    37    41    42   ar
    38    42    43   ar
    39    43    44   ar
    40    44    45   ar
    41    37    38   ar
    42    38    39   ar
    43    39    31   ar
    44     6     1   ar
    45    39    34   ar
    46    12     7    1
    47    45    40   ar
    48    21    15   ar
    49    28    29    1
    50    24    25    1
@<TRIPOS>MOLECULE
*****
 45 50 0 0 0
SMALL
GASTEIGER

@<TRIPOS>ATOM
      1 C         -64.1151  -50.9268  -24.2208 C.ar    1  UNL1        0.0702
      2 C         -63.1805  -51.1464  -23.2018 C.ar    1  UNL1        0.0191
      3 C         -62.0966  -50.2819  -23.0424 C.ar    1  UNL1        0.0356
      4 C         -61.9338  -49.2054  -23.9286 C.ar    1  UNL1        0.1318
      5 N         -62.8499  -49.0157  -24.9185 N.ar    1  UNL1       -0.2279
      6 C         -63.9159  -49.8416  -25.0895 C.ar    1  UNL1        0.1149
      7 N         -60.8409  -48.2788  -23.7834 N.pl3   1  UNL1       -0.2932
      8 C         -59.8242  -48.4473  -22.7355 C.3     1  UNL1        0.0923
      9 C         -59.6080  -47.1324  -21.9670 C.3     1  UNL1        0.0252
     10 C         -59.8130  -45.8655  -22.8405 C.3     1  UNL1        0.0472
     11 C         -59.6315  -46.1772  -24.3389 C.3     1  UNL1        0.0252
     12 C         -60.6656  -47.2204  -24.7892 C.3     1  UNL1        0.0923
     13 C         -58.8708  -44.7323  -22.3895 C.3     1  UNL1        0.2054
     14 O         -59.5191  -43.4609  -22.4585 O.3     1  UNL1       -0.4755
     15 C         -60.4941  -42.9895  -21.5637 C.ar    1  UNL1        0.1388
     16 C         -60.2090  -41.8341  -20.8314 C.ar    1  UNL1        0.0378
     17 C         -61.1362  -41.3224  -19.9227 C.ar    1  UNL1        0.0147
     18 C         -62.3701  -41.9540  -19.7366 C.ar    1  UNL1        0.0641
     19 CL        -63.4475  -41.3120  -18.5000 Cl      1  UNL1       -0.0820
     20 C         -62.6831  -43.1137  -20.4785 C.ar    1  UNL1        0.0890
     21 C         -61.7324  -43.6336  -21.3742 C.ar    1  UNL1        0.0442
     22 C         -63.9793  -43.8095  -20.3301 C.2     1  UNL1        0.3390
     23 O         -65.0307  -43.1394  -20.1519 O.2     1  UNL1       -0.2451
     24 O         -64.0579  -45.2001  -20.3350 O.3     1  UNL1       -0.4771
     25 H         -63.2273  -45.7791  -20.3514 H       1  UNL1        0.2954
     26 C         -65.3444  -53.0801  -23.6750 C.2     1  UNL1        0.2839
     27 O         -64.3604  -53.5587  -23.0494 O.2     1  UNL1       -0.2665
     28 N         -65.2152  -51.8381  -24.3858 N.am    1  UNL1       -0.2766
     29 H         -65.9183  -51.6228  -25.1285 H       1  UNL1        0.1553
     30 C         -67.6443  -53.0637  -21.4425 C.3     1  UNL1        0.0345
     31 C         -67.6289  -53.8118  -22.7416 C.ar    1  UNL1        0.0202
     32 C         -66.6221  -53.8166  -23.7136 C.ar    1  UNL1        0.1946
     33 O         -66.9708  -54.5964  -24.7216 O.2     1  UNL1       -0.4492
     34 C         -68.1512  -55.0986  -24.4530 C.ar    1  UNL1        0.1452
     35 C         -68.8953  -55.9720  -25.2383 C.ar    1  UNL1        0.0375
     36 C         -70.1469  -56.3911  -24.7550 C.ar    1  UNL1        0.0031
     37 C         -70.6341  -55.9334  -23.5009 C.ar    1  UNL1        0.0002
     38 C         -69.8450  -55.0440  -22.7327 C.ar    1  UNL1        0.0028
     39 C         -68.6077  -54.6485  -23.2432 C.ar    1  UNL1        0.0337
     40 C         -71.9580  -56.3833  -23.0006 C.ar    1  UNL1        0.0000
     41 C         -73.0620  -56.4647  -23.8707 C.ar    1  UNL1        0.0000
     42 C         -74.3074  -56.8885  -23.3969 C.ar    1  UNL1        0.0000
     43 C         -74.4656  -57.2341  -22.0530 C.ar    1  UNL1        0.0000
     44 C         -73.3784  -57.1570  -21.1799 C.ar    1  UNL1        0.0000
     45 C         -72.1304  -56.7348  -21.6482 C.ar    1  UNL1        0.0000
@<TRIPOS>BOND
     1    30    31    1
     2    31    32   ar
     3    32    26    1
     4    26    27    2
     5    26    28   am
     6    28     1    1
     7     1     2   ar
     8     2     3   ar
     9     3     4   ar
    10     4     7    1
    11     7     8    1
    12     8     9    1
    13     9    10    1
    14    10    13    1
    15    13    14    1
    16    14    15    1
    17    15    16   ar
    18    16    17   ar
    19    17    18   ar
    20    18    19    1
    21    18    20   ar
    22    20    22    1
    23    22    23    2
    24    22    24    1
    25    20    21   ar
    26    10    11    1
    27    11    12    1
    28     4     5   ar
    29     5     6   ar
    30    32    33   ar
    31    33    34   ar
    32    34    35   ar
    33    35    36   ar
    34    36    37   ar
    35    37    40    1
    36    40    41   ar
    37    41    42   ar
    38    42    43   ar
    39    43    44   ar
    40    44    45   ar
    41    37    38   ar
    42    38    39   ar
    43    39    31   ar
    44     6     1   ar
    45    39    34   ar
    46    12     7    1
    47    45    40   ar
    48    21    15   ar
    49    28    29    1
    50    24    25    1
@<TRIPOS>MOLECULE
*****
 45 50 0 0 0
SMALL
GASTEIGER

@<TRIPOS>ATOM
      1 C         -62.6094  -40.5839  -20.7827 C.ar    1  UNL1        0.0702
      2 C         -61.4702  -41.1145  -20.1657 C.ar    1  UNL1        0.0191
      3 C         -60.7534  -42.1441  -20.7771 C.ar    1  UNL1        0.0356
      4 C         -61.1983  -42.6641  -22.0027 C.ar    1  UNL1        0.1318
      5 N         -62.3143  -42.1392  -22.5809 N.ar    1  UNL1       -0.2279
      6 C         -63.0251  -41.1331  -22.0065 C.ar    1  UNL1        0.1149
      7 N         -60.4738  -43.7113  -22.6755 N.pl3   1  UNL1       -0.2932
      8 C         -60.9910  -44.3402  -23.8991 C.3     1  UNL1        0.0923
      9 C         -60.9426  -45.8738  -23.7881 C.3     1  UNL1        0.0252
     10 C         -59.7594  -46.3937  -22.9279 C.3     1  UNL1        0.0472
     11 C         -58.6192  -45.3596  -22.8519 C.3     1  UNL1        0.0252
     12 C         -59.1263  -44.0627  -22.2029 C.3     1  UNL1        0.0923
     13 C         -59.2493  -47.7467  -23.4612 C.3     1  UNL1        0.2054
     14 O         -59.7674  -48.8350  -22.6939 O.3     1  UNL1       -0.4755
     15 C         -60.8482  -49.6539  -23.0608 C.ar    1  UNL1        0.1388
     16 C         -60.8700  -50.9660  -22.5806 C.ar    1  UNL1        0.0378
     17 C         -61.9145  -51.8280  -22.9168 C.ar    1  UNL1        0.0147
     18 C         -62.9615  -51.3892  -23.7338 C.ar    1  UNL1        0.0641
     19 CL        -64.1909  -52.5609  -24.2002 Cl      1  UNL1       -0.0820
     20 C         -62.9655  -50.0624  -24.2162 C.ar    1  UNL1        0.0890
     21 C         -61.8964  -49.2096  -23.8902 C.ar    1  UNL1        0.0442
     22 C         -64.0563  -49.5452  -25.0699 C.2     1  UNL1        0.3390
     23 O         -63.8966  -49.4834  -26.3177 O.2     1  UNL1       -0.2451
     24 O         -65.2461  -49.0768  -24.5177 O.3     1  UNL1       -0.4771
     25 H         -65.3701  -48.9926  -23.5162 H       1  UNL1        0.2954
     26 C         -63.1665  -38.1374  -20.3958 C.2     1  UNL1        0.2839
     27 O         -62.1576  -37.7397  -21.0383 O.2     1  UNL1       -0.2665
     28 N         -63.3496  -39.5376  -20.1307 N.am    1  UNL1       -0.2766
     29 H         -63.9990  -39.8096  -19.3582 H       1  UNL1        0.1553
     30 C         -66.3559  -38.2595  -20.6898 C.3     1  UNL1        0.0345
     31 C         -65.5352  -37.2098  -20.0029 C.ar    1  UNL1        0.0202
     32 C         -64.1423  -37.1599  -19.8773 C.ar    1  UNL1        0.1946
     33 O         -63.7876  -36.0804  -19.2029 O.2     1  UNL1       -0.4492
     34 C         -64.8786  -35.4270  -18.8858 C.ar    1  UNL1        0.1452
     35 C         -64.9720  -34.2345  -18.1770 C.ar    1  UNL1        0.0375
     36 C         -66.2522  -33.7016  -17.9473 C.ar    1  UNL1        0.0031
     37 C         -67.4142  -34.3648  -18.4266 C.ar    1  UNL1        0.0002
     38 C         -67.2748  -35.5774  -19.1436 C.ar    1  UNL1        0.0028
     39 C         -65.9889  -36.0777  -19.3531 C.ar    1  UNL1        0.0337
     40 C         -68.7615  -33.7920  -18.1780 C.ar    1  UNL1        0.0000
     41 C         -69.9062  -34.3821  -18.7473 C.ar    1  UNL1        0.0000
     42 C         -71.1736  -33.8407  -18.5116 C.ar    1  UNL1        0.0000
     43 C         -71.3134  -32.7068  -17.7084 C.ar    1  UNL1        0.0000
     44 C         -70.1856  -32.1119  -17.1385 C.ar    1  UNL1        0.0000
     45 C         -68.9157  -32.6495  -17.3699 C.ar    1  UNL1        0.0000
@<TRIPOS>BOND
     1    30    31    1
     2    31    32   ar
     3    32    26    1
     4    26    27    2
     5    26    28   am
     6    28     1    1
     7     1     2   ar
     8     2     3   ar
     9     3     4   ar
    10     4     7    1
    11     7     8    1
    12     8     9    1
    13     9    10    1
    14    10    13    1
    15    13    14    1
    16    14    15    1
    17    15    16   ar
    18    16    17   ar
    19    17    18   ar
    20    18    19    1
    21    18    20   ar
    22    20    22    1
    23    22    23    2
    24    22    24    1
    25    20    21   ar
    26    10    11    1
    27    11    12    1
    28     4     5   ar
    29     5     6   ar
    30    32    33   ar
    31    33    34   ar
    32    34    35   ar
    33    35    36   ar
    34    36    37   ar
    35    37    40    1
    36    40    41   ar
    37    41    42   ar
    38    42    43   ar
    39    43    44   ar
    40    44    45   ar
    41    37    38   ar
    42    38    39   ar
    43    39    31   ar
    44     6     1   ar
    45    39    34   ar
    46    12     7    1
    47    45    40   ar
    48    21    15   ar
    49    28    29    1
    50    24    25    1
@<TRIPOS>MOLECULE
*****
 45 50 0 0 0
SMALL
GASTEIGER

@<TRIPOS>ATOM
      1 C         -63.5086  -50.3616  -24.3457 C.ar    1  UNL1        0.0702
      2 C         -64.8752  -50.5686  -24.5686 C.ar    1  UNL1        0.0191
      3 C         -65.4813  -51.7599  -24.1675 C.ar    1  UNL1        0.0356
      4 C         -64.7057  -52.7619  -23.5634 C.ar    1  UNL1        0.1318
      5 N         -63.3762  -52.5431  -23.3644 N.ar    1  UNL1       -0.2279
      6 C         -62.7656  -51.3889  -23.7421 C.ar    1  UNL1        0.1149
      7 N         -65.2986  -53.9957  -23.1158 N.pl3   1  UNL1       -0.2932
      8 C         -66.5843  -54.4684  -23.6486 C.3     1  UNL1        0.0923
      9 C         -67.5359  -54.8666  -22.5073 C.3     1  UNL1        0.0252
     10 C         -66.8032  -55.4339  -21.2617 C.3     1  UNL1        0.0472
     11 C         -65.4116  -55.9859  -21.6278 C.3     1  UNL1        0.0252
     12 C         -64.5356  -54.8647  -22.2073 C.3     1  UNL1        0.0923
     13 C         -67.6619  -56.5069  -20.5642 C.3     1  UNL1        0.2054
     14 O         -68.5981  -55.9154  -19.6615 O.3     1  UNL1       -0.4755
     15 C         -68.4870  -55.8991  -18.2611 C.ar    1  UNL1        0.1388
     16 C         -69.6171  -56.2306  -17.5092 C.ar    1  UNL1        0.0378
     17 C         -69.5689  -56.2253  -16.1147 C.ar    1  UNL1        0.0147
     18 C         -68.3849  -55.8959  -15.4469 C.ar    1  UNL1        0.0641
     19 CL        -68.4259  -55.8099  -13.6883 Cl      1  UNL1       -0.0820
     20 C         -67.2280  -55.5732  -16.1890 C.ar    1  UNL1        0.0890
     21 C         -67.2943  -55.5592  -17.5933 C.ar    1  UNL1        0.0442
     22 C         -65.9481  -55.2332  -15.5315 C.2     1  UNL1        0.3390
     23 O         -65.9148  -54.3202  -14.6645 O.2     1  UNL1       -0.2451
     24 O         -64.7616  -55.8709  -15.8859 O.3     1  UNL1       -0.4771
     25 H         -64.7190  -56.5211  -16.6611 H       1  UNL1        0.2954
     26 C         -63.0913  -48.5581  -26.0833 C.2     1  UNL1        0.2839
     27 O         -63.6210  -49.2343  -27.0058 O.2     1  UNL1       -0.2665
     28 N         -62.8937  -49.1376  -24.7834 N.am    1  UNL1       -0.2766
     29 H         -62.1961  -48.6889  -24.1474 H       1  UNL1        0.1553
     30 C         -63.6419  -46.8206  -28.7199 C.3     1  UNL1        0.0345
     31 C         -62.8725  -46.4187  -27.4977 C.ar    1  UNL1        0.0202
     32 C         -62.6338  -47.1809  -26.3485 C.ar    1  UNL1        0.1946
     33 O         -61.9163  -46.4842  -25.4850 O.2     1  UNL1       -0.4492
     34 C         -61.6762  -45.3100  -26.0154 C.ar    1  UNL1        0.1452
     35 C         -60.9547  -44.2622  -25.4544 C.ar    1  UNL1        0.0375
     36 C         -60.8163  -43.0806  -26.2030 C.ar    1  UNL1        0.0031
     37 C         -61.3980  -42.9640  -27.4944 C.ar    1  UNL1        0.0002
     38 C         -62.1254  -44.0546  -28.0287 C.ar    1  UNL1        0.0028
     39 C         -62.2429  -45.2121  -27.2579 C.ar    1  UNL1        0.0337
     40 C         -61.2449  -41.7107  -28.2761 C.ar    1  UNL1        0.0000
     41 C         -62.2297  -41.3210  -29.2039 C.ar    1  UNL1        0.0000
     42 C         -62.0829  -40.1404  -29.9386 C.ar    1  UNL1        0.0000
     43 C         -60.9545  -39.3377  -29.7576 C.ar    1  UNL1        0.0000
     44 C         -59.9704  -39.7137  -28.8408 C.ar    1  UNL1        0.0000
     45 C         -60.1122  -40.8927  -28.1025 C.ar    1  UNL1        0.0000
@<TRIPOS>BOND
     1    30    31    1
     2    31    32   ar
     3    32    26    1
     4    26    27    2
     5    26    28   am
     6    28     1    1
     7     1     2   ar
     8     2     3   ar
     9     3     4   ar
    10     4     7    1
    11     7     8    1
    12     8     9    1
    13     9    10    1
    14    10    13    1
    15    13    14    1
    16    14    15    1
    17    15    16   ar
    18    16    17   ar
    19    17    18   ar
    20    18    19    1
    21    18    20   ar
    22    20    22    1
    23    22    23    2
    24    22    24    1
    25    20    21   ar
    26    10    11    1
    27    11    12    1
    28     4     5   ar
    29     5     6   ar
    30    32    33   ar
    31    33    34   ar
    32    34    35   ar
    33    35    36   ar
    34    36    37   ar
    35    37    40    1
    36    40    41   ar
    37    41    42   ar
    38    42    43   ar
    39    43    44   ar
    40    44    45   ar
    41    37    38   ar
    42    38    39   ar
    43    39    31   ar
    44     6     1   ar
    45    39    34   ar
    46    12     7    1
    47    45    40   ar
    48    21    15   ar
    49    28    29    1
    50    24    25    1
