@<TRIPOS>MOLECULE
*****
 49 54 0 0 0
SMALL
GASTEIGER

@<TRIPOS>ATOM
      1 C          59.7570   85.5427   10.2155 C.2     1  UNL1        0.2483
      2 O          58.6492   85.0676   10.5880 O.2     1  UNL1       -0.2701
      3 N          60.9672   85.1322   10.8727 N.am    1  UNL1       -0.2945
      4 H          61.8784   85.3348   10.4028 H       1  UNL1        0.1501
      5 C          59.8835   88.3344    6.9459 C.ar    1  UNL1        0.0501
      6 C          60.5777   88.5941    8.1370 C.ar    1  UNL1        0.0148
      7 C          60.5346   87.6804    9.1929 C.ar    1  UNL1        0.0080
      8 C          59.7931   86.4922    9.0804 C.ar    1  UNL1        0.0808
      9 C          59.1204   86.2187    7.8735 C.ar    1  UNL1        0.1457
     10 F          58.4550   85.0499    7.6921 F       1  UNL1       -0.2040
     11 C          59.1685   87.1346    6.8182 C.ar    1  UNL1        0.0443
     12 C          58.7971   90.2106    5.6337 C.3     1  UNL1        0.0925
     13 C          59.2848   91.4528    4.8640 C.3     1  UNL1        0.1105
     14 N          60.0060   91.0453    3.6520 N.pl3   1  UNL1       -0.3041
     15 C          60.9729   89.9396    3.7080 C.3     1  UNL1        0.1122
     16 C          61.1968   89.4537    5.1448 C.3     1  UNL1        0.1122
     17 N          59.9193   89.2701    5.8518 N.pl3   1  UNL1       -0.3057
     18 C          59.7590   91.7114    2.4007 C.ar    1  UNL1        0.0488
     19 C          60.3425   92.9595    2.1319 C.ar    1  UNL1        0.0154
     20 C          60.1050   93.6018    0.9139 C.ar    1  UNL1        0.0135
     21 C          59.2848   93.0066   -0.0503 C.ar    1  UNL1        0.0683
     22 CL         59.0099   93.8455   -1.5710 Cl      1  UNL1       -0.0814
     23 C          58.6972   91.7573    0.2099 C.ar    1  UNL1        0.0694
     24 CL         57.6632   90.9714   -0.9757 Cl      1  UNL1       -0.0813
     25 C          58.9358   91.1164    1.4312 C.ar    1  UNL1        0.0268
     26 C          56.2687   90.1018    5.2076 C.3     1  UNL1        0.0018
     27 C          57.6426   89.5251    4.8674 C.3     1  UNL1        0.0215
     28 C          60.9511   84.3802   12.1334 C.3     1  UNL1        0.1535
     29 C          60.6234   82.9264   11.8853 C.2     1  UNL1        0.2443
     30 O          61.5466   82.1213   11.5835 O.2     1  UNL1       -0.2730
     31 N          59.2882   82.4479   12.1177 N.am    1  UNL1       -0.2825
     32 H          58.6210   83.0847   12.6098 H       1  UNL1        0.1549
     33 C          58.8699   81.0932   11.8860 C.ar    1  UNL1        0.0535
     34 C          58.3243   80.7440   10.6433 C.ar    1  UNL1        0.0353
     35 C          57.9338   79.4240   10.4067 C.ar    1  UNL1        0.1002
     36 N          58.0975   78.4810   11.3719 N.ar    1  UNL1       -0.2422
     37 C          58.6408   78.7858   12.5801 C.ar    1  UNL1        0.1002
     38 C          59.0433   80.0945   12.8586 C.ar    1  UNL1        0.0353
     39 C          62.3105   84.5142   12.8444 C.3     1  UNL1        0.0569
     40 C          62.1849   85.2724   14.1353 C.ar    1  UNL1       -0.0017
     41 C          61.4789   84.8719   15.2662 C.ar    1  UNL1        0.0681
     42 N          61.4802   85.8541   16.1961 N.ar    1  UNL1       -0.3523
     43 C          62.1695   86.8748   15.6571 C.ar    1  UNL1        0.0563
     44 C          62.4136   88.1236   16.2266 C.ar    1  UNL1        0.0170
     45 C          63.1353   89.0629   15.4671 C.ar    1  UNL1        0.0015
     46 C          63.5865   88.7384   14.1682 C.ar    1  UNL1        0.0001
     47 C          63.3220   87.4713   13.6175 C.ar    1  UNL1        0.0012
     48 C          62.6114   86.5590   14.3979 C.ar    1  UNL1        0.0131
     49 H          61.0170   85.8296   17.1315 H       1  UNL1        0.1660
@<TRIPOS>BOND
     1    26    27    1
     2    27    12    1
     3    12    13    1
     4    13    14    1
     5    14    18    1
     6    18    19   ar
     7    19    20   ar
     8    20    21   ar
     9    21    22    1
    10    21    23   ar
    11    23    24    1
    12    23    25   ar
    13    14    15    1
    14    15    16    1
    15    16    17    1
    16    17     5    1
    17     5     6   ar
    18     6     7   ar
    19     7     8   ar
    20     8     1    1
    21     1     2    2
    22     1     3   am
    23     3    28    1
    24    28    39    1
    25    39    40    1
    26    40    41   ar
    27    41    42   ar
    28    42    43   ar
    29    43    44   ar
    30    44    45   ar
    31    45    46   ar
    32    46    47   ar
    33    47    48   ar
    34    28    29    1
    35    29    30    2
    36    29    31   am
    37    31    33    1
    38    33    34   ar
    39    34    35   ar
    40    35    36   ar
    41    36    37   ar
    42    37    38   ar
    43     8     9   ar
    44     9    10    1
    45     9    11   ar
    46    17    12    1
    47    11     5   ar
    48    25    18   ar
    49    48    40   ar
    50    38    33   ar
    51    48    43   ar
    52     3     4    1
    53    42    49    1
    54    31    32    1
@<TRIPOS>MOLECULE
*****
 49 54 0 0 0
SMALL
GASTEIGER

@<TRIPOS>ATOM
      1 C          59.8793   85.7648   10.1249 C.2     1  UNL1        0.2483
      2 O          59.1588   86.0327   11.1253 O.2     1  UNL1       -0.2701
      3 N          60.6465   84.5499   10.1025 N.am    1  UNL1       -0.2945
      4 H          61.0324   84.2254    9.1871 H       1  UNL1        0.1501
      5 C          59.9427   88.4990    6.8053 C.ar    1  UNL1        0.0501
      6 C          60.6309   88.7958    7.9913 C.ar    1  UNL1        0.0148
      7 C          60.6085   87.9006    9.0635 C.ar    1  UNL1        0.0080
      8 C          59.8939   86.6941    8.9728 C.ar    1  UNL1        0.0808
      9 C          59.2275   86.3838    7.7713 C.ar    1  UNL1        0.1457
     10 F          58.5886   85.1972    7.6114 F       1  UNL1       -0.2040
     11 C          59.2549   87.2813    6.6997 C.ar    1  UNL1        0.0443
     12 C          58.8233   90.3406    5.4718 C.3     1  UNL1        0.0925
     13 C          59.2901   91.5737    4.6751 C.3     1  UNL1        0.1105
     14 N          60.0026   91.1518    3.4628 N.pl3   1  UNL1       -0.3041
     15 C          60.9812   90.0570    3.5279 C.3     1  UNL1        0.1122
     16 C          61.2253   89.5991    4.9706 C.3     1  UNL1        0.1122
     17 N          59.9573   89.4153    5.6945 N.pl3   1  UNL1       -0.3057
     18 C          59.7355   91.7930    2.2026 C.ar    1  UNL1        0.0488
     19 C          60.3216   93.0312    1.8961 C.ar    1  UNL1        0.0154
     20 C          60.0645   93.6491    0.6695 C.ar    1  UNL1        0.0135
     21 C          59.2219   93.0393   -0.2657 C.ar    1  UNL1        0.0683
     22 CL         58.9229   93.8478   -1.7983 Cl      1  UNL1       -0.0814
     23 C          58.6315   91.7998    0.0322 C.ar    1  UNL1        0.0694
     24 CL         57.5697   90.9961   -1.1161 Cl      1  UNL1       -0.0813
     25 C          58.8898   91.1833    1.2621 C.ar    1  UNL1        0.0268
     26 C          56.3404   89.6920    5.4852 C.3     1  UNL1        0.0018
     27 C          57.6678   89.6300    4.7304 C.3     1  UNL1        0.0215
     28 C          60.8355   83.7271   11.3035 C.3     1  UNL1        0.1535
     29 C          61.6236   84.4800   12.3496 C.2     1  UNL1        0.2443
     30 O          62.8421   84.2067   12.5295 O.2     1  UNL1       -0.2730
     31 N          61.0161   85.5837   13.0411 N.am    1  UNL1       -0.2825
     32 H          60.1003   85.9386   12.6829 H       1  UNL1        0.1549
     33 C          61.6703   86.3441   14.0696 C.ar    1  UNL1        0.0535
     34 C          61.5839   85.9176   15.4017 C.ar    1  UNL1        0.0353
     35 C          62.2342   86.6429   16.4028 C.ar    1  UNL1        0.1002
     36 N          62.9597   87.7469   16.0830 N.ar    1  UNL1       -0.2422
     37 C          63.0770   88.1741   14.7978 C.ar    1  UNL1        0.1002
     38 C          62.4412   87.4785   13.7663 C.ar    1  UNL1        0.0353
     39 C          59.4689   83.2927   11.8651 C.3     1  UNL1        0.0569
     40 C          58.9133   82.1161   11.1141 C.ar    1  UNL1       -0.0017
     41 C          58.2313   82.1544    9.9011 C.ar    1  UNL1        0.0681
     42 N          57.7695   80.9244    9.5801 N.ar    1  UNL1       -0.3523
     43 C          58.1428   80.1135   10.5853 C.ar    1  UNL1        0.0563
     44 C          57.8679   78.7535   10.7205 C.ar    1  UNL1        0.0170
     45 C          58.3300   78.1011   11.8784 C.ar    1  UNL1        0.0015
     46 C          59.0433   78.8160   12.8664 C.ar    1  UNL1        0.0001
     47 C          59.3027   80.1891   12.7049 C.ar    1  UNL1        0.0012
     48 C          58.8389   80.8058   11.5428 C.ar    1  UNL1        0.0131
     49 H          57.2142   80.6665    8.7342 H       1  UNL1        0.1660
@<TRIPOS>BOND
     1    26    27    1
     2    27    12    1
     3    12    13    1
     4    13    14    1
     5    14    18    1
     6    18    19   ar
     7    19    20   ar
     8    20    21   ar
     9    21    22    1
    10    21    23   ar
    11    23    24    1
    12    23    25   ar
    13    14    15    1
    14    15    16    1
    15    16    17    1
    16    17     5    1
    17     5     6   ar
    18     6     7   ar
    19     7     8   ar
    20     8     1    1
    21     1     2    2
    22     1     3   am
    23     3    28    1
    24    28    39    1
    25    39    40    1
    26    40    41   ar
    27    41    42   ar
    28    42    43   ar
    29    43    44   ar
    30    44    45   ar
    31    45    46   ar
    32    46    47   ar
    33    47    48   ar
    34    28    29    1
    35    29    30    2
    36    29    31   am
    37    31    33    1
    38    33    34   ar
    39    34    35   ar
    40    35    36   ar
    41    36    37   ar
    42    37    38   ar
    43     8     9   ar
    44     9    10    1
    45     9    11   ar
    46    17    12    1
    47    11     5   ar
    48    25    18   ar
    49    48    40   ar
    50    38    33   ar
    51    48    43   ar
    52     3     4    1
    53    42    49    1
    54    31    32    1
@<TRIPOS>MOLECULE
*****
 49 54 0 0 0
SMALL
GASTEIGER

@<TRIPOS>ATOM
      1 C          59.6267   84.4341    9.3977 C.2     1  UNL1        0.2483
      2 O          58.4813   84.8162    9.0318 O.2     1  UNL1       -0.2701
      3 N          60.1015   83.1330    9.0146 N.am    1  UNL1       -0.2945
      4 H          61.1227   82.9320    9.1081 H       1  UNL1        0.1501
      5 C          62.1031   87.0642   11.7321 C.ar    1  UNL1        0.0501
      6 C          61.9523   85.7163   12.0907 C.ar    1  UNL1        0.0148
      7 C          61.1491   84.8677   11.3250 C.ar    1  UNL1        0.0080
      8 C          60.4776   85.3510   10.1892 C.ar    1  UNL1        0.0808
      9 C          60.6530   86.6971    9.8134 C.ar    1  UNL1        0.1457
     10 F          60.0856   87.1879    8.6825 F       1  UNL1       -0.2040
     11 C          61.4600   87.5422   10.5810 C.ar    1  UNL1        0.0443
     12 C          63.2082   89.3235   12.0441 C.3     1  UNL1        0.0925
     13 C          63.5479   90.2367   13.2374 C.3     1  UNL1        0.1105
     14 N          64.6024   89.6264   14.0564 N.pl3   1  UNL1       -0.3041
     15 C          64.5482   88.1929   14.3769 C.3     1  UNL1        0.1122
     16 C          63.2397   87.5533   13.8978 C.3     1  UNL1        0.1122
     17 N          62.9269   87.9485   12.5152 N.pl3   1  UNL1       -0.3057
     18 C          65.7025   90.4210   14.5347 C.ar    1  UNL1        0.0488
     19 C          65.5326   91.2880   15.6255 C.ar    1  UNL1        0.0154
     20 C          66.6040   92.0547   16.0911 C.ar    1  UNL1        0.0135
     21 C          67.8569   91.9646   15.4758 C.ar    1  UNL1        0.0683
     22 CL         69.1809   92.9450   16.0905 Cl      1  UNL1       -0.0814
     23 C          68.0364   91.0990   14.3839 C.ar    1  UNL1        0.0694
     24 CL         69.5954   90.9516   13.5840 Cl      1  UNL1       -0.0813
     25 C          66.9613   90.3328   13.9188 C.ar    1  UNL1        0.0268
     26 C          64.9332   90.7256   10.7618 C.3     1  UNL1        0.0018
     27 C          64.3648   89.3303   11.0183 C.3     1  UNL1        0.0215
     28 C          59.2116   82.1202    8.4340 C.3     1  UNL1        0.1535
     29 C          59.8536   80.7534    8.4807 C.2     1  UNL1        0.2443
     30 O          59.6524   79.9369    7.5402 O.2     1  UNL1       -0.2730
     31 N          60.7863   80.4405    9.5285 N.am    1  UNL1       -0.2825
     32 H          61.1192   81.2244   10.1348 H       1  UNL1        0.1549
     33 C          61.4279   79.1637    9.6764 C.ar    1  UNL1        0.0535
     34 C          62.6408   78.9221    9.0172 C.ar    1  UNL1        0.0353
     35 C          63.2782   77.6890    9.1732 C.ar    1  UNL1        0.1002
     36 N          62.7318   76.7354    9.9731 N.ar    1  UNL1       -0.2422
     37 C          61.5663   76.9476   10.6397 C.ar    1  UNL1        0.1002
     38 C          60.8955   78.1664   10.5102 C.ar    1  UNL1        0.0353
     39 C          57.8652   82.1107    9.1815 C.3     1  UNL1        0.0569
     40 C          58.0354   81.7055   10.6182 C.ar    1  UNL1       -0.0017
     41 C          58.3371   82.5461   11.6860 C.ar    1  UNL1        0.0681
     42 N          58.5362   81.8250   12.8128 N.ar    1  UNL1       -0.3523
     43 C          58.3754   80.5370   12.4628 C.ar    1  UNL1        0.0563
     44 C          58.5132   79.4158   13.2797 C.ar    1  UNL1        0.0170
     45 C          58.3310   78.1493   12.6943 C.ar    1  UNL1        0.0015
     46 C          58.0244   78.0332   11.3201 C.ar    1  UNL1        0.0001
     47 C          57.8952   79.1823   10.5190 C.ar    1  UNL1        0.0012
     48 C          58.0736   80.4237   11.1298 C.ar    1  UNL1        0.0131
     49 H          58.7884   82.1960   13.7557 H       1  UNL1        0.1660
@<TRIPOS>BOND
     1    26    27    1
     2    27    12    1
     3    12    13    1
     4    13    14    1
     5    14    18    1
     6    18    19   ar
     7    19    20   ar
     8    20    21   ar
     9    21    22    1
    10    21    23   ar
    11    23    24    1
    12    23    25   ar
    13    14    15    1
    14    15    16    1
    15    16    17    1
    16    17     5    1
    17     5     6   ar
    18     6     7   ar
    19     7     8   ar
    20     8     1    1
    21     1     2    2
    22     1     3   am
    23     3    28    1
    24    28    39    1
    25    39    40    1
    26    40    41   ar
    27    41    42   ar
    28    42    43   ar
    29    43    44   ar
    30    44    45   ar
    31    45    46   ar
    32    46    47   ar
    33    47    48   ar
    34    28    29    1
    35    29    30    2
    36    29    31   am
    37    31    33    1
    38    33    34   ar
    39    34    35   ar
    40    35    36   ar
    41    36    37   ar
    42    37    38   ar
    43     8     9   ar
    44     9    10    1
    45     9    11   ar
    46    17    12    1
    47    11     5   ar
    48    25    18   ar
    49    48    40   ar
    50    38    33   ar
    51    48    43   ar
    52     3     4    1
    53    42    49    1
    54    31    32    1
