@<TRIPOS>MOLECULE
*****
 35 39 0 0 0
SMALL
GASTEIGER

@<TRIPOS>ATOM
      1 C          49.2503   10.5085  -19.5543 C.2     1  UNL1        0.2494
      2 O          48.5912    9.4425  -19.4117 O.2     1  UNL1       -0.2699
      3 N          49.4644   11.0353  -20.8800 N.am    1  UNL1       -0.2680
      4 C          49.6263   10.1192  -22.0089 C.3     1  UNL1        0.1412
      5 C          48.2548    9.7249  -22.5489 C.3     1  UNL1        0.2268
      6 O          47.2861   10.7388  -22.2884 O.3     1  UNL1       -0.4739
      7 C          47.4363   12.0617  -22.7151 C.ar    1  UNL1        0.1366
      8 C          46.5025   12.5474  -23.6309 C.ar    1  UNL1        0.0367
      9 C          46.5915   13.8465  -24.1153 C.ar    1  UNL1        0.0035
     10 C          47.6110   14.6979  -23.6793 C.ar    1  UNL1        0.0054
     11 C          48.5408   14.2440  -22.7161 C.ar    1  UNL1        0.0306
     12 I          49.9709   15.6245  -21.9092 I       1  UNL1       -0.0427
     13 C          48.4733   12.9089  -22.2346 C.ar    1  UNL1        0.0371
     14 C          49.4437   12.4816  -21.1378 C.3     1  UNL1        0.1240
     15 C          47.6720   16.0632  -24.2390 C.ar    1  UNL1        0.0019
     16 C          46.8503   17.0883  -23.7009 C.ar    1  UNL1        0.0017
     17 C          46.8841   18.3895  -24.2371 C.ar    1  UNL1        0.0206
     18 C          47.7388   18.6257  -25.3100 C.ar    1  UNL1        0.0985
     19 N          47.9285   19.7802  -25.9736 N.ar    1  UNL1       -0.2241
     20 C          48.8515   19.4410  -26.9122 C.ar    1  UNL1        0.1750
     21 N          49.2308   18.1417  -26.8533 N.ar    1  UNL1       -0.3349
     22 C          48.5192   17.6423  -25.8363 C.ar    1  UNL1        0.0757
     23 C          48.5161   16.3426  -25.3374 C.ar    1  UNL1        0.0186
     24 H          49.9198   17.6472  -27.4625 H       1  UNL1        0.1675
     25 C          48.7814   11.7397  -14.7250 C.3     1  UNL1        0.0324
     26 C          49.5908   11.7907  -15.9949 C.ar    1  UNL1       -0.0046
     27 C          49.0855   11.1594  -17.1455 C.ar    1  UNL1        0.0015
     28 C          49.7990   11.1799  -18.3528 C.ar    1  UNL1        0.0534
     29 C          51.0483   11.8124  -18.3954 C.ar    1  UNL1        0.0058
     30 C          51.5668   12.4333  -17.2592 C.ar    1  UNL1        0.0182
     31 C          50.8551   12.4290  -16.0489 C.ar    1  UNL1        0.1018
     32 S          51.5519   13.2288  -14.6250 S.O2    1  UNL1        0.0101
     33 C          52.1192   12.0680  -13.3972 C.3     1  UNL1        0.1816
     34 O          50.5127   14.1028  -13.9813 O.2     1  UNL1       -0.1686
     35 O          52.7212   14.0710  -15.0511 O.2     1  UNL1       -0.1686
@<TRIPOS>BOND
     1    25    26    1
     2    26    27   ar
     3    27    28   ar
     4    28     1    1
     5     1     2    2
     6     1     3   am
     7     3     4    1
     8     4     5    1
     9     5     6    1
    10     6     7    1
    11     7     8   ar
    12     8     9   ar
    13     9    10   ar
    14    10    15    1
    15    15    16   ar
    16    16    17   ar
    17    17    18   ar
    18    18    19   ar
    19    19    20   ar
    20    20    21   ar
    21    21    22   ar
    22    22    23   ar
    23    10    11   ar
    24    11    12    1
    25    11    13   ar
    26    13    14    1
    27    28    29   ar
    28    29    30   ar
    29    30    31   ar
    30    31    32    1
    31    32    33    1
    32    32    34    2
    33    32    35    2
    34    31    26   ar
    35    14     3    1
    36    13     7   ar
    37    23    15   ar
    38    22    18   ar
    39    21    24    1
@<TRIPOS>MOLECULE
*****
 35 39 0 0 0
SMALL
GASTEIGER

@<TRIPOS>ATOM
      1 C          50.4967    9.0786  -24.4109 C.2     1  UNL1        0.2494
      2 O          51.2548    8.4616  -23.6136 O.2     1  UNL1       -0.2699
      3 N          49.5121    9.9926  -23.8857 N.am    1  UNL1       -0.2680
      4 C          48.8677    9.7091  -22.6034 C.3     1  UNL1        0.1412
      5 C          49.7405   10.2303  -21.4656 C.3     1  UNL1        0.2268
      6 O          50.5477   11.3255  -21.8939 O.3     1  UNL1       -0.4739
      7 C          50.0141   12.4896  -22.4549 C.ar    1  UNL1        0.1366
      8 C          50.2041   13.6813  -21.7547 C.ar    1  UNL1        0.0367
      9 C          49.6915   14.8788  -22.2377 C.ar    1  UNL1        0.0035
     10 C          48.9895   14.9139  -23.4461 C.ar    1  UNL1        0.0054
     11 C          48.8253   13.7277  -24.1973 C.ar    1  UNL1        0.0306
     12 I          47.9253   13.8357  -26.1417 I       1  UNL1       -0.0427
     13 C          49.3231   12.4940  -23.6985 C.ar    1  UNL1        0.0371
     14 C          49.1968   11.2515  -24.5746 C.3     1  UNL1        0.1240
     15 C          48.4492   16.2092  -23.9061 C.ar    1  UNL1        0.0019
     16 C          47.2128   16.6843  -23.3952 C.ar    1  UNL1        0.0017
     17 C          46.6766   17.9079  -23.8389 C.ar    1  UNL1        0.0206
     18 C          47.3945   18.6207  -24.7949 C.ar    1  UNL1        0.0985
     19 N          47.0726   19.7992  -25.3577 N.ar    1  UNL1       -0.2241
     20 C          48.1080   20.0198  -26.2103 C.ar    1  UNL1        0.1750
     21 N          49.0403   19.0369  -26.1951 N.ar    1  UNL1       -0.3349
     22 C          48.5744   18.1624  -25.2960 C.ar    1  UNL1        0.0757
     23 C          49.1395   16.9581  -24.8858 C.ar    1  UNL1        0.0186
     24 H          49.9188   18.9784  -26.7565 H       1  UNL1        0.1675
     25 C          52.8894    9.9614  -28.7183 C.3     1  UNL1        0.0324
     26 C          51.7864    9.2483  -27.9798 C.ar    1  UNL1       -0.0046
     27 C          51.6431    9.4701  -26.5985 C.ar    1  UNL1        0.0015
     28 C          50.6314    8.8324  -25.8658 C.ar    1  UNL1        0.0534
     29 C          49.7761    7.9372  -26.5214 C.ar    1  UNL1        0.0058
     30 C          49.9134    7.6993  -27.8888 C.ar    1  UNL1        0.0182
     31 C          50.9151    8.3417  -28.6339 C.ar    1  UNL1        0.1018
     32 S          51.0574    8.0089  -30.3721 S.O2    1  UNL1        0.0101
     33 C          49.5517    7.3587  -31.0699 C.3     1  UNL1        0.1816
     34 O          52.1423    6.9948  -30.6021 O.2     1  UNL1       -0.1686
     35 O          51.3991    9.2813  -31.0950 O.2     1  UNL1       -0.1686
@<TRIPOS>BOND
     1    25    26    1
     2    26    27   ar
     3    27    28   ar
     4    28     1    1
     5     1     2    2
     6     1     3   am
     7     3     4    1
     8     4     5    1
     9     5     6    1
    10     6     7    1
    11     7     8   ar
    12     8     9   ar
    13     9    10   ar
    14    10    15    1
    15    15    16   ar
    16    16    17   ar
    17    17    18   ar
    18    18    19   ar
    19    19    20   ar
    20    20    21   ar
    21    21    22   ar
    22    22    23   ar
    23    10    11   ar
    24    11    12    1
    25    11    13   ar
    26    13    14    1
    27    28    29   ar
    28    29    30   ar
    29    30    31   ar
    30    31    32    1
    31    32    33    1
    32    32    34    2
    33    32    35    2
    34    31    26   ar
    35    14     3    1
    36    13     7   ar
    37    23    15   ar
    38    22    18   ar
    39    21    24    1
@<TRIPOS>MOLECULE
*****
 35 39 0 0 0
SMALL
GASTEIGER

@<TRIPOS>ATOM
      1 C          46.5189   11.9236  -28.4997 C.2     1  UNL1        0.2494
      2 O          45.4370   12.2926  -29.0331 O.2     1  UNL1       -0.2699
      3 N          47.0189   12.6359  -27.3493 N.am    1  UNL1       -0.2680
      4 C          46.7990   14.0775  -27.2347 C.3     1  UNL1        0.1412
      5 C          45.4295   14.3387  -26.6147 C.3     1  UNL1        0.2268
      6 O          45.0237   13.2536  -25.7827 O.3     1  UNL1       -0.4739
      7 C          45.7872   12.7949  -24.7051 C.ar    1  UNL1        0.1366
      8 C          45.2297   12.9122  -23.4315 C.ar    1  UNL1        0.0367
      9 C          45.9310   12.4937  -22.3075 C.ar    1  UNL1        0.0035
     10 C          47.2039   11.9300  -22.4347 C.ar    1  UNL1        0.0054
     11 C          47.7700   11.7570  -23.7184 C.ar    1  UNL1        0.0306
     12 I          49.6314   10.7077  -23.9093 I       1  UNL1       -0.0427
     13 C          47.0715   12.2059  -24.8714 C.ar    1  UNL1        0.0371
     14 C          47.6790   11.9292  -26.2432 C.3     1  UNL1        0.1240
     15 C          47.9147   11.5185  -21.2073 C.ar    1  UNL1        0.0019
     16 C          48.1759   10.1442  -20.9652 C.ar    1  UNL1        0.0017
     17 C          48.8354    9.7360  -19.7905 C.ar    1  UNL1        0.0206
     18 C          49.2083   10.7219  -18.8814 C.ar    1  UNL1        0.0985
     19 N          49.8396   10.5612  -17.7046 N.ar    1  UNL1       -0.2241
     20 C          49.9435   11.8349  -17.2411 C.ar    1  UNL1        0.1750
     21 N          49.4076   12.7592  -18.0742 N.ar    1  UNL1       -0.3349
     22 C          48.9488   12.0394  -19.1045 C.ar    1  UNL1        0.0757
     23 C          48.2987   12.4862  -20.2516 C.ar    1  UNL1        0.0186
     24 H          49.3645   13.7939  -17.9402 H       1  UNL1        0.1675
     25 C          50.2317    8.5815  -28.1785 C.3     1  UNL1        0.0324
     26 C          49.0585    9.1342  -28.9456 C.ar    1  UNL1       -0.0046
     27 C          48.3504   10.2236  -28.4075 C.ar    1  UNL1        0.0015
     28 C          47.2525   10.7760  -29.0831 C.ar    1  UNL1        0.0534
     29 C          46.8416   10.2068  -30.2954 C.ar    1  UNL1        0.0058
     30 C          47.5277    9.1193  -30.8357 C.ar    1  UNL1        0.0182
     31 C          48.6354    8.5664  -30.1734 C.ar    1  UNL1        0.1018
     32 S          49.4794    7.1805  -30.8941 S.O2    1  UNL1        0.0101
     33 C          48.5247    6.3875  -32.1734 C.3     1  UNL1        0.1816
     34 O          49.7596    6.1554  -29.8316 O.2     1  UNL1       -0.1686
     35 O          50.7753    7.6463  -31.4955 O.2     1  UNL1       -0.1686
@<TRIPOS>BOND
     1    25    26    1
     2    26    27   ar
     3    27    28   ar
     4    28     1    1
     5     1     2    2
     6     1     3   am
     7     3     4    1
     8     4     5    1
     9     5     6    1
    10     6     7    1
    11     7     8   ar
    12     8     9   ar
    13     9    10   ar
    14    10    15    1
    15    15    16   ar
    16    16    17   ar
    17    17    18   ar
    18    18    19   ar
    19    19    20   ar
    20    20    21   ar
    21    21    22   ar
    22    22    23   ar
    23    10    11   ar
    24    11    12    1
    25    11    13   ar
    26    13    14    1
    27    28    29   ar
    28    29    30   ar
    29    30    31   ar
    30    31    32    1
    31    32    33    1
    32    32    34    2
    33    32    35    2
    34    31    26   ar
    35    14     3    1
    36    13     7   ar
    37    23    15   ar
    38    22    18   ar
    39    21    24    1
@<TRIPOS>MOLECULE
*****
 35 39 0 0 0
SMALL
GASTEIGER

@<TRIPOS>ATOM
      1 C          52.6702   12.8451  -19.6692 C.2     1  UNL1        0.2494
      2 O          53.7876   12.2626  -19.6108 O.2     1  UNL1       -0.2699
      3 N          52.3800   13.7068  -20.7891 N.am    1  UNL1       -0.2680
      4 C          53.4538   14.4879  -21.4029 C.3     1  UNL1        0.1412
      5 C          54.1795   13.6347  -22.4390 C.3     1  UNL1        0.2268
      6 O          53.3206   12.6292  -22.9733 O.3     1  UNL1       -0.4739
      7 C          52.0995   12.9207  -23.5887 C.ar    1  UNL1        0.1366
      8 C          51.9714   12.5958  -24.9395 C.ar    1  UNL1        0.0367
      9 C          50.7952   12.8673  -25.6272 C.ar    1  UNL1        0.0035
     10 C          49.7101   13.4567  -24.9718 C.ar    1  UNL1        0.0054
     11 C          49.7991   13.7514  -23.5921 C.ar    1  UNL1        0.0306
     12 I          48.0595   14.4654  -22.5595 I       1  UNL1       -0.0427
     13 C          51.0069   13.5014  -22.8867 C.ar    1  UNL1        0.0371
     14 C          51.0372   13.7580  -21.3832 C.3     1  UNL1        0.1240
     15 C          48.4894   13.7415  -25.7527 C.ar    1  UNL1        0.0019
     16 C          47.4678   12.7610  -25.8559 C.ar    1  UNL1        0.0017
     17 C          46.3076   13.0117  -26.6126 C.ar    1  UNL1        0.0206
     18 C          46.2076   14.2417  -27.2563 C.ar    1  UNL1        0.0985
     19 N          45.1998   14.6890  -28.0268 N.ar    1  UNL1       -0.2241
     20 C          45.6251   15.9274  -28.3917 C.ar    1  UNL1        0.1750
     21 N          46.8378   16.2545  -27.8838 N.ar    1  UNL1       -0.3349
     22 C          47.1905   15.1796  -27.1695 C.ar    1  UNL1        0.0757
     23 C          48.3537   14.9727  -26.4332 C.ar    1  UNL1        0.0186
     24 H          47.3714   17.1417  -28.0203 H       1  UNL1        0.1675
     25 C          47.9725   11.9070  -18.2169 C.3     1  UNL1        0.0324
     26 C          49.4066   12.1792  -17.8431 C.ar    1  UNL1       -0.0046
     27 C          50.3474   12.3791  -18.8692 C.ar    1  UNL1        0.0015
     28 C          51.6939   12.6377  -18.5742 C.ar    1  UNL1        0.0534
     29 C          52.1055   12.6627  -17.2353 C.ar    1  UNL1        0.0058
     30 C          51.1857   12.4555  -16.2076 C.ar    1  UNL1        0.0182
     31 C          49.8331   12.2078  -16.4918 C.ar    1  UNL1        0.1018
     32 S          48.6950   11.9467  -15.1542 S.O2    1  UNL1        0.0101
     33 C          49.5144   11.4989  -13.6360 C.3     1  UNL1        0.1816
     34 O          47.7504   10.8330  -15.5089 O.2     1  UNL1       -0.1686
     35 O          47.9148   13.2080  -14.9127 O.2     1  UNL1       -0.1686
@<TRIPOS>BOND
     1    25    26    1
     2    26    27   ar
     3    27    28   ar
     4    28     1    1
     5     1     2    2
     6     1     3   am
     7     3     4    1
     8     4     5    1
     9     5     6    1
    10     6     7    1
    11     7     8   ar
    12     8     9   ar
    13     9    10   ar
    14    10    15    1
    15    15    16   ar
    16    16    17   ar
    17    17    18   ar
    18    18    19   ar
    19    19    20   ar
    20    20    21   ar
    21    21    22   ar
    22    22    23   ar
    23    10    11   ar
    24    11    12    1
    25    11    13   ar
    26    13    14    1
    27    28    29   ar
    28    29    30   ar
    29    30    31   ar
    30    31    32    1
    31    32    33    1
    32    32    34    2
    33    32    35    2
    34    31    26   ar
    35    14     3    1
    36    13     7   ar
    37    23    15   ar
    38    22    18   ar
    39    21    24    1
@<TRIPOS>MOLECULE
*****
 35 39 0 0 0
SMALL
GASTEIGER

@<TRIPOS>ATOM
      1 C          47.3340   13.7988  -23.1336 C.2     1  UNL1        0.2494
      2 O          46.6400   14.8520  -23.1258 O.2     1  UNL1       -0.2699
      3 N          46.8766   12.6564  -23.8863 N.am    1  UNL1       -0.2680
      4 C          45.4434   12.3858  -23.9981 C.3     1  UNL1        0.1412
      5 C          44.8586   13.1932  -25.1532 C.3     1  UNL1        0.2268
      6 O          45.8470   13.4671  -26.1444 O.3     1  UNL1       -0.4739
      7 C          46.5789   12.4634  -26.7860 C.ar    1  UNL1        0.1366
      8 C          46.4064   12.3288  -28.1640 C.ar    1  UNL1        0.0367
      9 C          47.0860   11.3457  -28.8725 C.ar    1  UNL1        0.0035
     10 C          47.9703   10.4830  -28.2182 C.ar    1  UNL1        0.0054
     11 C          48.1978   10.6306  -26.8309 C.ar    1  UNL1        0.0306
     12 I          49.7061    9.4345  -25.8840 I       1  UNL1       -0.0427
     13 C          47.4877   11.6159  -26.0935 C.ar    1  UNL1        0.0371
     14 C          47.8194   11.7973  -24.6155 C.3     1  UNL1        0.1240
     15 C          48.6536    9.4433  -29.0141 C.ar    1  UNL1        0.0019
     16 C          50.0087    9.1181  -28.7432 C.ar    1  UNL1        0.0017
     17 C          50.6781    8.1428  -29.5062 C.ar    1  UNL1        0.0206
     18 C          49.9691    7.5239  -30.5317 C.ar    1  UNL1        0.0985
     19 N          50.4059    6.5758  -31.3799 N.ar    1  UNL1       -0.2241
     20 C          49.3181    6.3454  -32.1618 C.ar    1  UNL1        0.1750
     21 N          48.2450    7.1043  -31.8331 N.ar    1  UNL1       -0.3349
     22 C          48.6733    7.8417  -30.8022 C.ar    1  UNL1        0.0757
     23 C          47.9744    8.8000  -30.0734 C.ar    1  UNL1        0.0186
     24 H          47.3025    7.1100  -32.2826 H       1  UNL1        0.1675
     25 C          52.2023   14.9074  -22.7743 C.3     1  UNL1        0.0324
     26 C          50.9712   14.2957  -22.1572 C.ar    1  UNL1       -0.0046
     27 C          49.7667   14.3203  -22.8828 C.ar    1  UNL1        0.0015
     28 C          48.5935   13.7627  -22.3539 C.ar    1  UNL1        0.0534
     29 C          48.6232   13.2047  -21.0693 C.ar    1  UNL1        0.0058
     30 C          49.8080   13.1830  -20.3338 C.ar    1  UNL1        0.0182
     31 C          50.9908   13.7276  -20.8589 C.ar    1  UNL1        0.1018
     32 S          52.4772   13.6820  -19.8888 S.O2    1  UNL1        0.0101
     33 C          52.2895   12.7306  -18.3933 C.3     1  UNL1        0.1816
     34 O          52.8629   15.0800  -19.4951 O.2     1  UNL1       -0.1686
     35 O          53.5818   13.0671  -20.7012 O.2     1  UNL1       -0.1686
@<TRIPOS>BOND
     1    25    26    1
     2    26    27   ar
     3    27    28   ar
     4    28     1    1
     5     1     2    2
     6     1     3   am
     7     3     4    1
     8     4     5    1
     9     5     6    1
    10     6     7    1
    11     7     8   ar
    12     8     9   ar
    13     9    10   ar
    14    10    15    1
    15    15    16   ar
    16    16    17   ar
    17    17    18   ar
    18    18    19   ar
    19    19    20   ar
    20    20    21   ar
    21    21    22   ar
    22    22    23   ar
    23    10    11   ar
    24    11    12    1
    25    11    13   ar
    26    13    14    1
    27    28    29   ar
    28    29    30   ar
    29    30    31   ar
    30    31    32    1
    31    32    33    1
    32    32    34    2
    33    32    35    2
    34    31    26   ar
    35    14     3    1
    36    13     7   ar
    37    23    15   ar
    38    22    18   ar
    39    21    24    1
@<TRIPOS>MOLECULE
*****
 35 39 0 0 0
SMALL
GASTEIGER

@<TRIPOS>ATOM
      1 C          49.0205   10.2690  -20.3040 C.2     1  UNL1        0.2494
      2 O          48.5646    9.0972  -20.4050 O.2     1  UNL1       -0.2699
      3 N          49.5691   10.9169  -21.4702 N.am    1  UNL1       -0.2680
      4 C          50.2734   10.1248  -22.4783 C.3     1  UNL1        0.1412
      5 C          49.2665    9.5370  -23.4626 C.3     1  UNL1        0.2268
      6 O          48.0950   10.3460  -23.5480 O.3     1  UNL1       -0.4739
      7 C          48.1302   11.7016  -23.8885 C.ar    1  UNL1        0.1366
      8 C          47.4892   12.0807  -25.0683 C.ar    1  UNL1        0.0367
      9 C          47.4920   13.4063  -25.4842 C.ar    1  UNL1        0.0035
     10 C          48.1240   14.3892  -24.7169 C.ar    1  UNL1        0.0054
     11 C          48.7391   14.0373  -23.4938 C.ar    1  UNL1        0.0306
     12 I          49.5245   15.5852  -22.2331 I       1  UNL1       -0.0427
     13 C          48.7640   12.6803  -23.0734 C.ar    1  UNL1        0.0371
     14 C          49.3662   12.3521  -21.7107 C.3     1  UNL1        0.1240
     15 C          48.1141   15.7803  -25.2127 C.ar    1  UNL1        0.0019
     16 C          47.0106   16.6272  -24.9289 C.ar    1  UNL1        0.0017
     17 C          46.9791   17.9493  -25.4113 C.ar    1  UNL1        0.0206
     18 C          48.0566   18.3849  -26.1772 C.ar    1  UNL1        0.0985
     19 N          48.2338   19.5951  -26.7370 N.ar    1  UNL1       -0.2241
     20 C          49.4337   19.4658  -27.3627 C.ar    1  UNL1        0.1750
     21 N          49.9929   18.2409  -27.2127 N.ar    1  UNL1       -0.3349
     22 C          49.1108   17.5719  -26.4615 C.ar    1  UNL1        0.0757
     23 C          49.1819   16.2585  -26.0055 C.ar    1  UNL1        0.0186
     24 H          50.9026   17.9008  -27.5961 H       1  UNL1        0.1675
     25 C          51.4854   12.4903  -16.5559 C.3     1  UNL1        0.0324
     26 C          50.1764   12.0283  -17.1420 C.ar    1  UNL1       -0.0046
     27 C          50.1836   11.3897  -18.3950 C.ar    1  UNL1        0.0015
     28 C          48.9925   10.9392  -18.9829 C.ar    1  UNL1        0.0534
     29 C          47.7786   11.1625  -18.3203 C.ar    1  UNL1        0.0058
     30 C          47.7552   11.8041  -17.0821 C.ar    1  UNL1        0.0182
     31 C          48.9430   12.2483  -16.4793 C.ar    1  UNL1        0.1018
     32 S          48.8691   13.0630  -14.9035 S.O2    1  UNL1        0.0101
     33 C          48.5071   11.9391  -13.5683 C.3     1  UNL1        0.1816
     34 O          47.7879   14.1063  -14.9279 O.2     1  UNL1       -0.1686
     35 O          50.1916   13.7180  -14.6206 O.2     1  UNL1       -0.1686
@<TRIPOS>BOND
     1    25    26    1
     2    26    27   ar
     3    27    28   ar
     4    28     1    1
     5     1     2    2
     6     1     3   am
     7     3     4    1
     8     4     5    1
     9     5     6    1
    10     6     7    1
    11     7     8   ar
    12     8     9   ar
    13     9    10   ar
    14    10    15    1
    15    15    16   ar
    16    16    17   ar
    17    17    18   ar
    18    18    19   ar
    19    19    20   ar
    20    20    21   ar
    21    21    22   ar
    22    22    23   ar
    23    10    11   ar
    24    11    12    1
    25    11    13   ar
    26    13    14    1
    27    28    29   ar
    28    29    30   ar
    29    30    31   ar
    30    31    32    1
    31    32    33    1
    32    32    34    2
    33    32    35    2
    34    31    26   ar
    35    14     3    1
    36    13     7   ar
    37    23    15   ar
    38    22    18   ar
    39    21    24    1
@<TRIPOS>MOLECULE
*****
 35 39 0 0 0
SMALL
GASTEIGER

@<TRIPOS>ATOM
      1 C          49.0822   10.1427  -20.5163 C.2     1  UNL1        0.2494
      2 O          48.5322    9.0125  -20.6224 O.2     1  UNL1       -0.2699
      3 N          49.7374   10.7205  -21.6642 N.am    1  UNL1       -0.2680
      4 C          50.4163    9.8532  -22.6268 C.3     1  UNL1        0.1412
      5 C          49.4088    9.3359  -23.6493 C.3     1  UNL1        0.2268
      6 O          48.3164   10.2404  -23.8012 O.3     1  UNL1       -0.4739
      7 C          48.4839   11.5816  -24.1585 C.ar    1  UNL1        0.1366
      8 C          47.9327   11.9929  -25.3724 C.ar    1  UNL1        0.0367
      9 C          48.0687   13.3057  -25.8061 C.ar    1  UNL1        0.0035
     10 C          48.7471   14.2447  -25.0235 C.ar    1  UNL1        0.0054
     11 C          49.2729   13.8635  -23.7680 C.ar    1  UNL1        0.0306
     12 I          50.1300   15.3611  -22.4933 I       1  UNL1       -0.0427
     13 C          49.1615   12.5171  -23.3280 C.ar    1  UNL1        0.0371
     14 C          49.6701   12.1632  -21.9340 C.3     1  UNL1        0.1240
     15 C          48.8797   15.6224  -25.5386 C.ar    1  UNL1        0.0019
     16 C          49.9700   15.9632  -26.3817 C.ar    1  UNL1        0.0017
     17 C          50.1194   17.2771  -26.8644 C.ar    1  UNL1        0.0206
     18 C          49.1714   18.2203  -26.4786 C.ar    1  UNL1        0.0985
     19 N          49.1198   19.5217  -26.8147 N.ar    1  UNL1       -0.2241
     20 C          48.0088   19.9580  -26.1640 C.ar    1  UNL1        0.1750
     21 N          47.3847   18.9902  -25.4504 N.ar    1  UNL1       -0.3349
     22 C          48.1314   17.9001  -25.6606 C.ar    1  UNL1        0.0757
     23 C          47.9467   16.6142  -25.1603 C.ar    1  UNL1        0.0186
     24 H          46.5203   19.0779  -24.8711 H       1  UNL1        0.1675
     25 C          51.5313   12.4880  -16.8340 C.3     1  UNL1        0.0324
     26 C          50.2276   11.9859  -17.3986 C.ar    1  UNL1       -0.0046
     27 C          50.2375   11.3245  -18.6397 C.ar    1  UNL1        0.0015
     28 C          49.0515   10.8365  -19.2074 C.ar    1  UNL1        0.0534
     29 C          47.8391   11.0445  -18.5370 C.ar    1  UNL1        0.0058
     30 C          47.8128   11.7082  -17.3106 C.ar    1  UNL1        0.0182
     31 C          48.9959   12.1901  -16.7279 C.ar    1  UNL1        0.1018
     32 S          48.9184   13.0319  -15.1665 S.O2    1  UNL1        0.0101
     33 C          48.5491   11.9319  -13.8135 C.3     1  UNL1        0.1816
     34 O          47.8397   14.0771  -15.2126 O.2     1  UNL1       -0.1686
     35 O          50.2414   13.6888  -14.8903 O.2     1  UNL1       -0.1686
@<TRIPOS>BOND
     1    25    26    1
     2    26    27   ar
     3    27    28   ar
     4    28     1    1
     5     1     2    2
     6     1     3   am
     7     3     4    1
     8     4     5    1
     9     5     6    1
    10     6     7    1
    11     7     8   ar
    12     8     9   ar
    13     9    10   ar
    14    10    15    1
    15    15    16   ar
    16    16    17   ar
    17    17    18   ar
    18    18    19   ar
    19    19    20   ar
    20    20    21   ar
    21    21    22   ar
    22    22    23   ar
    23    10    11   ar
    24    11    12    1
    25    11    13   ar
    26    13    14    1
    27    28    29   ar
    28    29    30   ar
    29    30    31   ar
    30    31    32    1
    31    32    33    1
    32    32    34    2
    33    32    35    2
    34    31    26   ar
    35    14     3    1
    36    13     7   ar
    37    23    15   ar
    38    22    18   ar
    39    21    24    1
@<TRIPOS>MOLECULE
*****
 35 39 0 0 0
SMALL
GASTEIGER

@<TRIPOS>ATOM
      1 C          46.5582   12.1332  -28.0335 C.2     1  UNL1        0.2494
      2 O          45.3279   12.2549  -28.2843 O.2     1  UNL1       -0.2699
      3 N          47.2179   13.1328  -27.2296 N.am    1  UNL1       -0.2680
      4 C          46.7984   14.5312  -27.3196 C.3     1  UNL1        0.1412
      5 C          45.6176   14.7727  -26.3838 C.3     1  UNL1        0.2268
      6 O          45.6332   13.8613  -25.2868 O.3     1  UNL1       -0.4739
      7 C          46.7198   13.7388  -24.4155 C.ar    1  UNL1        0.1366
      8 C          46.5070   14.0739  -23.0780 C.ar    1  UNL1        0.0367
      9 C          47.5398   13.9938  -22.1523 C.ar    1  UNL1        0.0035
     10 C          48.8096   13.5580  -22.5422 C.ar    1  UNL1        0.0054
     11 C          49.0372   13.1675  -23.8816 C.ar    1  UNL1        0.0306
     12 I          50.9303   12.3110  -24.4153 I       1  UNL1       -0.0427
     13 C          47.9942   13.2709  -24.8408 C.ar    1  UNL1        0.0371
     14 C          48.2552   12.7649  -26.2561 C.3     1  UNL1        0.1240
     15 C          49.8777   13.5085  -21.5234 C.ar    1  UNL1        0.0019
     16 C          51.0269   14.3310  -21.6591 C.ar    1  UNL1        0.0017
     17 C          52.0613   14.2802  -20.7058 C.ar    1  UNL1        0.0206
     18 C          51.9183   13.3943  -19.6418 C.ar    1  UNL1        0.0985
     19 N          52.7749   13.1802  -18.6271 N.ar    1  UNL1       -0.2241
     20 C          52.1437   12.2242  -17.8954 C.ar    1  UNL1        0.1750
     21 N          50.9500   11.8466  -18.4133 N.ar    1  UNL1       -0.3349
     22 C          50.8235   12.5954  -19.5148 C.ar    1  UNL1        0.0757
     23 C          49.7785   12.6131  -20.4345 C.ar    1  UNL1        0.0186
     24 H          50.2847   11.1352  -18.0371 H       1  UNL1        0.1675
     25 C          50.3650    8.8991  -27.7070 C.3     1  UNL1        0.0324
     26 C          49.1440    9.3814  -28.4465 C.ar    1  UNL1       -0.0046
     27 C          48.4343   10.4829  -27.9357 C.ar    1  UNL1        0.0015
     28 C          47.2927   10.9717  -28.5875 C.ar    1  UNL1        0.0534
     29 C          46.8406   10.3265  -29.7459 C.ar    1  UNL1        0.0058
     30 C          47.5281    9.2264  -30.2579 C.ar    1  UNL1        0.0182
     31 C          48.6789    8.7365  -29.6198 C.ar    1  UNL1        0.1018
     32 S          49.5233    7.3319  -30.3030 S.O2    1  UNL1        0.0101
     33 C          51.0479    7.7770  -31.1120 C.3     1  UNL1        0.1816
     34 O          48.6438    6.6641  -31.3221 O.2     1  UNL1       -0.1686
     35 O          49.8420    6.3602  -29.2019 O.2     1  UNL1       -0.1686
@<TRIPOS>BOND
     1    25    26    1
     2    26    27   ar
     3    27    28   ar
     4    28     1    1
     5     1     2    2
     6     1     3   am
     7     3     4    1
     8     4     5    1
     9     5     6    1
    10     6     7    1
    11     7     8   ar
    12     8     9   ar
    13     9    10   ar
    14    10    15    1
    15    15    16   ar
    16    16    17   ar
    17    17    18   ar
    18    18    19   ar
    19    19    20   ar
    20    20    21   ar
    21    21    22   ar
    22    22    23   ar
    23    10    11   ar
    24    11    12    1
    25    11    13   ar
    26    13    14    1
    27    28    29   ar
    28    29    30   ar
    29    30    31   ar
    30    31    32    1
    31    32    33    1
    32    32    34    2
    33    32    35    2
    34    31    26   ar
    35    14     3    1
    36    13     7   ar
    37    23    15   ar
    38    22    18   ar
    39    21    24    1
@<TRIPOS>MOLECULE
*****
 35 39 0 0 0
SMALL
GASTEIGER

@<TRIPOS>ATOM
      1 C          48.2452   10.8629  -18.7348 C.2     1  UNL1        0.2494
      2 O          47.1580   10.3120  -18.4097 O.2     1  UNL1       -0.2699
      3 N          48.6361   10.8906  -20.1230 N.am    1  UNL1       -0.2680
      4 C          48.2895    9.7711  -20.9984 C.3     1  UNL1        0.1412
      5 C          46.8790    9.9673  -21.5463 C.3     1  UNL1        0.2268
      6 O          46.5344   11.3502  -21.6022 O.3     1  UNL1       -0.4739
      7 C          47.2905   12.2945  -22.3031 C.ar    1  UNL1        0.1366
      8 C          46.6744   12.9352  -23.3785 C.ar    1  UNL1        0.0367
      9 C          47.3632   13.8751  -24.1350 C.ar    1  UNL1        0.0035
     10 C          48.6837   14.2092  -23.8204 C.ar    1  UNL1        0.0054
     11 C          49.3135   13.6086  -22.7064 C.ar    1  UNL1        0.0306
     12 I          51.2637   14.2809  -22.1176 I       1  UNL1       -0.0427
     13 C          48.6259   12.6272  -21.9429 C.ar    1  UNL1        0.0371
     14 C          49.3092   12.0613  -20.7019 C.3     1  UNL1        0.1240
     15 C          49.3772   15.2007  -24.6672 C.ar    1  UNL1        0.0019
     16 C          49.2811   15.1176  -26.0812 C.ar    1  UNL1        0.0017
     17 C          49.9524   16.0444  -26.9010 C.ar    1  UNL1        0.0206
     18 C          50.7134   17.0286  -26.2769 C.ar    1  UNL1        0.0985
     19 N          51.4334   18.0053  -26.8574 N.ar    1  UNL1       -0.2241
     20 C          51.9668   18.6610  -25.7929 C.ar    1  UNL1        0.1750
     21 N          51.6091   18.1330  -24.5975 N.ar    1  UNL1       -0.3349
     22 C          50.8177   17.1041  -24.9217 C.ar    1  UNL1        0.0757
     23 C          50.1716   16.2081  -24.0745 C.ar    1  UNL1        0.0186
     24 H          51.8883   18.4568  -23.6449 H       1  UNL1        0.1675
     25 C          48.8294   12.2419  -13.9583 C.3     1  UNL1        0.0324
     26 C          49.4038   12.1316  -15.3470 C.ar    1  UNL1       -0.0046
     27 C          48.6097   11.5753  -16.3657 C.ar    1  UNL1        0.0015
     28 C          49.0968   11.4522  -17.6751 C.ar    1  UNL1        0.0534
     29 C          50.4067   11.8617  -17.9563 C.ar    1  UNL1        0.0058
     30 C          51.2093   12.4053  -16.9535 C.ar    1  UNL1        0.0182
     31 C          50.7273   12.5440  -15.6421 C.ar    1  UNL1        0.1018
     32 S          51.7824   13.2386  -14.3944 S.O2    1  UNL1        0.0101
     33 C          52.5705   11.9923  -13.3932 C.3     1  UNL1        0.1816
     34 O          50.9709   14.1127  -13.4803 O.2     1  UNL1       -0.1686
     35 O          52.8549   14.0603  -15.0521 O.2     1  UNL1       -0.1686
@<TRIPOS>BOND
     1    25    26    1
     2    26    27   ar
     3    27    28   ar
     4    28     1    1
     5     1     2    2
     6     1     3   am
     7     3     4    1
     8     4     5    1
     9     5     6    1
    10     6     7    1
    11     7     8   ar
    12     8     9   ar
    13     9    10   ar
    14    10    15    1
    15    15    16   ar
    16    16    17   ar
    17    17    18   ar
    18    18    19   ar
    19    19    20   ar
    20    20    21   ar
    21    21    22   ar
    22    22    23   ar
    23    10    11   ar
    24    11    12    1
    25    11    13   ar
    26    13    14    1
    27    28    29   ar
    28    29    30   ar
    29    30    31   ar
    30    31    32    1
    31    32    33    1
    32    32    34    2
    33    32    35    2
    34    31    26   ar
    35    14     3    1
    36    13     7   ar
    37    23    15   ar
    38    22    18   ar
    39    21    24    1
