@<TRIPOS>MOLECULE
*****
 43 47 0 0 0
SMALL
GASTEIGER

@<TRIPOS>ATOM
      1 C          -7.5680  -16.6782   23.0933 C.ar    1  UNL1        0.0888
      2 C          -7.0392  -17.0203   21.8174 C.ar    1  UNL1        0.0282
      3 C          -5.6512  -16.9536   21.6315 C.ar    1  UNL1        0.0997
      4 N          -4.9535  -17.2254   20.5141 N.ar    1  UNL1       -0.2137
      5 C          -3.6701  -16.9923   20.9009 C.ar    1  UNL1        0.1984
      6 N          -3.5457  -16.5783   22.1888 N.ar    1  UNL1       -0.3255
      7 C          -4.8074  -16.5671   22.6315 C.ar    1  UNL1        0.0755
      8 C          -5.3001  -16.2163   23.8795 C.ar    1  UNL1        0.0325
      9 C          -6.6548  -16.2639   24.0990 C.ar    1  UNL1        0.1401
     10 O          -6.9498  -15.8467   25.3810 O.3     1  UNL1       -0.4824
     11 C          -5.7557  -15.5339   26.1061 C.3     1  UNL1        0.1375
     12 C          -5.6341  -16.4870   27.3028 C.3     1  UNL1        0.0439
     13 C          -5.8196  -14.0789   26.5868 C.3     1  UNL1        0.0439
     14 C          -4.5839  -15.7467   25.0911 C.3     1  UNL1        0.0709
     15 H          -2.6826  -16.3053   22.7090 H       1  UNL1        0.1686
     16 N          -9.7904  -17.9008   22.9607 N.am    1  UNL1       -0.2808
     17 C          -9.0274  -16.7442   23.3355 C.2     1  UNL1        0.2525
     18 O          -9.6138  -15.7534   23.8523 O.2     1  UNL1       -0.2697
     19 H          -9.4226  -18.5214   22.2060 H       1  UNL1        0.1552
     20 C         -12.1934  -17.4433   22.5777 C.ar    1  UNL1        0.0204
     21 C         -13.5305  -17.5835   22.9848 C.ar    1  UNL1        0.0032
     22 C         -13.8642  -18.3318   24.1233 C.ar    1  UNL1        0.0710
     23 C         -12.8384  -18.8993   24.8925 C.ar    1  UNL1        0.0008
     24 C         -11.4963  -18.7786   24.5030 C.ar    1  UNL1       -0.0087
     25 C         -10.4192  -19.4028   25.3490 C.3     1  UNL1        0.0323
     26 C         -11.1680  -18.0537   23.3377 C.ar    1  UNL1        0.0448
     27 C         -15.3002  -18.4300   24.5763 C.3     1  UNL1        0.4186
     28 F         -15.3389  -18.9524   25.8555 F       1  UNL1       -0.1659
     29 F         -15.8982  -17.1816   24.5807 F       1  UNL1       -0.1659
     30 F         -16.0254  -19.2522   23.7312 F       1  UNL1       -0.1659
     31 C         -11.8730  -16.5846   21.3787 C.3     1  UNL1        0.1699
     32 C         -11.0354  -17.8890   19.6753 C.3     1  UNL1        0.1746
     33 O         -12.1994  -17.2924   20.2013 O.3     1  UNL1       -0.3463
     34 N          -2.5641  -17.1229   19.9986 N.pl3   1  UNL1       -0.2816
     35 H          -2.5885  -16.5705   19.1122 H       1  UNL1        0.1551
     36 C          -1.3919  -17.8962   20.2977 C.ar    1  UNL1        0.0889
     37 C          -0.1099  -17.3244   20.1854 C.ar    1  UNL1        0.1543
     38 F           0.0386  -16.0298   19.8070 F       1  UNL1       -0.2028
     39 C           1.0260  -18.0772   20.4979 C.ar    1  UNL1        0.0310
     40 C           0.8948  -19.3964   20.9355 C.ar    1  UNL1        0.0033
     41 C          -0.3734  -19.9658   21.0697 C.ar    1  UNL1        0.0128
     42 C          -1.5174  -19.2208   20.7600 C.ar    1  UNL1        0.0733
     43 CL         -3.0949  -19.9806   20.9250 Cl      1  UNL1       -0.0809
@<TRIPOS>BOND
     1    32    33    1
     2    33    31    1
     3    31    20    1
     4    20    21   ar
     5    21    22   ar
     6    22    27    1
     7    27    28    1
     8    27    29    1
     9    27    30    1
    10    22    23   ar
    11    23    24   ar
    12    24    25    1
    13    24    26   ar
    14    26    16    1
    15    16    17   am
    16    17    18    2
    17    17     1    1
    18     1     2   ar
    19     2     3   ar
    20     3     4   ar
    21     4     5   ar
    22     5    34    1
    23    34    36    1
    24    36    37   ar
    25    37    38    1
    26    37    39   ar
    27    39    40   ar
    28    40    41   ar
    29    41    42   ar
    30    42    43    1
    31     5     6   ar
    32     6     7   ar
    33     7     8   ar
    34     8     9   ar
    35     9    10    1
    36    10    11    1
    37    11    12    1
    38    11    13    1
    39    11    14    1
    40    26    20   ar
    41     9     1   ar
    42     7     3   ar
    43    14     8    1
    44    42    36   ar
    45    16    19    1
    46    34    35    1
    47     6    15    1
@<TRIPOS>MOLECULE
*****
 43 47 0 0 0
SMALL
GASTEIGER

@<TRIPOS>ATOM
      1 C          -6.4693  -18.9646   22.1255 C.ar    1  UNL1        0.0888
      2 C          -5.7565  -20.0546   21.5523 C.ar    1  UNL1        0.0282
      3 C          -4.3667  -19.9393   21.4068 C.ar    1  UNL1        0.0997
      4 N          -3.5130  -20.8403   20.8886 N.ar    1  UNL1       -0.2137
      5 C          -2.3132  -20.2074   20.9933 C.ar    1  UNL1        0.1984
      6 N          -2.3881  -18.9629   21.5330 N.ar    1  UNL1       -0.3255
      7 C          -3.6919  -18.8178   21.7916 C.ar    1  UNL1        0.0755
      8 C          -4.3663  -17.7374   22.3406 C.ar    1  UNL1        0.0325
      9 C          -5.7289  -17.8102   22.4945 C.ar    1  UNL1        0.1401
     10 O          -6.2178  -16.6313   23.0197 O.3     1  UNL1       -0.4824
     11 C          -5.1557  -15.7089   23.2857 C.3     1  UNL1        0.1375
     12 C          -5.1058  -15.4263   24.7933 C.3     1  UNL1        0.0439
     13 C          -5.4032  -14.4109   22.5070 C.3     1  UNL1        0.0439
     14 C          -3.8513  -16.4238   22.7998 C.3     1  UNL1        0.0709
     15 H          -1.6239  -18.2684   21.6875 H       1  UNL1        0.1686
     16 N          -8.5777  -18.4683   23.4519 N.am    1  UNL1       -0.2808
     17 C          -7.9367  -19.0484   22.3061 C.2     1  UNL1        0.2525
     18 O          -8.6303  -19.6673   21.4527 O.2     1  UNL1       -0.2697
     19 H          -8.0167  -18.3223   24.3202 H       1  UNL1        0.1552
     20 C         -10.7225  -17.3495   22.9238 C.ar    1  UNL1        0.0204
     21 C         -12.1177  -17.2798   23.0708 C.ar    1  UNL1        0.0032
     22 C         -12.8132  -18.2355   23.8261 C.ar    1  UNL1        0.0710
     23 C         -12.0923  -19.2404   24.4866 C.ar    1  UNL1        0.0008
     24 C         -10.6995  -19.3348   24.3500 C.ar    1  UNL1       -0.0087
     25 C          -9.9557  -20.4279   25.0694 C.3     1  UNL1        0.0323
     26 C         -10.0079  -18.3912   23.5610 C.ar    1  UNL1        0.0448
     27 C         -14.3053  -18.1170   24.0166 C.3     1  UNL1        0.4186
     28 F         -14.6458  -16.7814   24.1217 F       1  UNL1       -0.1659
     29 F         -14.9811  -18.6716   22.9433 F       1  UNL1       -0.1659
     30 F         -14.7064  -18.7765   25.1657 F       1  UNL1       -0.1659
     31 C         -10.0070  -16.2705   22.1483 C.3     1  UNL1        0.1699
     32 C         -11.0387  -16.2040   20.0903 C.3     1  UNL1        0.1746
     33 O         -10.9418  -15.5769   21.3491 O.3     1  UNL1       -0.3463
     34 N          -1.0950  -20.7949   20.5186 N.pl3   1  UNL1       -0.2816
     35 H          -1.1651  -21.6419   19.9111 H       1  UNL1        0.1551
     36 C           0.1999  -20.2230   20.7585 C.ar    1  UNL1        0.0889
     37 C           0.4377  -18.8586   20.5029 C.ar    1  UNL1        0.1543
     38 F          -0.5559  -18.0589   20.0398 F       1  UNL1       -0.2028
     39 C           1.6954  -18.3040   20.7580 C.ar    1  UNL1        0.0310
     40 C           2.7191  -19.0969   21.2800 C.ar    1  UNL1        0.0033
     41 C           2.4870  -20.4461   21.5560 C.ar    1  UNL1        0.0128
     42 C           1.2312  -21.0115   21.3048 C.ar    1  UNL1        0.0733
     43 CL          0.9852  -22.7186   21.6492 Cl      1  UNL1       -0.0809
@<TRIPOS>BOND
     1    32    33    1
     2    33    31    1
     3    31    20    1
     4    20    21   ar
     5    21    22   ar
     6    22    27    1
     7    27    28    1
     8    27    29    1
     9    27    30    1
    10    22    23   ar
    11    23    24   ar
    12    24    25    1
    13    24    26   ar
    14    26    16    1
    15    16    17   am
    16    17    18    2
    17    17     1    1
    18     1     2   ar
    19     2     3   ar
    20     3     4   ar
    21     4     5   ar
    22     5    34    1
    23    34    36    1
    24    36    37   ar
    25    37    38    1
    26    37    39   ar
    27    39    40   ar
    28    40    41   ar
    29    41    42   ar
    30    42    43    1
    31     5     6   ar
    32     6     7   ar
    33     7     8   ar
    34     8     9   ar
    35     9    10    1
    36    10    11    1
    37    11    12    1
    38    11    13    1
    39    11    14    1
    40    26    20   ar
    41     9     1   ar
    42     7     3   ar
    43    14     8    1
    44    42    36   ar
    45    16    19    1
    46    34    35    1
    47     6    15    1
@<TRIPOS>MOLECULE
*****
 43 47 0 0 0
SMALL
GASTEIGER

@<TRIPOS>ATOM
      1 C          -6.0914  -16.1077   25.1780 C.ar    1  UNL1        0.0888
      2 C          -5.9302  -15.4339   26.4208 C.ar    1  UNL1        0.0282
      3 C          -7.0761  -14.9632   27.0775 C.ar    1  UNL1        0.0997
      4 N          -7.1450  -14.3014   28.2464 N.ar    1  UNL1       -0.2137
      5 C          -8.4817  -14.0947   28.3926 C.ar    1  UNL1        0.1984
      6 N          -9.2329  -14.5803   27.3702 N.ar    1  UNL1       -0.3255
      7 C          -8.3256  -15.1290   26.5555 C.ar    1  UNL1        0.0755
      8 C          -8.5071  -15.7707   25.3395 C.ar    1  UNL1        0.0325
      9 C          -7.4084  -16.2413   24.6634 C.ar    1  UNL1        0.1401
     10 O          -7.7882  -16.8123   23.4657 O.3     1  UNL1       -0.4824
     11 C          -9.2111  -16.7813   23.3111 C.3     1  UNL1        0.1375
     12 C          -9.7377  -18.2213   23.2457 C.3     1  UNL1        0.0439
     13 C          -9.5661  -16.0240   22.0255 C.3     1  UNL1        0.0439
     14 C          -9.7519  -16.0374   24.5772 C.3     1  UNL1        0.0709
     15 H         -10.2659  -14.5208   27.2299 H       1  UNL1        0.1686
     16 N          -4.9385  -16.8381   23.0359 N.am    1  UNL1       -0.2808
     17 C          -4.9085  -16.6291   24.4557 C.2     1  UNL1        0.2525
     18 O          -3.8675  -16.9231   25.1055 O.2     1  UNL1       -0.2697
     19 H          -5.8612  -16.9842   22.5698 H       1  UNL1        0.1552
     20 C          -3.4502  -18.5327   22.0142 C.ar    1  UNL1        0.0204
     21 C          -2.2721  -18.8425   21.3148 C.ar    1  UNL1        0.0032
     22 C          -1.4037  -17.8309   20.8788 C.ar    1  UNL1        0.0710
     23 C          -1.6945  -16.4968   21.1977 C.ar    1  UNL1        0.0008
     24 C          -2.8678  -16.1618   21.8895 C.ar    1  UNL1       -0.0087
     25 C          -3.1524  -14.7196   22.2131 C.3     1  UNL1        0.0323
     26 C          -3.7558  -17.1804   22.2961 C.ar    1  UNL1        0.0448
     27 C          -0.1169  -18.1831   20.1740 C.3     1  UNL1        0.4186
     28 F          -0.3384  -19.2575   19.3329 F       1  UNL1       -0.1659
     29 F           0.3404  -17.1118   19.4262 F       1  UNL1       -0.1659
     30 F           0.8659  -18.5212   21.0883 F       1  UNL1       -0.1659
     31 C          -4.3290  -19.6537   22.5130 C.3     1  UNL1        0.1699
     32 C          -6.1247  -19.9397   21.0995 C.3     1  UNL1        0.1746
     33 O          -5.6816  -19.3187   22.2850 O.3     1  UNL1       -0.3463
     34 N          -9.0267  -13.3761   29.5066 N.pl3   1  UNL1       -0.2816
     35 H          -9.3056  -13.9230   30.3519 H       1  UNL1        0.1551
     36 C          -9.1174  -11.9439   29.5506 C.ar    1  UNL1        0.0889
     37 C         -10.3690  -11.3035   29.4687 C.ar    1  UNL1        0.1543
     38 F         -11.5106  -12.0290   29.3615 F       1  UNL1       -0.2028
     39 C         -10.4513   -9.9093   29.5326 C.ar    1  UNL1        0.0310
     40 C          -9.2941   -9.1447   29.6911 C.ar    1  UNL1        0.0033
     41 C          -8.0503   -9.7716   29.7938 C.ar    1  UNL1        0.0128
     42 C          -7.9565  -11.1670   29.7316 C.ar    1  UNL1        0.0733
     43 CL         -6.3697  -11.9165   29.8467 Cl      1  UNL1       -0.0809
@<TRIPOS>BOND
     1    32    33    1
     2    33    31    1
     3    31    20    1
     4    20    21   ar
     5    21    22   ar
     6    22    27    1
     7    27    28    1
     8    27    29    1
     9    27    30    1
    10    22    23   ar
    11    23    24   ar
    12    24    25    1
    13    24    26   ar
    14    26    16    1
    15    16    17   am
    16    17    18    2
    17    17     1    1
    18     1     2   ar
    19     2     3   ar
    20     3     4   ar
    21     4     5   ar
    22     5    34    1
    23    34    36    1
    24    36    37   ar
    25    37    38    1
    26    37    39   ar
    27    39    40   ar
    28    40    41   ar
    29    41    42   ar
    30    42    43    1
    31     5     6   ar
    32     6     7   ar
    33     7     8   ar
    34     8     9   ar
    35     9    10    1
    36    10    11    1
    37    11    12    1
    38    11    13    1
    39    11    14    1
    40    26    20   ar
    41     9     1   ar
    42     7     3   ar
    43    14     8    1
    44    42    36   ar
    45    16    19    1
    46    34    35    1
    47     6    15    1
@<TRIPOS>MOLECULE
*****
 43 47 0 0 0
SMALL
GASTEIGER

@<TRIPOS>ATOM
      1 C          -6.1944  -16.0100   25.3375 C.ar    1  UNL1        0.0888
      2 C          -6.0558  -15.3047   26.5655 C.ar    1  UNL1        0.0282
      3 C          -7.2166  -14.8561   27.2113 C.ar    1  UNL1        0.0997
      4 N          -7.3076  -14.1717   28.3656 N.ar    1  UNL1       -0.2137
      5 C          -8.6503  -14.0039   28.5066 C.ar    1  UNL1        0.1984
      6 N          -9.3848  -14.5348   27.4946 N.ar    1  UNL1       -0.3255
      7 C          -8.4598  -15.0723   26.6924 C.ar    1  UNL1        0.0755
      8 C          -8.6196  -15.7456   25.4905 C.ar    1  UNL1        0.0325
      9 C          -7.5060  -16.1960   24.8253 C.ar    1  UNL1        0.1401
     10 O          -7.8663  -16.8044   23.6401 O.3     1  UNL1       -0.4824
     11 C          -9.2893  -16.8215   23.4843 C.3     1  UNL1        0.1375
     12 C          -9.7703  -18.2784   23.4498 C.3     1  UNL1        0.0439
     13 C          -9.6664  -16.1037   22.1824 C.3     1  UNL1        0.0439
     14 C          -9.8545  -16.0676   24.7336 C.3     1  UNL1        0.0709
     15 H         -10.4189  -14.5108   27.3526 H       1  UNL1        0.1686
     16 N          -5.0422  -16.8374   23.2306 N.am    1  UNL1       -0.2808
     17 C          -4.9949  -16.5095   24.6272 C.2     1  UNL1        0.2525
     18 O          -3.9218  -16.6784   25.2694 O.2     1  UNL1       -0.2697
     19 H          -5.9629  -17.0830   22.8039 H       1  UNL1        0.1552
     20 C          -3.0449  -16.1350   21.9468 C.ar    1  UNL1        0.0204
     21 C          -1.9061  -16.4782   21.1996 C.ar    1  UNL1        0.0032
     22 C          -1.5531  -17.8204   20.9961 C.ar    1  UNL1        0.0710
     23 C          -2.3845  -18.8296   21.5023 C.ar    1  UNL1        0.0008
     24 C          -3.5235  -18.5121   22.2570 C.ar    1  UNL1       -0.0087
     25 C          -4.3931  -19.6193   22.7894 C.3     1  UNL1        0.0323
     26 C          -3.8557  -17.1603   22.4883 C.ar    1  UNL1        0.0448
     27 C          -0.3559  -18.1730   20.1480 C.3     1  UNL1        0.4186
     28 F           0.7069  -18.4926   20.9720 F       1  UNL1       -0.1659
     29 F          -0.6359  -19.2560   19.3326 F       1  UNL1       -0.1659
     30 F           0.0037  -17.1075   19.3409 F       1  UNL1       -0.1659
     31 C          -3.4194  -14.6807   22.0958 C.3     1  UNL1        0.1699
     32 C          -5.1978  -14.9108   20.6505 C.3     1  UNL1        0.1746
     33 O          -4.8183  -14.5460   21.9582 O.3     1  UNL1       -0.3463
     34 N          -9.2189  -13.2788   29.6045 N.pl3   1  UNL1       -0.2816
     35 H          -9.5254  -13.8219   30.4426 H       1  UNL1        0.1551
     36 C          -9.2979  -11.8457   29.6442 C.ar    1  UNL1        0.0889
     37 C         -10.5443  -11.1955   29.5600 C.ar    1  UNL1        0.1543
     38 F         -11.6917  -11.9119   29.4547 F       1  UNL1       -0.2028
     39 C         -10.6153   -9.8005   29.6198 C.ar    1  UNL1        0.0310
     40 C          -9.4520   -9.0448   29.7763 C.ar    1  UNL1        0.0033
     41 C          -8.2133   -9.6814   29.8812 C.ar    1  UNL1        0.0128
     42 C          -8.1309  -11.0777   29.8232 C.ar    1  UNL1        0.0733
     43 CL         -6.5502  -11.8398   29.9410 Cl      1  UNL1       -0.0809
@<TRIPOS>BOND
     1    32    33    1
     2    33    31    1
     3    31    20    1
     4    20    21   ar
     5    21    22   ar
     6    22    27    1
     7    27    28    1
     8    27    29    1
     9    27    30    1
    10    22    23   ar
    11    23    24   ar
    12    24    25    1
    13    24    26   ar
    14    26    16    1
    15    16    17   am
    16    17    18    2
    17    17     1    1
    18     1     2   ar
    19     2     3   ar
    20     3     4   ar
    21     4     5   ar
    22     5    34    1
    23    34    36    1
    24    36    37   ar
    25    37    38    1
    26    37    39   ar
    27    39    40   ar
    28    40    41   ar
    29    41    42   ar
    30    42    43    1
    31     5     6   ar
    32     6     7   ar
    33     7     8   ar
    34     8     9   ar
    35     9    10    1
    36    10    11    1
    37    11    12    1
    38    11    13    1
    39    11    14    1
    40    26    20   ar
    41     9     1   ar
    42     7     3   ar
    43    14     8    1
    44    42    36   ar
    45    16    19    1
    46    34    35    1
    47     6    15    1
@<TRIPOS>MOLECULE
*****
 43 47 0 0 0
SMALL
GASTEIGER

@<TRIPOS>ATOM
      1 C          -7.2377  -13.3051   28.2454 C.ar    1  UNL1        0.0888
      2 C          -8.5181  -13.8361   28.5670 C.ar    1  UNL1        0.0282
      3 C          -9.2812  -13.1878   29.5484 C.ar    1  UNL1        0.0997
      4 N         -10.5015  -13.5252   30.0024 N.ar    1  UNL1       -0.2137
      5 C         -10.7477  -12.5655   30.9347 C.ar    1  UNL1        0.1984
      6 N          -9.7389  -11.6684   31.0867 N.ar    1  UNL1       -0.3255
      7 C          -8.8273  -12.0772   30.1980 C.ar    1  UNL1        0.0755
      8 C          -7.5775  -11.5488   29.9112 C.ar    1  UNL1        0.0325
      9 C          -6.7980  -12.1589   28.9594 C.ar    1  UNL1        0.1401
     10 O          -5.5847  -11.5115   28.8436 O.3     1  UNL1       -0.4824
     11 C          -5.5230  -10.3777   29.7154 C.3     1  UNL1        0.1375
     12 C          -5.3754   -9.1054   28.8700 C.3     1  UNL1        0.0439
     13 C          -4.3272  -10.5303   30.6636 C.3     1  UNL1        0.0439
     14 C          -6.8762  -10.3819   30.5012 C.3     1  UNL1        0.0709
     15 H          -9.6692  -10.8669   31.7523 H       1  UNL1        0.1686
     16 N          -6.8172  -15.1750   26.5788 N.am    1  UNL1       -0.2808
     17 C          -6.4030  -13.9533   27.2082 C.2     1  UNL1        0.2525
     18 O          -5.2943  -13.4378   26.8956 O.2     1  UNL1       -0.2697
     19 H          -7.4864  -15.7975   27.0835 H       1  UNL1        0.1552
     20 C          -6.5447  -15.4721   24.1358 C.ar    1  UNL1        0.0204
     21 C          -5.8521  -16.0480   23.0580 C.ar    1  UNL1        0.0032
     22 C          -4.7272  -16.8580   23.2723 C.ar    1  UNL1        0.0710
     23 C          -4.3271  -17.1373   24.5868 C.ar    1  UNL1        0.0008
     24 C          -4.9986  -16.5689   25.6793 C.ar    1  UNL1       -0.0087
     25 C          -4.5415  -16.8860   27.0779 C.3     1  UNL1        0.0323
     26 C          -6.1090  -15.7268   25.4575 C.ar    1  UNL1        0.0448
     27 C          -4.0253  -17.5107   22.1069 C.3     1  UNL1        0.4186
     28 F          -3.9311  -18.8706   22.3364 F       1  UNL1       -0.1659
     29 F          -4.7268  -17.2990   20.9325 F       1  UNL1       -0.1659
     30 F          -2.7522  -16.9909   21.9481 F       1  UNL1       -0.1659
     31 C          -7.7822  -14.6519   23.8645 C.3     1  UNL1        0.1699
     32 C          -9.4973  -16.1754   24.0685 C.3     1  UNL1        0.1746
     33 O          -8.8296  -15.1044   24.6963 O.3     1  UNL1       -0.3463
     34 N         -11.9479  -12.5508   31.7182 N.pl3   1  UNL1       -0.2816
     35 H         -12.6996  -11.8775   31.4482 H       1  UNL1        0.1551
     36 C         -12.2009  -13.4753   32.7871 C.ar    1  UNL1        0.0889
     37 C         -13.2517  -14.4081   32.6923 C.ar    1  UNL1        0.1543
     38 F         -14.0330  -14.4586   31.5840 F       1  UNL1       -0.2028
     39 C         -13.4795  -15.3189   33.7283 C.ar    1  UNL1        0.0310
     40 C         -12.6581  -15.3172   34.8571 C.ar    1  UNL1        0.0033
     41 C         -11.6008  -14.4097   34.9513 C.ar    1  UNL1        0.0128
     42 C         -11.3635  -13.4937   33.9195 C.ar    1  UNL1        0.0733
     43 CL        -10.0330  -12.3555   34.0849 Cl      1  UNL1       -0.0809
@<TRIPOS>BOND
     1    32    33    1
     2    33    31    1
     3    31    20    1
     4    20    21   ar
     5    21    22   ar
     6    22    27    1
     7    27    28    1
     8    27    29    1
     9    27    30    1
    10    22    23   ar
    11    23    24   ar
    12    24    25    1
    13    24    26   ar
    14    26    16    1
    15    16    17   am
    16    17    18    2
    17    17     1    1
    18     1     2   ar
    19     2     3   ar
    20     3     4   ar
    21     4     5   ar
    22     5    34    1
    23    34    36    1
    24    36    37   ar
    25    37    38    1
    26    37    39   ar
    27    39    40   ar
    28    40    41   ar
    29    41    42   ar
    30    42    43    1
    31     5     6   ar
    32     6     7   ar
    33     7     8   ar
    34     8     9   ar
    35     9    10    1
    36    10    11    1
    37    11    12    1
    38    11    13    1
    39    11    14    1
    40    26    20   ar
    41     9     1   ar
    42     7     3   ar
    43    14     8    1
    44    42    36   ar
    45    16    19    1
    46    34    35    1
    47     6    15    1
@<TRIPOS>MOLECULE
*****
 43 47 0 0 0
SMALL
GASTEIGER

@<TRIPOS>ATOM
      1 C          -7.4809  -16.7316   23.1114 C.ar    1  UNL1        0.0888
      2 C          -6.8915  -17.1332   21.8802 C.ar    1  UNL1        0.0282
      3 C          -5.4941  -17.1032   21.7690 C.ar    1  UNL1        0.0997
      4 N          -4.7431  -17.4322   20.7028 N.ar    1  UNL1       -0.2137
      5 C          -3.4777  -17.2120   21.1512 C.ar    1  UNL1        0.1984
      6 N          -3.4140  -16.7520   22.4279 N.ar    1  UNL1       -0.3255
      7 C          -4.6973  -16.6970   22.7993 C.ar    1  UNL1        0.0755
      8 C          -5.2491  -16.2886   24.0044 C.ar    1  UNL1        0.0325
      9 C          -6.6145  -16.2989   24.1502 C.ar    1  UNL1        0.1401
     10 O          -6.9691  -15.8270   25.3976 O.3     1  UNL1       -0.4824
     11 C          -5.8093  -15.5124   26.1758 C.3     1  UNL1        0.1375
     12 C          -5.7755  -16.4217   27.4116 C.3     1  UNL1        0.0439
     13 C          -5.8652  -14.0391   26.5983 C.3     1  UNL1        0.0439
     14 C          -4.5892  -15.7886   25.2357 C.3     1  UNL1        0.0709
     15 H          -2.5744  -16.4780   22.9848 H       1  UNL1        0.1686
     16 N          -9.7014  -17.9638   23.0669 N.am    1  UNL1       -0.2808
     17 C          -8.9525  -16.7571   23.2746 C.2     1  UNL1        0.2525
     18 O          -9.5602  -15.6917   23.5715 O.2     1  UNL1       -0.2697
     19 H          -9.2950  -18.7078   22.4575 H       1  UNL1        0.1552
     20 C         -11.5256  -18.5886   24.6201 C.ar    1  UNL1        0.0204
     21 C         -12.9000  -18.6898   24.8922 C.ar    1  UNL1        0.0032
     22 C         -13.8545  -18.2513   23.9627 C.ar    1  UNL1        0.0710
     23 C         -13.4241  -17.7570   22.7232 C.ar    1  UNL1        0.0008
     24 C         -12.0572  -17.6401   22.4307 C.ar    1  UNL1       -0.0087
     25 C         -11.6282  -17.1019   21.0921 C.3     1  UNL1        0.0323
     26 C         -11.1000  -18.0506   23.3828 C.ar    1  UNL1        0.0448
     27 C         -15.3271  -18.4143   24.2487 C.3     1  UNL1        0.4186
     28 F         -15.4863  -19.1258   25.4231 F       1  UNL1       -0.1659
     29 F         -15.9390  -17.1799   24.3827 F       1  UNL1       -0.1659
     30 F         -15.9535  -19.0963   23.2197 F       1  UNL1       -0.1659
     31 C         -10.5330  -19.1222   25.6240 C.3     1  UNL1        0.1699
     32 C          -9.8320  -21.1124   24.7009 C.3     1  UNL1        0.1746
     33 O          -9.4813  -19.7677   24.9377 O.3     1  UNL1       -0.3463
     34 N          -2.3274  -17.4004   20.3170 N.pl3   1  UNL1       -0.2816
     35 H          -2.2364  -16.7999   19.4670 H       1  UNL1        0.1551
     36 C          -1.2577  -18.3007   20.6436 C.ar    1  UNL1        0.0889
     37 C          -1.5304  -19.5559   21.2211 C.ar    1  UNL1        0.1543
     38 F          -2.8083  -19.9414   21.4649 F       1  UNL1       -0.2028
     39 C          -0.4851  -20.4357   21.5178 C.ar    1  UNL1        0.0310
     40 C           0.8341  -20.0799   21.2312 C.ar    1  UNL1        0.0033
     41 C           1.1129  -18.8458   20.6398 C.ar    1  UNL1        0.0128
     42 C           0.0737  -17.9575   20.3381 C.ar    1  UNL1        0.0733
     43 CL          0.4686  -16.4058   19.6104 Cl      1  UNL1       -0.0809
@<TRIPOS>BOND
     1    32    33    1
     2    33    31    1
     3    31    20    1
     4    20    21   ar
     5    21    22   ar
     6    22    27    1
     7    27    28    1
     8    27    29    1
     9    27    30    1
    10    22    23   ar
    11    23    24   ar
    12    24    25    1
    13    24    26   ar
    14    26    16    1
    15    16    17   am
    16    17    18    2
    17    17     1    1
    18     1     2   ar
    19     2     3   ar
    20     3     4   ar
    21     4     5   ar
    22     5    34    1
    23    34    36    1
    24    36    37   ar
    25    37    38    1
    26    37    39   ar
    27    39    40   ar
    28    40    41   ar
    29    41    42   ar
    30    42    43    1
    31     5     6   ar
    32     6     7   ar
    33     7     8   ar
    34     8     9   ar
    35     9    10    1
    36    10    11    1
    37    11    12    1
    38    11    13    1
    39    11    14    1
    40    26    20   ar
    41     9     1   ar
    42     7     3   ar
    43    14     8    1
    44    42    36   ar
    45    16    19    1
    46    34    35    1
    47     6    15    1
