@<TRIPOS>MOLECULE
*****
 50 55 0 0 0
SMALL
GASTEIGER

@<TRIPOS>ATOM
      1 O          10.6148   76.4767   25.7487 O.2     1  UNL1       -0.2701
      2 C           9.4135   76.7694   25.9999 C.2     1  UNL1        0.2484
      3 N           9.0615   77.3032   27.2866 N.am    1  UNL1       -0.2945
      4 H           8.0638   77.2334   27.5906 H       1  UNL1        0.1501
      5 C           8.3768   76.5217   24.9714 C.ar    1  UNL1        0.0813
      6 C           8.5312   77.0669   23.6845 C.ar    1  UNL1        0.0147
      7 C           7.5688   76.8439   22.6941 C.ar    1  UNL1        0.0481
      8 BR          7.8255   77.6118   20.9583 Br      1  UNL1       -0.0477
      9 C           6.4313   76.0750   22.9849 C.ar    1  UNL1        0.0565
     10 C           6.2608   75.5470   24.2695 C.ar    1  UNL1        0.0448
     11 C           7.2219   75.7675   25.2601 C.ar    1  UNL1        0.1457
     12 F           6.9947   75.2833   26.5074 F       1  UNL1       -0.2040
     13 N           5.4348   75.8388   21.9838 N.pl3   1  UNL1       -0.3036
     14 C           4.4218   76.8677   21.7282 C.3     1  UNL1        0.1123
     15 C           3.6174   76.5626   20.4591 C.3     1  UNL1        0.1136
     16 N           3.1954   75.1521   20.4327 N.pl3   1  UNL1       -0.2897
     17 C           4.1375   74.0971   20.8502 C.3     1  UNL1        0.1136
     18 C           5.5354   74.6560   21.1281 C.3     1  UNL1        0.1123
     19 C           1.9255   74.7983   19.8372 C.ar    1  UNL1        0.1318
     20 C           1.1721   75.7335   19.1053 C.ar    1  UNL1        0.0343
     21 C          -0.0495   75.3530   18.5477 C.ar    1  UNL1        0.0083
     22 C          -0.5172   74.0394   18.6969 C.ar    1  UNL1        0.0906
     23 C           0.2507   73.1416   19.4531 C.ar    1  UNL1        0.1041
     24 N           1.4360   73.5352   19.9889 N.ar    1  UNL1       -0.2292
     25 C          -1.8579   73.6306   18.1421 C.3     1  UNL1        0.4200
     26 F          -2.0150   74.0995   16.8493 F       1  UNL1       -0.1658
     27 F          -1.9459   72.2511   18.1349 F       1  UNL1       -0.1658
     28 F          -2.8836   74.1441   18.9167 F       1  UNL1       -0.1658
     29 C          10.0683   77.6720   28.2878 C.3     1  UNL1        0.1535
     30 C           9.8403   79.0864   28.7698 C.2     1  UNL1        0.2443
     31 O           9.2722   79.9240   28.0174 O.2     1  UNL1       -0.2730
     32 N          10.2603   79.4620   30.0929 N.am    1  UNL1       -0.2825
     33 H          10.9459   78.8382   30.5760 H       1  UNL1        0.1549
     34 C           9.8389   80.6500   30.7884 C.ar    1  UNL1        0.0535
     35 C          10.2023   81.9048   30.2785 C.ar    1  UNL1        0.0353
     36 C           9.8363   83.0653   30.9639 C.ar    1  UNL1        0.1002
     37 N           9.1442   82.9786   32.1301 N.ar    1  UNL1       -0.2422
     38 C           8.7918   81.7781   32.6601 C.ar    1  UNL1        0.1002
     39 C           9.1350   80.5930   32.0048 C.ar    1  UNL1        0.0353
     40 C          10.0206   76.6731   29.4566 C.3     1  UNL1        0.0569
     41 C           8.7502   75.8699   29.4474 C.ar    1  UNL1       -0.0017
     42 C           8.6203   74.5405   29.0561 C.ar    1  UNL1        0.0681
     43 N           7.3676   74.0950   29.3042 N.ar    1  UNL1       -0.3523
     44 C           6.7092   75.1272   29.8591 C.ar    1  UNL1        0.0563
     45 C           5.3956   75.1372   30.3263 C.ar    1  UNL1        0.0170
     46 C           4.9148   76.3224   30.9120 C.ar    1  UNL1        0.0015
     47 C           5.7483   77.4576   31.0172 C.ar    1  UNL1        0.0001
     48 C           7.0702   77.4181   30.5384 C.ar    1  UNL1        0.0012
     49 C           7.5194   76.2289   29.9632 C.ar    1  UNL1        0.0131
     50 H           6.9993   73.1345   29.1253 H       1  UNL1        0.1660
@<TRIPOS>BOND
     1     1     2    2
     2     2     3   am
     3     3    29    1
     4    29    40    1
     5    40    41    1
     6    41    42   ar
     7    42    43   ar
     8    43    44   ar
     9    44    45   ar
    10    45    46   ar
    11    46    47   ar
    12    47    48   ar
    13    48    49   ar
    14    29    30    1
    15    30    31    2
    16    30    32   am
    17    32    34    1
    18    34    35   ar
    19    35    36   ar
    20    36    37   ar
    21    37    38   ar
    22    38    39   ar
    23     2     5    1
    24     5     6   ar
    25     6     7   ar
    26     7     8    1
    27     7     9   ar
    28     9    13    1
    29    13    14    1
    30    14    15    1
    31    15    16    1
    32    16    19    1
    33    19    20   ar
    34    20    21   ar
    35    21    22   ar
    36    22    25    1
    37    25    26    1
    38    25    27    1
    39    25    28    1
    40    22    23   ar
    41    23    24   ar
    42    16    17    1
    43    17    18    1
    44     9    10   ar
    45    10    11   ar
    46    11    12    1
    47    49    41   ar
    48    39    34   ar
    49    11     5   ar
    50    49    44   ar
    51    18    13    1
    52    24    19   ar
    53     3     4    1
    54    43    50    1
    55    32    33    1
@<TRIPOS>MOLECULE
*****
 50 55 0 0 0
SMALL
GASTEIGER

@<TRIPOS>ATOM
      1 O          10.0307   79.1574   25.1029 O.2     1  UNL1       -0.2701
      2 C           9.5347   78.0045   25.2318 C.2     1  UNL1        0.2484
      3 N           9.9949   77.1416   26.2845 N.am    1  UNL1       -0.2945
      4 H           9.8274   76.1145   26.1855 H       1  UNL1        0.1501
      5 C           8.5081   77.5452   24.2679 C.ar    1  UNL1        0.0813
      6 C           7.2548   77.1168   24.7400 C.ar    1  UNL1        0.0147
      7 C           6.2666   76.6828   23.8501 C.ar    1  UNL1        0.0481
      8 BR          4.5773   76.1066   24.5451 Br      1  UNL1       -0.0477
      9 C           6.5264   76.6652   22.4710 C.ar    1  UNL1        0.0565
     10 C           7.7787   77.0701   21.9958 C.ar    1  UNL1        0.0448
     11 C           8.7670   77.5054   22.8833 C.ar    1  UNL1        0.1457
     12 F           9.9856   77.8397   22.3882 F       1  UNL1       -0.2040
     13 N           5.5273   76.2214   21.5460 N.pl3   1  UNL1       -0.3036
     14 C           4.6360   77.2093   20.9296 C.3     1  UNL1        0.1123
     15 C           3.8248   76.5966   19.7818 C.3     1  UNL1        0.1136
     16 N           3.2532   75.2990   20.1786 N.pl3   1  UNL1       -0.2897
     17 C           4.0683   74.3448   20.9530 C.3     1  UNL1        0.1136
     18 C           5.5136   74.8242   21.1113 C.3     1  UNL1        0.1123
     19 C           1.9626   74.8997   19.6613 C.ar    1  UNL1        0.1318
     20 C           1.1310   75.8081   18.9824 C.ar    1  UNL1        0.0343
     21 C          -0.1081   75.3838   18.4998 C.ar    1  UNL1        0.0083
     22 C          -0.5166   74.0533   18.6710 C.ar    1  UNL1        0.0906
     23 C           0.3297   73.1827   19.3735 C.ar    1  UNL1        0.1041
     24 N           1.5306   73.6187   19.8366 N.ar    1  UNL1       -0.2292
     25 C          -1.8731   73.5963   18.1984 C.3     1  UNL1        0.4200
     26 F          -2.1284   74.0641   16.9209 F       1  UNL1       -0.1658
     27 F          -1.9097   72.2145   18.1881 F       1  UNL1       -0.1658
     28 F          -2.8668   74.0677   19.0388 F       1  UNL1       -0.1658
     29 C          10.9211   77.5969   27.3270 C.3     1  UNL1        0.1535
     30 C          12.3222   77.7176   26.7726 C.2     1  UNL1        0.2443
     31 O          13.2451   76.9904   27.2305 O.2     1  UNL1       -0.2730
     32 N          12.5883   78.6526   25.7129 N.am    1  UNL1       -0.2825
     33 H          11.8821   79.4049   25.5456 H       1  UNL1        0.1549
     34 C          13.7696   78.6559   24.8900 C.ar    1  UNL1        0.0535
     35 C          14.0022   77.5768   24.0253 C.ar    1  UNL1        0.0353
     36 C          15.1641   77.5456   23.2509 C.ar    1  UNL1        0.1002
     37 N          16.0745   78.5498   23.3469 N.ar    1  UNL1       -0.2422
     38 C          15.8876   79.6008   24.1876 C.ar    1  UNL1        0.1002
     39 C          14.7374   79.6727   24.9773 C.ar    1  UNL1        0.0353
     40 C          10.4327   78.9392   27.8977 C.3     1  UNL1        0.0569
     41 C           9.5880   78.7447   29.1256 C.ar    1  UNL1       -0.0017
     42 C           9.9670   79.0186   30.4367 C.ar    1  UNL1        0.0681
     43 N           8.9182   78.8581   31.2752 N.ar    1  UNL1       -0.3523
     44 C           7.8779   78.4966   30.5044 C.ar    1  UNL1        0.0563
     45 C           6.5663   78.2596   30.9137 C.ar    1  UNL1        0.0170
     46 C           5.6192   77.9287   29.9276 C.ar    1  UNL1        0.0015
     47 C           5.9996   77.8438   28.5702 C.ar    1  UNL1        0.0001
     48 C           7.3302   78.0897   28.1862 C.ar    1  UNL1        0.0012
     49 C           8.2470   78.4164   29.1859 C.ar    1  UNL1        0.0131
     50 H           8.9147   79.0122   32.3080 H       1  UNL1        0.1660
@<TRIPOS>BOND
     1     1     2    2
     2     2     3   am
     3     3    29    1
     4    29    40    1
     5    40    41    1
     6    41    42   ar
     7    42    43   ar
     8    43    44   ar
     9    44    45   ar
    10    45    46   ar
    11    46    47   ar
    12    47    48   ar
    13    48    49   ar
    14    29    30    1
    15    30    31    2
    16    30    32   am
    17    32    34    1
    18    34    35   ar
    19    35    36   ar
    20    36    37   ar
    21    37    38   ar
    22    38    39   ar
    23     2     5    1
    24     5     6   ar
    25     6     7   ar
    26     7     8    1
    27     7     9   ar
    28     9    13    1
    29    13    14    1
    30    14    15    1
    31    15    16    1
    32    16    19    1
    33    19    20   ar
    34    20    21   ar
    35    21    22   ar
    36    22    25    1
    37    25    26    1
    38    25    27    1
    39    25    28    1
    40    22    23   ar
    41    23    24   ar
    42    16    17    1
    43    17    18    1
    44     9    10   ar
    45    10    11   ar
    46    11    12    1
    47    49    41   ar
    48    39    34   ar
    49    11     5   ar
    50    49    44   ar
    51    18    13    1
    52    24    19   ar
    53     3     4    1
    54    43    50    1
    55    32    33    1
@<TRIPOS>MOLECULE
*****
 50 55 0 0 0
SMALL
GASTEIGER

@<TRIPOS>ATOM
      1 O          10.2411   75.7803   26.4502 O.2     1  UNL1       -0.2701
      2 C           9.1322   76.3814   26.4774 C.2     1  UNL1        0.2484
      3 N           8.8114   77.2408   27.5834 N.am    1  UNL1       -0.2945
      4 H           7.8047   77.4625   27.7565 H       1  UNL1        0.1501
      5 C           8.1609   76.1604   25.3812 C.ar    1  UNL1        0.0813
      6 C           6.7850   76.3036   25.6333 C.ar    1  UNL1        0.0147
      7 C           5.8476   76.1049   24.6141 C.ar    1  UNL1        0.0481
      8 BR          3.9850   76.3094   25.0110 Br      1  UNL1       -0.0477
      9 C           6.2791   75.7510   23.3264 C.ar    1  UNL1        0.0565
     10 C           7.6455   75.5861   23.0737 C.ar    1  UNL1        0.0448
     11 C           8.5839   75.7855   24.0903 C.ar    1  UNL1        0.1457
     12 F           9.8950   75.5646   23.8189 F       1  UNL1       -0.2040
     13 N           5.3332   75.5411   22.2719 N.pl3   1  UNL1       -0.3036
     14 C           4.4059   76.6209   21.9194 C.3     1  UNL1        0.1123
     15 C           3.6632   76.3207   20.6121 C.3     1  UNL1        0.1136
     16 N           3.1541   74.9391   20.6041 N.pl3   1  UNL1       -0.2897
     17 C           3.9991   73.8435   21.1144 C.3     1  UNL1        0.1136
     18 C           5.4102   74.3243   21.4628 C.3     1  UNL1        0.1123
     19 C           1.9032   74.6434   19.9405 C.ar    1  UNL1        0.1318
     20 C           1.2430   75.6061   19.1561 C.ar    1  UNL1        0.0343
     21 C           0.0367   75.2818   18.5334 C.ar    1  UNL1        0.0083
     22 C          -0.5073   73.9966   18.6701 C.ar    1  UNL1        0.0906
     23 C           0.1679   73.0708   19.4792 C.ar    1  UNL1        0.1041
     24 N           1.3399   73.4098   20.0778 N.ar    1  UNL1       -0.2292
     25 C          -1.8340   73.6503   18.0437 C.3     1  UNL1        0.4200
     26 F          -2.0037   72.2777   17.9866 F       1  UNL1       -0.1658
     27 F          -2.8519   74.1991   18.8011 F       1  UNL1       -0.1658
     28 F          -1.9105   74.1501   16.7552 F       1  UNL1       -0.1658
     29 C           9.7861   77.5778   28.6265 C.3     1  UNL1        0.1535
     30 C           9.6842   79.0412   28.9916 C.2     1  UNL1        0.2443
     31 O           9.1876   79.8612   28.1722 O.2     1  UNL1       -0.2730
     32 N          10.1412   79.4848   30.2809 N.am    1  UNL1       -0.2825
     33 H          10.7721   78.8449   30.8148 H       1  UNL1        0.1549
     34 C           9.8279   80.7575   30.8766 C.ar    1  UNL1        0.0535
     35 C          10.3146   81.9292   30.2794 C.ar    1  UNL1        0.0353
     36 C          10.0538   83.1685   30.8682 C.ar    1  UNL1        0.1002
     37 N           9.3444   83.2379   32.0250 N.ar    1  UNL1       -0.2422
     38 C           8.8735   82.1205   32.6383 C.ar    1  UNL1        0.1002
     39 C           9.1090   80.8613   32.0810 C.ar    1  UNL1        0.0353
     40 C           9.5542   76.6821   29.8553 C.3     1  UNL1        0.0569
     41 C           8.0908   76.5337   30.1644 C.ar    1  UNL1       -0.0017
     42 C           7.2984   77.4484   30.8522 C.ar    1  UNL1        0.0681
     43 N           6.0027   77.0615   30.8305 N.ar    1  UNL1       -0.3523
     44 C           5.9682   75.9174   30.1256 C.ar    1  UNL1        0.0563
     45 C           4.8431   75.1628   29.7959 C.ar    1  UNL1        0.0170
     46 C           5.0306   74.0112   29.0101 C.ar    1  UNL1        0.0015
     47 C           6.3234   73.6443   28.5758 C.ar    1  UNL1        0.0001
     48 C           7.4403   74.4257   28.9225 C.ar    1  UNL1        0.0012
     49 C           7.2234   75.5623   29.7020 C.ar    1  UNL1        0.0131
     50 H           5.1926   77.5671   31.2529 H       1  UNL1        0.1660
@<TRIPOS>BOND
     1     1     2    2
     2     2     3   am
     3     3    29    1
     4    29    40    1
     5    40    41    1
     6    41    42   ar
     7    42    43   ar
     8    43    44   ar
     9    44    45   ar
    10    45    46   ar
    11    46    47   ar
    12    47    48   ar
    13    48    49   ar
    14    29    30    1
    15    30    31    2
    16    30    32   am
    17    32    34    1
    18    34    35   ar
    19    35    36   ar
    20    36    37   ar
    21    37    38   ar
    22    38    39   ar
    23     2     5    1
    24     5     6   ar
    25     6     7   ar
    26     7     8    1
    27     7     9   ar
    28     9    13    1
    29    13    14    1
    30    14    15    1
    31    15    16    1
    32    16    19    1
    33    19    20   ar
    34    20    21   ar
    35    21    22   ar
    36    22    25    1
    37    25    26    1
    38    25    27    1
    39    25    28    1
    40    22    23   ar
    41    23    24   ar
    42    16    17    1
    43    17    18    1
    44     9    10   ar
    45    10    11   ar
    46    11    12    1
    47    49    41   ar
    48    39    34   ar
    49    11     5   ar
    50    49    44   ar
    51    18    13    1
    52    24    19   ar
    53     3     4    1
    54    43    50    1
    55    32    33    1
@<TRIPOS>MOLECULE
*****
 50 55 0 0 0
SMALL
GASTEIGER

@<TRIPOS>ATOM
      1 O          11.2680   75.5198   24.6200 O.2     1  UNL1       -0.2701
      2 C          10.1669   76.1028   24.8188 C.2     1  UNL1        0.2484
      3 N          10.0227   76.9983   25.9331 N.am    1  UNL1       -0.2945
      4 H           9.0563   77.2096   26.2709 H       1  UNL1        0.1501
      5 C           9.0258   75.8236   23.9166 C.ar    1  UNL1        0.0813
      6 C           7.7115   75.9492   24.4003 C.ar    1  UNL1        0.0147
      7 C           6.6165   75.6958   23.5673 C.ar    1  UNL1        0.0481
      8 BR          4.8467   75.8785   24.2764 Br      1  UNL1       -0.0477
      9 C           6.8266   75.3040   22.2361 C.ar    1  UNL1        0.0565
     10 C           8.1320   75.1565   21.7542 C.ar    1  UNL1        0.0448
     11 C           9.2274   75.4106   22.5845 C.ar    1  UNL1        0.1457
     12 F          10.4766   75.2054   22.0957 F       1  UNL1       -0.2040
     13 N           5.7174   75.0380   21.3702 N.pl3   1  UNL1       -0.3036
     14 C           5.0634   76.1565   20.6837 C.3     1  UNL1        0.1123
     15 C           4.0884   75.6640   19.6078 C.3     1  UNL1        0.1136
     16 N           3.2407   74.5776   20.1267 N.pl3   1  UNL1       -0.2897
     17 C           3.8346   73.5228   20.9689 C.3     1  UNL1        0.1136
     18 C           5.3572   73.6539   21.0607 C.3     1  UNL1        0.1123
     19 C           1.8741   74.4576   19.6678 C.ar    1  UNL1        0.1318
     20 C           1.2145   75.5284   19.0384 C.ar    1  UNL1        0.0343
     21 C          -0.1052   75.3729   18.6114 C.ar    1  UNL1        0.0083
     22 C          -0.7670   74.1494   18.7887 C.ar    1  UNL1        0.0906
     23 C          -0.0844   73.1122   19.4413 C.ar    1  UNL1        0.1041
     24 N           1.1995   73.2873   19.8508 N.ar    1  UNL1       -0.2292
     25 C          -2.2079   73.9855   18.3770 C.3     1  UNL1        0.4200
     26 F          -2.5070   74.8110   17.3070 F       1  UNL1       -0.1658
     27 F          -2.4290   72.6717   18.0083 F       1  UNL1       -0.1658
     28 F          -3.0541   74.3089   19.4234 F       1  UNL1       -0.1658
     29 C          11.1553   77.3915   26.7784 C.3     1  UNL1        0.1535
     30 C          12.1337   78.2338   25.9922 C.2     1  UNL1        0.2443
     31 O          12.1159   79.4897   26.1052 O.2     1  UNL1       -0.2730
     32 N          13.0906   77.5926   25.1311 N.am    1  UNL1       -0.2825
     33 H          12.9086   76.5985   24.8646 H       1  UNL1        0.1549
     34 C          14.2593   78.2253   24.5774 C.ar    1  UNL1        0.0535
     35 C          14.6700   79.4657   25.0863 C.ar    1  UNL1        0.0353
     36 C          15.7775   80.1113   24.5320 C.ar    1  UNL1        0.1002
     37 N          16.4454   79.5471   23.4918 N.ar    1  UNL1       -0.2422
     38 C          16.0629   78.3548   22.9642 C.ar    1  UNL1        0.1002
     39 C          14.9627   77.6740   23.4913 C.ar    1  UNL1        0.0353
     40 C          10.6368   78.1498   28.0122 C.3     1  UNL1        0.0569
     41 C           9.3242   77.5962   28.4915 C.ar    1  UNL1       -0.0017
     42 C           8.0871   78.2296   28.4150 C.ar    1  UNL1        0.0681
     43 N           7.1021   77.3923   28.8123 N.ar    1  UNL1       -0.3523
     44 C           7.7046   76.2328   29.1278 C.ar    1  UNL1        0.0563
     45 C           7.0946   75.0522   29.5497 C.ar    1  UNL1        0.0170
     46 C           7.9169   73.9364   29.7896 C.ar    1  UNL1        0.0015
     47 C           9.3141   74.0243   29.6040 C.ar    1  UNL1        0.0001
     48 C           9.9019   75.2283   29.1761 C.ar    1  UNL1        0.0012
     49 C           9.0613   76.3177   28.9453 C.ar    1  UNL1        0.0131
     50 H           6.0791   77.5998   28.8398 H       1  UNL1        0.1660
@<TRIPOS>BOND
     1     1     2    2
     2     2     3   am
     3     3    29    1
     4    29    40    1
     5    40    41    1
     6    41    42   ar
     7    42    43   ar
     8    43    44   ar
     9    44    45   ar
    10    45    46   ar
    11    46    47   ar
    12    47    48   ar
    13    48    49   ar
    14    29    30    1
    15    30    31    2
    16    30    32   am
    17    32    34    1
    18    34    35   ar
    19    35    36   ar
    20    36    37   ar
    21    37    38   ar
    22    38    39   ar
    23     2     5    1
    24     5     6   ar
    25     6     7   ar
    26     7     8    1
    27     7     9   ar
    28     9    13    1
    29    13    14    1
    30    14    15    1
    31    15    16    1
    32    16    19    1
    33    19    20   ar
    34    20    21   ar
    35    21    22   ar
    36    22    25    1
    37    25    26    1
    38    25    27    1
    39    25    28    1
    40    22    23   ar
    41    23    24   ar
    42    16    17    1
    43    17    18    1
    44     9    10   ar
    45    10    11   ar
    46    11    12    1
    47    49    41   ar
    48    39    34   ar
    49    11     5   ar
    50    49    44   ar
    51    18    13    1
    52    24    19   ar
    53     3     4    1
    54    43    50    1
    55    32    33    1
@<TRIPOS>MOLECULE
*****
 50 55 0 0 0
SMALL
GASTEIGER

@<TRIPOS>ATOM
      1 O           9.8852   78.9425   25.6908 O.2     1  UNL1       -0.2701
      2 C           9.5464   77.7336   25.5650 C.2     1  UNL1        0.2484
      3 N          10.2053   76.7215   26.3436 N.am    1  UNL1       -0.2945
      4 H          10.1544   75.7331   26.0073 H       1  UNL1        0.1501
      5 C           8.4958   77.3735   24.5850 C.ar    1  UNL1        0.0813
      6 C           8.6296   77.7759   23.2444 C.ar    1  UNL1        0.0147
      7 C           7.6537   77.4447   22.2984 C.ar    1  UNL1        0.0481
      8 BR          7.8825   78.0199   20.4858 Br      1  UNL1       -0.0477
      9 C           6.5233   76.7097   22.6879 C.ar    1  UNL1        0.0565
     10 C           6.3734   76.3241   24.0246 C.ar    1  UNL1        0.0448
     11 C           7.3480   76.6529   24.9711 C.ar    1  UNL1        0.1457
     12 F           7.1406   76.3067   26.2668 F       1  UNL1       -0.2040
     13 N           5.5133   76.3642   21.7332 N.pl3   1  UNL1       -0.3036
     14 C           4.4397   77.3224   21.4514 C.3     1  UNL1        0.1123
     15 C           3.6175   76.9024   20.2273 C.3     1  UNL1        0.1136
     16 N           3.2714   75.4728   20.2939 N.pl3   1  UNL1       -0.2897
     17 C           4.2801   74.4943   20.7409 C.3     1  UNL1        0.1136
     18 C           5.6533   75.1404   20.9431 C.3     1  UNL1        0.1123
     19 C           2.0061   75.0193   19.7592 C.ar    1  UNL1        0.1318
     20 C           1.1604   75.8840   19.0416 C.ar    1  UNL1        0.0343
     21 C          -0.0534   75.4080   18.5432 C.ar    1  UNL1        0.0083
     22 C          -0.4220   74.0690   18.7372 C.ar    1  UNL1        0.0906
     23 C           0.4365   73.2432   19.4778 C.ar    1  UNL1        0.1041
     24 N           1.6123   73.7292   19.9556 N.ar    1  UNL1       -0.2292
     25 C          -1.7524   73.5568   18.2472 C.3     1  UNL1        0.4200
     26 F          -2.7741   73.9742   19.0825 F       1  UNL1       -0.1658
     27 F          -1.9853   74.0410   16.9736 F       1  UNL1       -0.1658
     28 F          -1.7595   72.1731   18.2121 F       1  UNL1       -0.1658
     29 C          11.1646   77.0454   27.4051 C.3     1  UNL1        0.1535
     30 C          12.4958   77.4444   26.8101 C.2     1  UNL1        0.2443
     31 O          13.5648   76.9786   27.2903 O.2     1  UNL1       -0.2730
     32 N          12.5311   78.3423   25.6874 N.am    1  UNL1       -0.2825
     33 H          11.6700   78.9012   25.4903 H       1  UNL1        0.1549
     34 C          13.6725   78.5592   24.8373 C.ar    1  UNL1        0.0535
     35 C          14.0455   77.5600   23.9270 C.ar    1  UNL1        0.0353
     36 C          15.1746   77.7382   23.1245 C.ar    1  UNL1        0.1002
     37 N          15.9192   78.8693   23.2369 N.ar    1  UNL1       -0.2422
     38 C          15.5951   79.8488   24.1210 C.ar    1  UNL1        0.1002
     39 C          14.4716   79.7121   24.9400 C.ar    1  UNL1        0.0353
     40 C          10.5935   78.1671   28.2891 C.3     1  UNL1        0.0569
     41 C           9.2979   77.7598   28.9329 C.ar    1  UNL1       -0.0017
     42 C           8.1974   78.5815   29.1587 C.ar    1  UNL1        0.0681
     43 N           7.1560   77.8582   29.6294 N.ar    1  UNL1       -0.3523
     44 C           7.5852   76.5859   29.6917 C.ar    1  UNL1        0.0563
     45 C           6.8508   75.4653   30.0776 C.ar    1  UNL1        0.0170
     46 C           7.4890   74.2126   30.0310 C.ar    1  UNL1        0.0015
     47 C           8.8312   74.1090   29.6041 C.ar    1  UNL1        0.0001
     48 C           9.5473   75.2567   29.2191 C.ar    1  UNL1        0.0012
     49 C           8.8880   76.4851   29.2749 C.ar    1  UNL1        0.0131
     50 H           6.2042   78.2154   29.8678 H       1  UNL1        0.1660
@<TRIPOS>BOND
     1     1     2    2
     2     2     3   am
     3     3    29    1
     4    29    40    1
     5    40    41    1
     6    41    42   ar
     7    42    43   ar
     8    43    44   ar
     9    44    45   ar
    10    45    46   ar
    11    46    47   ar
    12    47    48   ar
    13    48    49   ar
    14    29    30    1
    15    30    31    2
    16    30    32   am
    17    32    34    1
    18    34    35   ar
    19    35    36   ar
    20    36    37   ar
    21    37    38   ar
    22    38    39   ar
    23     2     5    1
    24     5     6   ar
    25     6     7   ar
    26     7     8    1
    27     7     9   ar
    28     9    13    1
    29    13    14    1
    30    14    15    1
    31    15    16    1
    32    16    19    1
    33    19    20   ar
    34    20    21   ar
    35    21    22   ar
    36    22    25    1
    37    25    26    1
    38    25    27    1
    39    25    28    1
    40    22    23   ar
    41    23    24   ar
    42    16    17    1
    43    17    18    1
    44     9    10   ar
    45    10    11   ar
    46    11    12    1
    47    49    41   ar
    48    39    34   ar
    49    11     5   ar
    50    49    44   ar
    51    18    13    1
    52    24    19   ar
    53     3     4    1
    54    43    50    1
    55    32    33    1
@<TRIPOS>MOLECULE
*****
 50 55 0 0 0
SMALL
GASTEIGER

@<TRIPOS>ATOM
      1 O           7.7360   75.1819   25.2649 O.2     1  UNL1       -0.2701
      2 C           8.0655   75.8394   24.2397 C.2     1  UNL1        0.2484
      3 N           7.6291   75.4058   22.9412 N.am    1  UNL1       -0.2945
      4 H           8.1576   75.7474   22.1066 H       1  UNL1        0.1501
      5 C           8.9315   77.0315   24.3906 C.ar    1  UNL1        0.0813
      6 C           9.0464   77.6516   25.6474 C.ar    1  UNL1        0.0147
      7 C           9.8612   78.7759   25.8174 C.ar    1  UNL1        0.0481
      8 BR          9.9805   79.5847   27.5495 Br      1  UNL1       -0.0477
      9 C          10.5676   79.2993   24.7234 C.ar    1  UNL1        0.0565
     10 C          10.4414   78.7000   23.4653 C.ar    1  UNL1        0.0448
     11 C           9.6288   77.5757   23.2937 C.ar    1  UNL1        0.1457
     12 F           9.4913   77.0555   22.0478 F       1  UNL1       -0.2040
     13 N          11.4042   80.4512   24.8788 N.pl3   1  UNL1       -0.3036
     14 C          10.7882   81.7815   24.9130 C.3     1  UNL1        0.1123
     15 C          11.7915   82.8552   25.3504 C.3     1  UNL1        0.1136
     16 N          13.0694   82.7007   24.6353 N.pl3   1  UNL1       -0.2897
     17 C          13.6365   81.3551   24.4300 C.3     1  UNL1        0.1136
     18 C          12.8299   80.2771   25.1589 C.3     1  UNL1        0.1123
     19 C          13.8415   83.8749   24.2922 C.ar    1  UNL1        0.1318
     20 C          13.8877   84.9964   25.1396 C.ar    1  UNL1        0.0343
     21 C          14.6434   86.1106   24.7715 C.ar    1  UNL1        0.0083
     22 C          15.3711   86.1078   23.5728 C.ar    1  UNL1        0.0906
     23 C          15.2817   84.9805   22.7429 C.ar    1  UNL1        0.1041
     24 N          14.5376   83.9079   23.1207 N.ar    1  UNL1       -0.2292
     25 C          16.1503   87.3239   23.1409 C.3     1  UNL1        0.4200
     26 F          15.6090   88.4720   23.6929 F       1  UNL1       -0.1658
     27 F          17.4613   87.1969   23.5605 F       1  UNL1       -0.1658
     28 F          16.1280   87.4536   21.7631 F       1  UNL1       -0.1658
     29 C           6.6786   74.3036   22.7579 C.3     1  UNL1        0.1535
     30 C           5.2856   74.8412   22.5223 C.2     1  UNL1        0.2443
     31 O           4.4166   74.1158   21.9664 O.2     1  UNL1       -0.2730
     32 N           4.9573   76.1744   22.9500 N.am    1  UNL1       -0.2825
     33 H           5.7505   76.8222   23.1591 H       1  UNL1        0.1549
     34 C           3.6220   76.6974   23.0759 C.ar    1  UNL1        0.0535
     35 C           2.8793   76.9598   21.9158 C.ar    1  UNL1        0.0353
     36 C           1.5980   77.5057   22.0203 C.ar    1  UNL1        0.1002
     37 N           1.0787   77.7971   23.2416 N.ar    1  UNL1       -0.2422
     38 C           1.7788   77.5712   24.3841 C.ar    1  UNL1        0.1002
     39 C           3.0624   77.0230   24.3246 C.ar    1  UNL1        0.0353
     40 C           7.1374   73.4189   21.5862 C.3     1  UNL1        0.0569
     41 C           8.3512   72.6087   21.9459 C.ar    1  UNL1       -0.0017
     42 C           8.3980   71.2279   22.1152 C.ar    1  UNL1        0.0681
     43 N           9.6734   70.8171   22.2986 N.ar    1  UNL1       -0.3523
     44 C          10.4332   71.9242   22.2352 C.ar    1  UNL1        0.0563
     45 C          11.8224   72.0007   22.3248 C.ar    1  UNL1        0.0170
     46 C          12.4215   73.2665   22.1914 C.ar    1  UNL1        0.0015
     47 C          11.6278   74.4141   21.9734 C.ar    1  UNL1        0.0001
     48 C          10.2281   74.3066   21.8858 C.ar    1  UNL1        0.0012
     49 C           9.6625   73.0384   22.0211 C.ar    1  UNL1        0.0131
     50 H          10.0001   69.8345   22.4336 H       1  UNL1        0.1660
@<TRIPOS>BOND
     1     1     2    2
     2     2     3   am
     3     3    29    1
     4    29    40    1
     5    40    41    1
     6    41    42   ar
     7    42    43   ar
     8    43    44   ar
     9    44    45   ar
    10    45    46   ar
    11    46    47   ar
    12    47    48   ar
    13    48    49   ar
    14    29    30    1
    15    30    31    2
    16    30    32   am
    17    32    34    1
    18    34    35   ar
    19    35    36   ar
    20    36    37   ar
    21    37    38   ar
    22    38    39   ar
    23     2     5    1
    24     5     6   ar
    25     6     7   ar
    26     7     8    1
    27     7     9   ar
    28     9    13    1
    29    13    14    1
    30    14    15    1
    31    15    16    1
    32    16    19    1
    33    19    20   ar
    34    20    21   ar
    35    21    22   ar
    36    22    25    1
    37    25    26    1
    38    25    27    1
    39    25    28    1
    40    22    23   ar
    41    23    24   ar
    42    16    17    1
    43    17    18    1
    44     9    10   ar
    45    10    11   ar
    46    11    12    1
    47    49    41   ar
    48    39    34   ar
    49    11     5   ar
    50    49    44   ar
    51    18    13    1
    52    24    19   ar
    53     3     4    1
    54    43    50    1
    55    32    33    1
@<TRIPOS>MOLECULE
*****
 50 55 0 0 0
SMALL
GASTEIGER

@<TRIPOS>ATOM
      1 O          10.5490   74.4888   25.5667 O.2     1  UNL1       -0.2701
      2 C           9.8563   75.5022   25.2749 C.2     1  UNL1        0.2484
      3 N           8.4595   75.3510   24.9737 N.am    1  UNL1       -0.2945
      4 H           7.9892   76.1116   24.4323 H       1  UNL1        0.1501
      5 C          10.5070   76.8312   25.2119 C.ar    1  UNL1        0.0813
      6 C          10.1131   77.8404   26.1083 C.ar    1  UNL1        0.0147
      7 C          10.7152   79.1026   26.0724 C.ar    1  UNL1        0.0481
      8 BR         10.1397   80.4431   27.3137 Br      1  UNL1       -0.0477
      9 C          11.7181   79.3723   25.1285 C.ar    1  UNL1        0.0565
     10 C          12.1003   78.3794   24.2195 C.ar    1  UNL1        0.0448
     11 C          11.5008   77.1172   24.2546 C.ar    1  UNL1        0.1457
     12 F          11.8614   76.1988   23.3228 F       1  UNL1       -0.2040
     13 N          12.3433   80.6596   25.0759 N.pl3   1  UNL1       -0.3036
     14 C          11.5235   81.8400   24.7849 C.3     1  UNL1        0.1123
     15 C          12.2990   83.1391   25.0335 C.3     1  UNL1        0.1136
     16 N          13.6455   83.0669   24.4420 N.pl3   1  UNL1       -0.2897
     17 C          14.4356   81.8280   24.5669 C.3     1  UNL1        0.1136
     18 C          13.7467   80.7986   25.4666 C.3     1  UNL1        0.1123
     19 C          14.2497   84.2621   23.8952 C.ar    1  UNL1        0.1318
     20 C          14.2102   85.4864   24.5861 C.ar    1  UNL1        0.0343
     21 C          14.8038   86.6175   24.0235 C.ar    1  UNL1        0.0083
     22 C          15.4555   86.5327   22.7848 C.ar    1  UNL1        0.0906
     23 C          15.4540   85.3002   22.1150 C.ar    1  UNL1        0.1041
     24 N          14.8673   84.2129   22.6811 N.ar    1  UNL1       -0.2292
     25 C          16.0565   87.7579   22.1443 C.3     1  UNL1        0.4200
     26 F          15.0697   88.6722   21.8181 F       1  UNL1       -0.1658
     27 F          16.9413   88.3461   23.0286 F       1  UNL1       -0.1658
     28 F          16.7341   87.4202   20.9856 F       1  UNL1       -0.1658
     29 C           7.7525   74.0762   25.1376 C.3     1  UNL1        0.1535
     30 C           6.5433   74.2535   26.0272 C.2     1  UNL1        0.2443
     31 O           5.4461   74.6280   25.5308 O.2     1  UNL1       -0.2730
     32 N           6.6505   73.9772   27.4344 N.am    1  UNL1       -0.2825
     33 H           7.6109   73.9279   27.8439 H       1  UNL1        0.1549
     34 C           5.5371   73.8009   28.3299 C.ar    1  UNL1        0.0535
     35 C           5.2568   74.7979   29.2753 C.ar    1  UNL1        0.0353
     36 C           4.2055   74.6229   30.1779 C.ar    1  UNL1        0.1002
     37 N           3.4666   73.4829   30.1511 N.ar    1  UNL1       -0.2422
     38 C           3.7230   72.4903   29.2593 C.ar    1  UNL1        0.1002
     39 C           4.7632   72.6265   28.3367 C.ar    1  UNL1        0.0353
     40 C           7.3503   73.5304   23.7569 C.3     1  UNL1        0.0569
     41 C           8.3702   73.8726   22.7073 C.ar    1  UNL1       -0.0017
     42 C           8.3095   74.9426   21.8191 C.ar    1  UNL1        0.0681
     43 N           9.4564   75.0322   21.1080 N.ar    1  UNL1       -0.3523
     44 C          10.2449   74.0360   21.5472 C.ar    1  UNL1        0.0563
     45 C          11.5477   73.7496   21.1417 C.ar    1  UNL1        0.0170
     46 C          12.2097   72.6764   21.7653 C.ar    1  UNL1        0.0015
     47 C          11.5625   71.9227   22.7691 C.ar    1  UNL1        0.0001
     48 C          10.2479   72.2357   23.1592 C.ar    1  UNL1        0.0012
     49 C           9.6171   73.3056   22.5237 C.ar    1  UNL1        0.0131
     50 H           9.6890   75.7490   20.3852 H       1  UNL1        0.1660
@<TRIPOS>BOND
     1     1     2    2
     2     2     3   am
     3     3    29    1
     4    29    40    1
     5    40    41    1
     6    41    42   ar
     7    42    43   ar
     8    43    44   ar
     9    44    45   ar
    10    45    46   ar
    11    46    47   ar
    12    47    48   ar
    13    48    49   ar
    14    29    30    1
    15    30    31    2
    16    30    32   am
    17    32    34    1
    18    34    35   ar
    19    35    36   ar
    20    36    37   ar
    21    37    38   ar
    22    38    39   ar
    23     2     5    1
    24     5     6   ar
    25     6     7   ar
    26     7     8    1
    27     7     9   ar
    28     9    13    1
    29    13    14    1
    30    14    15    1
    31    15    16    1
    32    16    19    1
    33    19    20   ar
    34    20    21   ar
    35    21    22   ar
    36    22    25    1
    37    25    26    1
    38    25    27    1
    39    25    28    1
    40    22    23   ar
    41    23    24   ar
    42    16    17    1
    43    17    18    1
    44     9    10   ar
    45    10    11   ar
    46    11    12    1
    47    49    41   ar
    48    39    34   ar
    49    11     5   ar
    50    49    44   ar
    51    18    13    1
    52    24    19   ar
    53     3     4    1
    54    43    50    1
    55    32    33    1
@<TRIPOS>MOLECULE
*****
 50 55 0 0 0
SMALL
GASTEIGER

@<TRIPOS>ATOM
      1 O           8.8482   75.0916   26.9616 O.2     1  UNL1       -0.2701
      2 C           8.8740   75.7170   25.8661 C.2     1  UNL1        0.2484
      3 N           8.1295   75.2210   24.7418 N.am    1  UNL1       -0.2945
      4 H           8.4086   75.5438   23.7875 H       1  UNL1        0.1501
      5 C           9.7050   76.9373   25.7476 C.ar    1  UNL1        0.0813
      6 C           9.3936   77.8970   24.7682 C.ar    1  UNL1        0.0147
      7 C          10.1599   79.0601   24.6386 C.ar    1  UNL1        0.0481
      8 BR          9.6951   80.3342   23.2861 Br      1  UNL1       -0.0477
      9 C          11.2571   79.2727   25.4876 C.ar    1  UNL1        0.0565
     10 C          11.5855   78.3121   26.4505 C.ar    1  UNL1        0.0448
     11 C          10.8202   77.1498   26.5824 C.ar    1  UNL1        0.1457
     12 F          11.2022   76.2183   27.4924 F       1  UNL1       -0.2040
     13 N          12.0540   80.4565   25.3672 N.pl3   1  UNL1       -0.3036
     14 C          11.4200   81.7657   25.5522 C.3     1  UNL1        0.1123
     15 C          12.4617   82.8861   25.6544 C.3     1  UNL1        0.1136
     16 N          13.4809   82.7517   24.6001 N.pl3   1  UNL1       -0.2897
     17 C          14.0190   81.4200   24.2662 C.3     1  UNL1        0.1136
     18 C          13.5054   80.3396   25.2215 C.3     1  UNL1        0.1123
     19 C          14.0699   83.9395   24.0216 C.ar    1  UNL1        0.1318
     20 C          13.9946   85.1859   24.6687 C.ar    1  UNL1        0.0343
     21 C          14.5747   86.3088   24.0764 C.ar    1  UNL1        0.0083
     22 C          15.2482   86.1948   22.8517 C.ar    1  UNL1        0.0906
     23 C          15.2822   84.9402   22.2254 C.ar    1  UNL1        0.1041
     24 N          14.7082   83.8612   22.8197 N.ar    1  UNL1       -0.2292
     25 C          15.8349   87.4093   22.1785 C.3     1  UNL1        0.4200
     26 F          14.9412   88.4658   22.2120 F       1  UNL1       -0.1658
     27 F          16.9939   87.7783   22.8354 F       1  UNL1       -0.1658
     28 F          16.1338   87.1367   20.8548 F       1  UNL1       -0.1658
     29 C           7.2051   74.0869   24.8485 C.3     1  UNL1        0.1535
     30 C           6.2250   74.3089   25.9777 C.2     1  UNL1        0.2443
     31 O           5.2071   75.0306   25.7950 O.2     1  UNL1       -0.2730
     32 N           6.4540   73.6800   27.2506 N.am    1  UNL1       -0.2825
     33 H           7.4152   73.3171   27.4426 H       1  UNL1        0.1549
     34 C           5.4725   73.5456   28.2952 C.ar    1  UNL1        0.0535
     35 C           4.6337   72.4219   28.3034 C.ar    1  UNL1        0.0353
     36 C           3.6493   72.2975   29.2863 C.ar    1  UNL1        0.1002
     37 N           3.4939   73.2701   30.2224 N.ar    1  UNL1       -0.2422
     38 C           4.2785   74.3794   30.2320 C.ar    1  UNL1        0.1002
     39 C           5.2774   74.5416   29.2689 C.ar    1  UNL1        0.0353
     40 C           6.4738   73.8922   23.5094 C.3     1  UNL1        0.0569
     41 C           6.3234   75.1902   22.7665 C.ar    1  UNL1       -0.0017
     42 C           5.1772   75.9780   22.7107 C.ar    1  UNL1        0.0681
     43 N           5.4339   77.1412   22.0704 N.ar    1  UNL1       -0.3523
     44 C           6.7342   77.1000   21.7318 C.ar    1  UNL1        0.0563
     45 C           7.4713   78.0947   21.0905 C.ar    1  UNL1        0.0170
     46 C           8.8397   77.8580   20.8663 C.ar    1  UNL1        0.0015
     47 C           9.4340   76.6469   21.2839 C.ar    1  UNL1        0.0001
     48 C           8.6659   75.6617   21.9301 C.ar    1  UNL1        0.0012
     49 C           7.3118   75.9247   22.1394 C.ar    1  UNL1        0.0131
     50 H           4.7622   77.9224   21.9006 H       1  UNL1        0.1660
@<TRIPOS>BOND
     1     1     2    2
     2     2     3   am
     3     3    29    1
     4    29    40    1
     5    40    41    1
     6    41    42   ar
     7    42    43   ar
     8    43    44   ar
     9    44    45   ar
    10    45    46   ar
    11    46    47   ar
    12    47    48   ar
    13    48    49   ar
    14    29    30    1
    15    30    31    2
    16    30    32   am
    17    32    34    1
    18    34    35   ar
    19    35    36   ar
    20    36    37   ar
    21    37    38   ar
    22    38    39   ar
    23     2     5    1
    24     5     6   ar
    25     6     7   ar
    26     7     8    1
    27     7     9   ar
    28     9    13    1
    29    13    14    1
    30    14    15    1
    31    15    16    1
    32    16    19    1
    33    19    20   ar
    34    20    21   ar
    35    21    22   ar
    36    22    25    1
    37    25    26    1
    38    25    27    1
    39    25    28    1
    40    22    23   ar
    41    23    24   ar
    42    16    17    1
    43    17    18    1
    44     9    10   ar
    45    10    11   ar
    46    11    12    1
    47    49    41   ar
    48    39    34   ar
    49    11     5   ar
    50    49    44   ar
    51    18    13    1
    52    24    19   ar
    53     3     4    1
    54    43    50    1
    55    32    33    1
@<TRIPOS>MOLECULE
*****
 50 55 0 0 0
SMALL
GASTEIGER

@<TRIPOS>ATOM
      1 O           9.7092   74.5669   26.1786 O.2     1  UNL1       -0.2701
      2 C           9.1201   75.6236   25.8204 C.2     1  UNL1        0.2484
      3 N           7.7190   75.5891   25.5037 N.am    1  UNL1       -0.2945
      4 H           7.3302   76.3596   24.9139 H       1  UNL1        0.1501
      5 C           9.8957   76.8794   25.6966 C.ar    1  UNL1        0.0813
      6 C           9.5747   77.7964   24.6801 C.ar    1  UNL1        0.0147
      7 C          10.2888   78.9916   24.5447 C.ar    1  UNL1        0.0481
      8 BR          9.8133   80.2051   23.1412 Br      1  UNL1       -0.0477
      9 C          11.3429   79.2799   25.4253 C.ar    1  UNL1        0.0565
     10 C          11.6815   78.3623   26.4259 C.ar    1  UNL1        0.0448
     11 C          10.9683   77.1681   26.5637 C.ar    1  UNL1        0.1457
     12 F          11.3610   76.2807   27.5125 F       1  UNL1       -0.2040
     13 N          12.0863   80.4975   25.2995 N.pl3   1  UNL1       -0.3036
     14 C          11.3738   81.7779   25.3557 C.3     1  UNL1        0.1123
     15 C          12.3455   82.9579   25.4747 C.3     1  UNL1        0.1136
     16 N          13.4541   82.8226   24.5151 N.pl3   1  UNL1       -0.2897
     17 C          14.0846   81.5063   24.3043 C.3     1  UNL1        0.1136
     18 C          13.5488   80.4530   25.2775 C.3     1  UNL1        0.1123
     19 C          14.0283   84.0077   23.9166 C.ar    1  UNL1        0.1318
     20 C          13.8682   85.2766   24.5015 C.ar    1  UNL1        0.0343
     21 C          14.4368   86.3960   23.8917 C.ar    1  UNL1        0.0083
     22 C          15.1825   86.2573   22.7122 C.ar    1  UNL1        0.0906
     23 C          15.3006   84.9794   22.1461 C.ar    1  UNL1        0.1041
     24 N          14.7362   83.9042   22.7563 N.ar    1  UNL1       -0.2292
     25 C          15.7587   87.4649   22.0179 C.3     1  UNL1        0.4200
     26 F          17.0957   87.6219   22.3403 F       1  UNL1       -0.1658
     27 F          15.6410   87.3027   20.6501 F       1  UNL1       -0.1658
     28 F          15.0844   88.6130   22.3957 F       1  UNL1       -0.1658
     29 C           6.8914   74.3982   25.7243 C.3     1  UNL1        0.1535
     30 C           6.2856   74.4252   27.1089 C.2     1  UNL1        0.2443
     31 O           6.2448   73.3704   27.7989 O.2     1  UNL1       -0.2730
     32 N           5.7736   75.6614   27.6359 N.am    1  UNL1       -0.2825
     33 H           5.5863   76.4337   26.9569 H       1  UNL1        0.1549
     34 C           5.4634   75.9049   29.0205 C.ar    1  UNL1        0.0535
     35 C           4.2466   76.5192   29.3498 C.ar    1  UNL1        0.0353
     36 C           3.9493   76.7993   30.6854 C.ar    1  UNL1        0.1002
     37 N           4.8433   76.4926   31.6616 N.ar    1  UNL1       -0.2422
     38 C           6.0383   75.9129   31.3746 C.ar    1  UNL1        0.1002
     39 C           6.3737   75.6126   30.0521 C.ar    1  UNL1        0.0353
     40 C           5.8003   74.3231   24.6427 C.3     1  UNL1        0.0569
     41 C           6.3792   74.0037   23.2929 C.ar    1  UNL1       -0.0017
     42 C           7.5703   73.3264   23.0480 C.ar    1  UNL1        0.0681
     43 N           7.7174   73.0924   21.7241 N.ar    1  UNL1       -0.3523
     44 C           6.6249   73.6055   21.1324 C.ar    1  UNL1        0.0563
     45 C           6.3037   73.5687   19.7761 C.ar    1  UNL1        0.0170
     46 C           5.0810   74.1362   19.3741 C.ar    1  UNL1        0.0015
     47 C           4.2163   74.7204   20.3257 C.ar    1  UNL1        0.0001
     48 C           4.5658   74.7418   21.6879 C.ar    1  UNL1        0.0012
     49 C           5.7841   74.1708   22.0569 C.ar    1  UNL1        0.0131
     50 H           8.5076   72.5896   21.2625 H       1  UNL1        0.1660
@<TRIPOS>BOND
     1     1     2    2
     2     2     3   am
     3     3    29    1
     4    29    40    1
     5    40    41    1
     6    41    42   ar
     7    42    43   ar
     8    43    44   ar
     9    44    45   ar
    10    45    46   ar
    11    46    47   ar
    12    47    48   ar
    13    48    49   ar
    14    29    30    1
    15    30    31    2
    16    30    32   am
    17    32    34    1
    18    34    35   ar
    19    35    36   ar
    20    36    37   ar
    21    37    38   ar
    22    38    39   ar
    23     2     5    1
    24     5     6   ar
    25     6     7   ar
    26     7     8    1
    27     7     9   ar
    28     9    13    1
    29    13    14    1
    30    14    15    1
    31    15    16    1
    32    16    19    1
    33    19    20   ar
    34    20    21   ar
    35    21    22   ar
    36    22    25    1
    37    25    26    1
    38    25    27    1
    39    25    28    1
    40    22    23   ar
    41    23    24   ar
    42    16    17    1
    43    17    18    1
    44     9    10   ar
    45    10    11   ar
    46    11    12    1
    47    49    41   ar
    48    39    34   ar
    49    11     5   ar
    50    49    44   ar
    51    18    13    1
    52    24    19   ar
    53     3     4    1
    54    43    50    1
    55    32    33    1
