@<TRIPOS>MOLECULE
*****
 51 56 0 0 0
SMALL
GASTEIGER

@<TRIPOS>ATOM
      1 O         -63.1903  -54.6501  -22.1512 O.2     1  UNL1       -0.2701
      2 C         -64.1215  -53.9489  -22.6339 C.2     1  UNL1        0.2483
      3 N         -65.4851  -54.3737  -22.4836 N.am    1  UNL1       -0.2945
      4 H         -66.2478  -53.6789  -22.6516 H       1  UNL1        0.1501
      5 C         -63.7925  -52.6793  -23.3198 C.ar    1  UNL1        0.0808
      6 C         -64.6393  -52.1980  -24.3311 C.ar    1  UNL1        0.0080
      7 C         -64.3465  -51.0046  -24.9957 C.ar    1  UNL1        0.0148
      8 C         -63.2039  -50.2588  -24.6577 C.ar    1  UNL1        0.0502
      9 C         -62.3682  -50.7308  -23.6303 C.ar    1  UNL1        0.0443
     10 C         -62.6576  -51.9260  -22.9646 C.ar    1  UNL1        0.1457
     11 F         -61.8513  -52.3146  -21.9449 F       1  UNL1       -0.2040
     12 N         -62.9019  -49.0218  -25.3418 N.pl3   1  UNL1       -0.3040
     13 C         -61.7619  -48.1985  -24.9127 C.3     1  UNL1        0.1122
     14 C         -62.0271  -46.7152  -25.1891 C.3     1  UNL1        0.1122
     15 N         -62.4501  -46.4915  -26.5804 N.pl3   1  UNL1       -0.3041
     16 C         -62.9297  -47.6196  -27.3919 C.3     1  UNL1        0.1122
     17 C         -63.6850  -48.6318  -26.5248 C.3     1  UNL1        0.1122
     18 C         -62.3121  -45.1784  -27.1684 C.ar    1  UNL1        0.0479
     19 C         -62.5394  -44.0245  -26.3978 C.ar    1  UNL1        0.0145
     20 C         -62.4193  -42.7564  -26.9689 C.ar    1  UNL1        0.0012
     21 C         -62.0600  -42.6203  -28.3106 C.ar    1  UNL1        0.0039
     22 C         -61.7961  -43.7563  -29.0936 C.ar    1  UNL1        0.0726
     23 C         -61.9463  -45.0318  -28.5204 C.ar    1  UNL1        0.0184
     24 C         -61.4498  -43.6148  -30.5549 C.3     1  UNL1        0.4186
     25 F         -62.3642  -44.2957  -31.3400 F       1  UNL1       -0.1659
     26 F         -61.4691  -42.2762  -30.8992 F       1  UNL1       -0.1659
     27 F         -60.1909  -44.1288  -30.8143 F       1  UNL1       -0.1659
     28 C         -65.8332  -55.6881  -21.9355 C.3     1  UNL1        0.1535
     29 C         -66.7661  -55.5227  -20.7666 C.2     1  UNL1        0.2443
     30 O         -66.6282  -56.2695  -19.7600 O.2     1  UNL1       -0.2730
     31 N         -67.7782  -54.5020  -20.7837 N.am    1  UNL1       -0.2825
     32 H         -67.6875  -53.7338  -21.4864 H       1  UNL1        0.1549
     33 C         -68.8488  -54.4143  -19.8284 C.ar    1  UNL1        0.0535
     34 C         -70.0049  -53.6919  -20.1538 C.ar    1  UNL1        0.0353
     35 C         -71.0579  -53.6231  -19.2386 C.ar    1  UNL1        0.1002
     36 N         -70.9678  -54.2680  -18.0456 N.ar    1  UNL1       -0.2422
     37 C         -69.8681  -54.9930  -17.7098 C.ar    1  UNL1        0.1002
     38 C         -68.7918  -55.0867  -18.5958 C.ar    1  UNL1        0.0353
     39 C         -66.4839  -56.5767  -23.0115 C.3     1  UNL1        0.0569
     40 C         -67.3456  -55.7665  -23.9393 C.ar    1  UNL1       -0.0012
     41 C         -66.8673  -55.0215  -25.0123 C.ar    1  UNL1        0.0681
     42 N         -67.8884  -54.4767  -25.7047 N.ar    1  UNL1       -0.3522
     43 C         -69.0125  -54.8744  -25.0868 C.ar    1  UNL1        0.0568
     44 C         -70.3176  -54.5637  -25.4627 C.ar    1  UNL1        0.0170
     45 C         -71.3681  -55.0863  -24.6939 C.ar    1  UNL1        0.0020
     46 C         -71.0977  -55.9007  -23.5762 C.ar    1  UNL1        0.0060
     47 C         -69.7723  -56.2061  -23.2105 C.ar    1  UNL1        0.0226
     48 S         -69.4900  -57.2342  -21.7691 S.3     1  UNL1       -0.1414
     49 C         -68.7343  -55.6715  -23.9974 C.ar    1  UNL1        0.0185
     50 H         -67.8147  -53.8781  -26.5573 H       1  UNL1        0.1660
     51 H         -69.4331  -56.1157  -20.9170 H       1  UNL1        0.1071
@<TRIPOS>BOND
     1     1     2    2
     2     2     3   am
     3     3    28    1
     4    28    39    1
     5    39    40    1
     6    40    41   ar
     7    41    42   ar
     8    42    43   ar
     9    43    44   ar
    10    44    45   ar
    11    45    46   ar
    12    46    47   ar
    13    47    48    1
    14    47    49   ar
    15    28    29    1
    16    29    30    2
    17    29    31   am
    18    31    33    1
    19    33    34   ar
    20    34    35   ar
    21    35    36   ar
    22    36    37   ar
    23    37    38   ar
    24     2     5    1
    25     5     6   ar
    26     6     7   ar
    27     7     8   ar
    28     8    12    1
    29    12    13    1
    30    13    14    1
    31    14    15    1
    32    15    18    1
    33    18    19   ar
    34    19    20   ar
    35    20    21   ar
    36    21    22   ar
    37    22    24    1
    38    24    25    1
    39    24    26    1
    40    24    27    1
    41    22    23   ar
    42    15    16    1
    43    16    17    1
    44     8     9   ar
    45     9    10   ar
    46    10    11    1
    47    49    40   ar
    48    38    33   ar
    49    10     5   ar
    50    49    43   ar
    51    17    12    1
    52    23    18   ar
    53     3     4    1
    54    42    50    1
    55    48    51    1
    56    31    32    1
@<TRIPOS>MOLECULE
*****
 51 56 0 0 0
SMALL
GASTEIGER

@<TRIPOS>ATOM
      1 O         -59.3257  -46.0088  -24.8006 O.2     1  UNL1       -0.2701
      2 C         -60.5381  -46.1440  -25.1224 C.2     1  UNL1        0.2483
      3 N         -61.2213  -45.0736  -25.7930 N.am    1  UNL1       -0.2945
      4 H         -62.1241  -45.2809  -26.2773 H       1  UNL1        0.1501
      5 C         -61.2275  -47.4211  -24.8318 C.ar    1  UNL1        0.0808
      6 C         -62.3985  -47.7520  -25.5322 C.ar    1  UNL1        0.0080
      7 C         -63.0690  -48.9494  -25.2715 C.ar    1  UNL1        0.0148
      8 C         -62.5783  -49.8498  -24.3098 C.ar    1  UNL1        0.0502
      9 C         -61.3940  -49.5273  -23.6242 C.ar    1  UNL1        0.0443
     10 C         -60.7218  -48.3284  -23.8816 C.ar    1  UNL1        0.1457
     11 F         -59.5550  -48.0844  -23.2335 F       1  UNL1       -0.2040
     12 N         -63.2689  -51.0910  -24.0419 N.pl3   1  UNL1       -0.3040
     13 C         -64.2049  -51.6451  -25.0310 C.3     1  UNL1        0.1122
     14 C         -65.3150  -52.4448  -24.3418 C.3     1  UNL1        0.1122
     15 N         -64.7650  -53.4349  -23.4026 N.pl3   1  UNL1       -0.3041
     16 C         -63.3741  -53.3155  -22.9418 C.3     1  UNL1        0.1122
     17 C         -62.9670  -51.8443  -22.8145 C.3     1  UNL1        0.1122
     18 C         -65.5695  -54.5674  -23.0038 C.ar    1  UNL1        0.0479
     19 C         -65.2259  -55.3216  -21.8680 C.ar    1  UNL1        0.0145
     20 C         -65.9950  -56.4237  -21.4903 C.ar    1  UNL1        0.0012
     21 C         -67.1223  -56.7819  -22.2311 C.ar    1  UNL1        0.0039
     22 C         -67.5054  -56.0258  -23.3512 C.ar    1  UNL1        0.0726
     23 C         -66.7107  -54.9337  -23.7434 C.ar    1  UNL1        0.0184
     24 C         -68.6979  -56.4352  -24.1793 C.3     1  UNL1        0.4186
     25 F         -68.3029  -57.2295  -25.2419 F       1  UNL1       -0.1659
     26 F         -69.5785  -57.1478  -23.3871 F       1  UNL1       -0.1659
     27 F         -69.3478  -55.3243  -24.6890 F       1  UNL1       -0.1659
     28 C         -60.6110  -43.7523  -25.9689 C.3     1  UNL1        0.1535
     29 C         -60.5722  -43.3987  -27.4310 C.2     1  UNL1        0.2443
     30 O         -60.8751  -42.2279  -27.7881 O.2     1  UNL1       -0.2730
     31 N         -60.1603  -44.3739  -28.4034 N.am    1  UNL1       -0.2825
     32 H         -59.6546  -45.2225  -28.0625 H       1  UNL1        0.1549
     33 C         -60.3071  -44.2058  -29.8235 C.ar    1  UNL1        0.0535
     34 C         -59.2785  -44.6276  -30.6771 C.ar    1  UNL1        0.0353
     35 C         -59.4259  -44.4883  -32.0591 C.ar    1  UNL1        0.1002
     36 N         -60.5685  -43.9618  -32.5734 N.ar    1  UNL1       -0.2422
     37 C         -61.5915  -43.5625  -31.7725 C.ar    1  UNL1        0.1002
     38 C         -61.4847  -43.6831  -30.3846 C.ar    1  UNL1        0.0353
     39 C         -61.3885  -42.6795  -25.1844 C.3     1  UNL1        0.0569
     40 C         -60.9168  -42.5976  -23.7595 C.ar    1  UNL1       -0.0012
     41 C         -59.6822  -43.0536  -23.3089 C.ar    1  UNL1        0.0681
     42 N         -59.5170  -42.7633  -22.0023 N.ar    1  UNL1       -0.3522
     43 C         -60.6317  -42.1199  -21.6190 C.ar    1  UNL1        0.0568
     44 C         -60.9005  -41.6152  -20.3485 C.ar    1  UNL1        0.0170
     45 C         -62.1232  -40.9589  -20.1440 C.ar    1  UNL1        0.0020
     46 C         -63.0444  -40.8208  -21.2012 C.ar    1  UNL1        0.0060
     47 C         -62.7566  -41.3359  -22.4802 C.ar    1  UNL1        0.0226
     48 S         -63.9743  -41.1437  -23.7818 S.3     1  UNL1       -0.1414
     49 C         -61.5229  -41.9896  -22.6622 C.ar    1  UNL1        0.0185
     50 H         -58.6822  -42.9844  -21.4150 H       1  UNL1        0.1660
     51 H         -64.5874  -42.3693  -23.4616 H       1  UNL1        0.1071
@<TRIPOS>BOND
     1     1     2    2
     2     2     3   am
     3     3    28    1
     4    28    39    1
     5    39    40    1
     6    40    41   ar
     7    41    42   ar
     8    42    43   ar
     9    43    44   ar
    10    44    45   ar
    11    45    46   ar
    12    46    47   ar
    13    47    48    1
    14    47    49   ar
    15    28    29    1
    16    29    30    2
    17    29    31   am
    18    31    33    1
    19    33    34   ar
    20    34    35   ar
    21    35    36   ar
    22    36    37   ar
    23    37    38   ar
    24     2     5    1
    25     5     6   ar
    26     6     7   ar
    27     7     8   ar
    28     8    12    1
    29    12    13    1
    30    13    14    1
    31    14    15    1
    32    15    18    1
    33    18    19   ar
    34    19    20   ar
    35    20    21   ar
    36    21    22   ar
    37    22    24    1
    38    24    25    1
    39    24    26    1
    40    24    27    1
    41    22    23   ar
    42    15    16    1
    43    16    17    1
    44     8     9   ar
    45     9    10   ar
    46    10    11    1
    47    49    40   ar
    48    38    33   ar
    49    10     5   ar
    50    49    43   ar
    51    17    12    1
    52    23    18   ar
    53     3     4    1
    54    42    50    1
    55    48    51    1
    56    31    32    1
@<TRIPOS>MOLECULE
*****
 51 56 0 0 0
SMALL
GASTEIGER

@<TRIPOS>ATOM
      1 O         -60.0919  -46.3660  -25.0689 O.2     1  UNL1       -0.2701
      2 C         -60.9704  -46.9048  -25.7968 C.2     1  UNL1        0.2483
      3 N         -61.2590  -46.3544  -27.0914 N.am    1  UNL1       -0.2945
      4 H         -61.7859  -46.9399  -27.7787 H       1  UNL1        0.1501
      5 C         -61.6664  -48.1189  -25.3150 C.ar    1  UNL1        0.0808
      6 C         -61.0037  -48.9984  -24.4438 C.ar    1  UNL1        0.0080
      7 C         -61.6388  -50.1529  -23.9799 C.ar    1  UNL1        0.0148
      8 C         -62.9564  -50.4506  -24.3691 C.ar    1  UNL1        0.0502
      9 C         -63.6265  -49.5583  -25.2245 C.ar    1  UNL1        0.0443
     10 C         -62.9926  -48.4029  -25.6921 C.ar    1  UNL1        0.1457
     11 F         -63.6965  -47.5453  -26.4731 F       1  UNL1       -0.2040
     12 N         -63.6160  -51.6428  -23.8867 N.pl3   1  UNL1       -0.3040
     13 C         -64.6781  -52.2743  -24.6835 C.3     1  UNL1        0.1122
     14 C         -65.6949  -52.9753  -23.7772 C.3     1  UNL1        0.1122
     15 N         -65.0349  -53.8764  -22.8195 N.pl3   1  UNL1       -0.3041
     16 C         -63.5946  -53.7410  -22.5575 C.3     1  UNL1        0.1122
     17 C         -63.1622  -52.2736  -22.6373 C.3     1  UNL1        0.1122
     18 C         -65.7895  -54.9447  -22.2046 C.ar    1  UNL1        0.0479
     19 C         -65.8705  -56.2064  -22.8198 C.ar    1  UNL1        0.0145
     20 C         -66.6103  -57.2344  -22.2329 C.ar    1  UNL1        0.0012
     21 C         -67.2690  -57.0235  -21.0207 C.ar    1  UNL1        0.0039
     22 C         -67.1775  -55.7822  -20.3696 C.ar    1  UNL1        0.0726
     23 C         -66.4541  -54.7417  -20.9796 C.ar    1  UNL1        0.0184
     24 C         -67.9231  -55.5370  -19.0814 C.3     1  UNL1        0.4186
     25 F         -67.0540  -55.5584  -18.0043 F       1  UNL1       -0.1659
     26 F         -68.5375  -54.3001  -19.1401 F       1  UNL1       -0.1659
     27 F         -68.8868  -56.5097  -18.8779 F       1  UNL1       -0.1659
     28 C         -60.6907  -45.0788  -27.5374 C.3     1  UNL1        0.1535
     29 C         -60.3748  -45.1469  -29.0069 C.2     1  UNL1        0.2443
     30 O         -59.4940  -45.9545  -29.4092 O.2     1  UNL1       -0.2730
     31 N         -61.0941  -44.3269  -29.9432 N.am    1  UNL1       -0.2825
     32 H         -61.9889  -43.8904  -29.6258 H       1  UNL1        0.1549
     33 C         -60.7147  -44.1546  -31.3190 C.ar    1  UNL1        0.0535
     34 C         -61.6118  -43.5505  -32.2105 C.ar    1  UNL1        0.0353
     35 C         -61.2393  -43.3592  -33.5431 C.ar    1  UNL1        0.1002
     36 N         -60.0064  -43.7419  -33.9682 N.ar    1  UNL1       -0.2422
     37 C         -59.1074  -44.3119  -33.1229 C.ar    1  UNL1        0.1002
     38 C         -59.4400  -44.5224  -31.7823 C.ar    1  UNL1        0.0353
     39 C         -61.6618  -43.9172  -27.2571 C.3     1  UNL1        0.0569
     40 C         -62.9375  -44.0733  -28.0369 C.ar    1  UNL1       -0.0012
     41 C         -63.7504  -45.2016  -28.0034 C.ar    1  UNL1        0.0681
     42 N         -64.8630  -45.0072  -28.7403 N.ar    1  UNL1       -0.3522
     43 C         -64.7695  -43.7626  -29.2362 C.ar    1  UNL1        0.0568
     44 C         -65.7038  -43.1229  -30.0479 C.ar    1  UNL1        0.0170
     45 C         -65.4325  -41.8091  -30.4578 C.ar    1  UNL1        0.0020
     46 C         -64.2457  -41.1662  -30.0533 C.ar    1  UNL1        0.0060
     47 C         -63.3120  -41.8269  -29.2314 C.ar    1  UNL1        0.0226
     48 S         -61.8124  -40.9635  -28.7623 S.3     1  UNL1       -0.1414
     49 C         -63.6060  -43.1445  -28.8314 C.ar    1  UNL1        0.0185
     50 H         -65.6438  -45.6861  -28.8821 H       1  UNL1        0.1660
     51 H         -61.1183  -41.4492  -29.8860 H       1  UNL1        0.1071
@<TRIPOS>BOND
     1     1     2    2
     2     2     3   am
     3     3    28    1
     4    28    39    1
     5    39    40    1
     6    40    41   ar
     7    41    42   ar
     8    42    43   ar
     9    43    44   ar
    10    44    45   ar
    11    45    46   ar
    12    46    47   ar
    13    47    48    1
    14    47    49   ar
    15    28    29    1
    16    29    30    2
    17    29    31   am
    18    31    33    1
    19    33    34   ar
    20    34    35   ar
    21    35    36   ar
    22    36    37   ar
    23    37    38   ar
    24     2     5    1
    25     5     6   ar
    26     6     7   ar
    27     7     8   ar
    28     8    12    1
    29    12    13    1
    30    13    14    1
    31    14    15    1
    32    15    18    1
    33    18    19   ar
    34    19    20   ar
    35    20    21   ar
    36    21    22   ar
    37    22    24    1
    38    24    25    1
    39    24    26    1
    40    24    27    1
    41    22    23   ar
    42    15    16    1
    43    16    17    1
    44     8     9   ar
    45     9    10   ar
    46    10    11    1
    47    49    40   ar
    48    38    33   ar
    49    10     5   ar
    50    49    43   ar
    51    17    12    1
    52    23    18   ar
    53     3     4    1
    54    42    50    1
    55    48    51    1
    56    31    32    1
@<TRIPOS>MOLECULE
*****
 51 56 0 0 0
SMALL
GASTEIGER

@<TRIPOS>ATOM
      1 O         -59.9936  -46.5580  -26.4988 O.2     1  UNL1       -0.2701
      2 C         -61.0567  -46.4935  -25.8225 C.2     1  UNL1        0.2483
      3 N         -61.6404  -45.2139  -25.5321 N.am    1  UNL1       -0.2945
      4 H         -62.6323  -45.1783  -25.2045 H       1  UNL1        0.1501
      5 C         -61.7038  -47.7445  -25.3675 C.ar    1  UNL1        0.0808
      6 C         -61.0396  -48.5748  -24.4505 C.ar    1  UNL1        0.0080
      7 C         -61.6284  -49.7627  -24.0105 C.ar    1  UNL1        0.0148
      8 C         -62.9010  -50.1439  -24.4703 C.ar    1  UNL1        0.0502
      9 C         -63.5743  -49.3012  -25.3721 C.ar    1  UNL1        0.0443
     10 C         -62.9864  -48.1125  -25.8158 C.ar    1  UNL1        0.1457
     11 F         -63.6956  -47.3058  -26.6449 F       1  UNL1       -0.2040
     12 N         -63.5132  -51.3708  -24.0129 N.pl3   1  UNL1       -0.3040
     13 C         -64.5095  -52.0567  -24.8486 C.3     1  UNL1        0.1122
     14 C         -65.5201  -52.8131  -23.9807 C.3     1  UNL1        0.1122
     15 N         -64.8487  -53.6795  -22.9992 N.pl3   1  UNL1       -0.3041
     16 C         -63.4284  -53.4676  -22.6839 C.3     1  UNL1        0.1122
     17 C         -63.0728  -51.9789  -22.7475 C.3     1  UNL1        0.1122
     18 C         -65.5671  -54.7880  -22.4128 C.ar    1  UNL1        0.0479
     19 C         -65.5674  -56.0478  -23.0371 C.ar    1  UNL1        0.0145
     20 C         -66.2724  -57.1152  -22.4781 C.ar    1  UNL1        0.0012
     21 C         -66.9760  -56.9455  -21.2847 C.ar    1  UNL1        0.0039
     22 C         -66.9652  -55.7058  -20.6244 C.ar    1  UNL1        0.0726
     23 C         -66.2767  -54.6266  -21.2070 C.ar    1  UNL1        0.0184
     24 C         -67.7595  -55.5066  -19.3576 C.3     1  UNL1        0.4186
     25 F         -66.9396  -55.6119  -18.2473 F       1  UNL1       -0.1659
     26 F         -68.3354  -54.2500  -19.3749 F       1  UNL1       -0.1659
     27 F         -68.7585  -56.4587  -19.2484 F       1  UNL1       -0.1659
     28 C         -60.9534  -43.9576  -25.8467 C.3     1  UNL1        0.1535
     29 C         -61.0862  -43.6572  -27.3151 C.2     1  UNL1        0.2443
     30 O         -62.0283  -42.9168  -27.7079 O.2     1  UNL1       -0.2730
     31 N         -60.1295  -44.1789  -28.2526 N.am    1  UNL1       -0.2825
     32 H         -59.2234  -44.5405  -27.8781 H       1  UNL1        0.1549
     33 C         -60.2972  -44.1387  -29.6797 C.ar    1  UNL1        0.0535
     34 C         -59.2705  -44.6130  -30.5076 C.ar    1  UNL1        0.0353
     35 C         -59.4377  -44.5981  -31.8943 C.ar    1  UNL1        0.1002
     36 N         -60.5973  -44.1415  -32.4365 N.ar    1  UNL1       -0.2422
     37 C         -61.6187  -43.6939  -31.6592 C.ar    1  UNL1        0.1002
     38 C         -61.4923  -43.6906  -30.2677 C.ar    1  UNL1        0.0353
     39 C         -61.5255  -42.7956  -25.0139 C.3     1  UNL1        0.0569
     40 C         -60.9178  -42.7594  -23.6395 C.ar    1  UNL1       -0.0012
     41 C         -59.6693  -43.2796  -23.3141 C.ar    1  UNL1        0.0681
     42 N         -59.3676  -43.0190  -22.0258 N.ar    1  UNL1       -0.3522
     43 C         -60.4091  -42.3310  -21.5303 C.ar    1  UNL1        0.0568
     44 C         -60.5320  -41.8356  -20.2339 C.ar    1  UNL1        0.0170
     45 C         -61.6972  -41.1267  -19.9059 C.ar    1  UNL1        0.0020
     46 C         -62.7066  -40.9284  -20.8689 C.ar    1  UNL1        0.0060
     47 C         -62.5660  -41.4350  -22.1756 C.ar    1  UNL1        0.0226
     48 S         -63.8908  -41.1650  -23.3529 S.3     1  UNL1       -0.1414
     49 C         -61.3876  -42.1422  -22.4822 C.ar    1  UNL1        0.0185
     50 H         -58.4925  -43.2884  -21.5234 H       1  UNL1        0.1660
     51 H         -64.5287  -42.3659  -22.9906 H       1  UNL1        0.1071
@<TRIPOS>BOND
     1     1     2    2
     2     2     3   am
     3     3    28    1
     4    28    39    1
     5    39    40    1
     6    40    41   ar
     7    41    42   ar
     8    42    43   ar
     9    43    44   ar
    10    44    45   ar
    11    45    46   ar
    12    46    47   ar
    13    47    48    1
    14    47    49   ar
    15    28    29    1
    16    29    30    2
    17    29    31   am
    18    31    33    1
    19    33    34   ar
    20    34    35   ar
    21    35    36   ar
    22    36    37   ar
    23    37    38   ar
    24     2     5    1
    25     5     6   ar
    26     6     7   ar
    27     7     8   ar
    28     8    12    1
    29    12    13    1
    30    13    14    1
    31    14    15    1
    32    15    18    1
    33    18    19   ar
    34    19    20   ar
    35    20    21   ar
    36    21    22   ar
    37    22    24    1
    38    24    25    1
    39    24    26    1
    40    24    27    1
    41    22    23   ar
    42    15    16    1
    43    16    17    1
    44     8     9   ar
    45     9    10   ar
    46    10    11    1
    47    49    40   ar
    48    38    33   ar
    49    10     5   ar
    50    49    43   ar
    51    17    12    1
    52    23    18   ar
    53     3     4    1
    54    42    50    1
    55    48    51    1
    56    31    32    1
@<TRIPOS>MOLECULE
*****
 51 56 0 0 0
SMALL
GASTEIGER

@<TRIPOS>ATOM
      1 O         -60.6485  -45.7552  -23.1659 O.2     1  UNL1       -0.2701
      2 C         -61.6427  -45.1645  -23.6701 C.2     1  UNL1        0.2483
      3 N         -62.2687  -45.6997  -24.8465 N.am    1  UNL1       -0.2945
      4 H         -63.2245  -45.3630  -25.1029 H       1  UNL1        0.1501
      5 C         -62.1687  -43.9444  -23.0180 C.ar    1  UNL1        0.0808
      6 C         -62.4266  -43.9521  -21.6378 C.ar    1  UNL1        0.0080
      7 C         -62.9278  -42.8140  -21.0014 C.ar    1  UNL1        0.0148
      8 C         -63.1741  -41.6369  -21.7295 C.ar    1  UNL1        0.0502
      9 C         -62.8954  -41.6236  -23.1075 C.ar    1  UNL1        0.0443
     10 C         -62.3956  -42.7620  -23.7475 C.ar    1  UNL1        0.1457
     11 F         -62.0925  -42.6859  -25.0678 F       1  UNL1       -0.2040
     12 N         -63.6889  -40.4573  -21.0716 N.pl3   1  UNL1       -0.3040
     13 C         -65.0657  -40.4393  -20.5561 C.3     1  UNL1        0.1122
     14 C         -65.6437  -39.0212  -20.5966 C.3     1  UNL1        0.1122
     15 N         -64.7414  -38.0509  -19.9568 N.pl3   1  UNL1       -0.3041
     16 C         -63.3333  -38.4026  -19.7220 C.3     1  UNL1        0.1122
     17 C         -62.8036  -39.3050  -20.8407 C.3     1  UNL1        0.1122
     18 C         -65.2649  -36.7887  -19.4860 C.ar    1  UNL1        0.0479
     19 C         -64.4395  -35.8907  -18.7865 C.ar    1  UNL1        0.0145
     20 C         -64.9483  -34.6775  -18.3199 C.ar    1  UNL1        0.0012
     21 C         -66.2815  -34.3373  -18.5539 C.ar    1  UNL1        0.0039
     22 C         -67.1184  -35.2024  -19.2780 C.ar    1  UNL1        0.0726
     23 C         -66.6079  -36.4358  -19.7209 C.ar    1  UNL1        0.0184
     24 C         -68.5707  -34.8579  -19.4954 C.3     1  UNL1        0.4186
     25 F         -69.3391  -36.0073  -19.5609 F       1  UNL1       -0.1659
     26 F         -69.0153  -34.0780  -18.4442 F       1  UNL1       -0.1659
     27 F         -68.7388  -34.1583  -20.6781 F       1  UNL1       -0.1659
     28 C         -61.6897  -46.8211  -25.5925 C.3     1  UNL1        0.1535
     29 C         -62.0463  -48.1193  -24.9205 C.2     1  UNL1        0.2443
     30 O         -63.2329  -48.3073  -24.5378 O.2     1  UNL1       -0.2730
     31 N         -61.0541  -49.1455  -24.7501 N.am    1  UNL1       -0.2825
     32 H         -60.1783  -49.0791  -25.3163 H       1  UNL1        0.1549
     33 C         -61.2352  -50.3113  -23.9288 C.ar    1  UNL1        0.0535
     34 C         -60.1127  -50.9597  -23.3960 C.ar    1  UNL1        0.0353
     35 C         -60.2840  -52.0790  -22.5780 C.ar    1  UNL1        0.1002
     36 N         -61.5341  -52.5260  -22.2870 N.ar    1  UNL1       -0.2422
     37 C         -62.6424  -51.9064  -22.7722 C.ar    1  UNL1        0.1002
     38 C         -62.5157  -50.7844  -23.5950 C.ar    1  UNL1        0.0353
     39 C         -62.1854  -46.8251  -27.0503 C.3     1  UNL1        0.0569
     40 C         -61.1643  -46.2230  -27.9747 C.ar    1  UNL1       -0.0012
     41 C         -59.7952  -46.4577  -27.8994 C.ar    1  UNL1        0.0681
     42 N         -59.1521  -45.8463  -28.9149 N.ar    1  UNL1       -0.3522
     43 C         -60.1001  -45.2309  -29.6404 C.ar    1  UNL1        0.0568
     44 C         -59.9004  -44.4831  -30.7988 C.ar    1  UNL1        0.0170
     45 C         -61.0241  -43.9249  -31.4260 C.ar    1  UNL1        0.0020
     46 C         -62.3122  -44.1222  -30.8898 C.ar    1  UNL1        0.0060
     47 C         -62.4967  -44.8821  -29.7183 C.ar    1  UNL1        0.0226
     48 S         -64.1575  -45.0853  -29.0743 S.3     1  UNL1       -0.1414
     49 C         -61.3546  -45.4336  -29.1067 C.ar    1  UNL1        0.0185
     50 H         -58.1249  -45.8627  -29.1026 H       1  UNL1        0.1660
     51 H         -64.0437  -43.9350  -28.2716 H       1  UNL1        0.1071
@<TRIPOS>BOND
     1     1     2    2
     2     2     3   am
     3     3    28    1
     4    28    39    1
     5    39    40    1
     6    40    41   ar
     7    41    42   ar
     8    42    43   ar
     9    43    44   ar
    10    44    45   ar
    11    45    46   ar
    12    46    47   ar
    13    47    48    1
    14    47    49   ar
    15    28    29    1
    16    29    30    2
    17    29    31   am
    18    31    33    1
    19    33    34   ar
    20    34    35   ar
    21    35    36   ar
    22    36    37   ar
    23    37    38   ar
    24     2     5    1
    25     5     6   ar
    26     6     7   ar
    27     7     8   ar
    28     8    12    1
    29    12    13    1
    30    13    14    1
    31    14    15    1
    32    15    18    1
    33    18    19   ar
    34    19    20   ar
    35    20    21   ar
    36    21    22   ar
    37    22    24    1
    38    24    25    1
    39    24    26    1
    40    24    27    1
    41    22    23   ar
    42    15    16    1
    43    16    17    1
    44     8     9   ar
    45     9    10   ar
    46    10    11    1
    47    49    40   ar
    48    38    33   ar
    49    10     5   ar
    50    49    43   ar
    51    17    12    1
    52    23    18   ar
    53     3     4    1
    54    42    50    1
    55    48    51    1
    56    31    32    1
@<TRIPOS>MOLECULE
*****
 51 56 0 0 0
SMALL
GASTEIGER

@<TRIPOS>ATOM
      1 O         -60.4862  -46.5183  -23.5886 O.2     1  UNL1       -0.2701
      2 C         -61.4175  -45.8882  -24.1608 C.2     1  UNL1        0.2483
      3 N         -61.9284  -46.3576  -25.4182 N.am    1  UNL1       -0.2945
      4 H         -62.8494  -45.9934  -25.7523 H       1  UNL1        0.1501
      5 C         -61.9917  -44.6910  -23.5068 C.ar    1  UNL1        0.0808
      6 C         -62.3801  -44.7563  -22.1591 C.ar    1  UNL1        0.0080
      7 C         -62.9289  -43.6407  -21.5221 C.ar    1  UNL1        0.0148
      8 C         -63.0936  -42.4293  -22.2161 C.ar    1  UNL1        0.0502
      9 C         -62.6847  -42.3588  -23.5594 C.ar    1  UNL1        0.0443
     10 C         -62.1369  -43.4745  -24.2001 C.ar    1  UNL1        0.1457
     11 F         -61.7085  -43.3442  -25.4810 F       1  UNL1       -0.2040
     12 N         -63.6576  -41.2730  -21.5571 N.pl3   1  UNL1       -0.3040
     13 C         -65.0423  -41.3049  -21.0640 C.3     1  UNL1        0.1122
     14 C         -65.6662  -39.9063  -21.1023 C.3     1  UNL1        0.1122
     15 N         -64.8068  -38.9124  -20.4401 N.pl3   1  UNL1       -0.3041
     16 C         -63.3919  -39.2194  -20.1853 C.3     1  UNL1        0.1122
     17 C         -62.8147  -40.0942  -21.3025 C.3     1  UNL1        0.1122
     18 C         -65.3793  -37.6722  -19.9677 C.ar    1  UNL1        0.0479
     19 C         -66.6549  -37.2661  -20.3977 C.ar    1  UNL1        0.0145
     20 C         -67.2024  -36.0618  -19.9522 C.ar    1  UNL1        0.0012
     21 C         -66.4926  -35.2523  -19.0641 C.ar    1  UNL1        0.0039
     22 C         -65.2301  -35.6507  -18.5943 C.ar    1  UNL1        0.0726
     23 C         -64.6716  -36.8511  -19.0686 C.ar    1  UNL1        0.0184
     24 C         -64.4416  -34.7582  -17.6685 C.3     1  UNL1        0.4186
     25 F         -63.0913  -34.8196  -17.9663 F       1  UNL1       -0.1659
     26 F         -64.8764  -33.4542  -17.8145 F       1  UNL1       -0.1659
     27 F         -64.6109  -35.1447  -16.3500 F       1  UNL1       -0.1659
     28 C         -61.2908  -47.4527  -26.1554 C.3     1  UNL1        0.1535
     29 C         -61.6430  -48.7696  -25.5185 C.2     1  UNL1        0.2443
     30 O         -62.7484  -49.3095  -25.7948 O.2     1  UNL1       -0.2730
     31 N         -60.7146  -49.4202  -24.6345 N.am    1  UNL1       -0.2825
     32 H         -59.7195  -49.1015  -24.6482 H       1  UNL1        0.1549
     33 C         -61.0458  -50.5502  -23.8100 C.ar    1  UNL1        0.0535
     34 C         -60.0238  -51.3958  -23.3574 C.ar    1  UNL1        0.0353
     35 C         -60.3373  -52.4817  -22.5365 C.ar    1  UNL1        0.1002
     36 N         -61.6253  -52.7063  -22.1651 N.ar    1  UNL1       -0.2422
     37 C         -62.6353  -51.8924  -22.5713 C.ar    1  UNL1        0.1002
     38 C         -62.3655  -50.7959  -23.3941 C.ar    1  UNL1        0.0353
     39 C         -61.7245  -47.4455  -27.6328 C.3     1  UNL1        0.0569
     40 C         -60.9283  -46.4499  -28.4296 C.ar    1  UNL1       -0.0012
     41 C         -59.5397  -46.3672  -28.4287 C.ar    1  UNL1        0.0681
     42 N         -59.1192  -45.4333  -29.3059 N.ar    1  UNL1       -0.3522
     43 C         -60.2270  -44.9262  -29.8709 C.ar    1  UNL1        0.0568
     44 C         -60.2776  -43.9381  -30.8518 C.ar    1  UNL1        0.0170
     45 C         -61.5369  -43.5460  -31.3295 C.ar    1  UNL1        0.0020
     46 C         -62.7091  -44.1421  -30.8236 C.ar    1  UNL1        0.0060
     47 C         -62.6403  -45.1407  -29.8327 C.ar    1  UNL1        0.0226
     48 S         -64.1665  -45.8511  -29.2161 S.3     1  UNL1       -0.1414
     49 C         -61.3656  -45.5189  -29.3692 C.ar    1  UNL1        0.0185
     50 H         -58.1293  -45.1709  -29.5109 H       1  UNL1        0.1660
     51 H         -64.2632  -44.8887  -28.1939 H       1  UNL1        0.1071
@<TRIPOS>BOND
     1     1     2    2
     2     2     3   am
     3     3    28    1
     4    28    39    1
     5    39    40    1
     6    40    41   ar
     7    41    42   ar
     8    42    43   ar
     9    43    44   ar
    10    44    45   ar
    11    45    46   ar
    12    46    47   ar
    13    47    48    1
    14    47    49   ar
    15    28    29    1
    16    29    30    2
    17    29    31   am
    18    31    33    1
    19    33    34   ar
    20    34    35   ar
    21    35    36   ar
    22    36    37   ar
    23    37    38   ar
    24     2     5    1
    25     5     6   ar
    26     6     7   ar
    27     7     8   ar
    28     8    12    1
    29    12    13    1
    30    13    14    1
    31    14    15    1
    32    15    18    1
    33    18    19   ar
    34    19    20   ar
    35    20    21   ar
    36    21    22   ar
    37    22    24    1
    38    24    25    1
    39    24    26    1
    40    24    27    1
    41    22    23   ar
    42    15    16    1
    43    16    17    1
    44     8     9   ar
    45     9    10   ar
    46    10    11    1
    47    49    40   ar
    48    38    33   ar
    49    10     5   ar
    50    49    43   ar
    51    17    12    1
    52    23    18   ar
    53     3     4    1
    54    42    50    1
    55    48    51    1
    56    31    32    1
@<TRIPOS>MOLECULE
*****
 51 56 0 0 0
SMALL
GASTEIGER

@<TRIPOS>ATOM
      1 O         -60.3044  -44.6712  -24.5601 O.2     1  UNL1       -0.2701
      2 C         -61.3346  -44.0382  -24.9205 C.2     1  UNL1        0.2483
      3 N         -61.9868  -44.3807  -26.1533 N.am    1  UNL1       -0.2945
      4 H         -62.9614  -44.0398  -26.3161 H       1  UNL1        0.1501
      5 C         -61.8737  -42.9724  -24.0464 C.ar    1  UNL1        0.0808
      6 C         -63.0980  -42.3651  -24.3680 C.ar    1  UNL1        0.0080
      7 C         -63.6241  -41.3538  -23.5606 C.ar    1  UNL1        0.0148
      8 C         -62.9421  -40.9321  -22.4060 C.ar    1  UNL1        0.0502
      9 C         -61.7267  -41.5557  -22.0732 C.ar    1  UNL1        0.0443
     10 C         -61.1967  -42.5669  -22.8807 C.ar    1  UNL1        0.1457
     11 F         -60.0481  -43.1754  -22.4915 F       1  UNL1       -0.2040
     12 N         -63.4872  -39.8886  -21.5675 N.pl3   1  UNL1       -0.3040
     13 C         -64.7963  -40.0664  -20.9222 C.3     1  UNL1        0.1122
     14 C         -65.5009  -38.7184  -20.7398 C.3     1  UNL1        0.1122
     15 N         -64.6261  -37.7356  -20.0813 N.pl3   1  UNL1       -0.3041
     16 C         -63.1750  -37.9650  -20.0272 C.3     1  UNL1        0.1122
     17 C         -62.6899  -38.6834  -21.2902 C.3     1  UNL1        0.1122
     18 C         -65.2075  -36.5911  -19.4172 C.ar    1  UNL1        0.0479
     19 C         -64.4526  -35.8395  -18.4996 C.ar    1  UNL1        0.0145
     20 C         -65.0181  -34.7421  -17.8479 C.ar    1  UNL1        0.0012
     21 C         -66.3380  -34.3718  -18.1100 C.ar    1  UNL1        0.0039
     22 C         -67.1033  -35.0865  -19.0463 C.ar    1  UNL1        0.0726
     23 C         -66.5374  -36.2082  -19.6786 C.ar    1  UNL1        0.0184
     24 C         -68.5432  -34.7159  -19.3002 C.3     1  UNL1        0.4186
     25 F         -69.0338  -33.9339  -18.2688 F       1  UNL1       -0.1659
     26 F         -68.6282  -34.0061  -20.4834 F       1  UNL1       -0.1659
     27 F         -69.3333  -35.8486  -19.3965 F       1  UNL1       -0.1659
     28 C         -61.4013  -45.3309  -27.1039 C.3     1  UNL1        0.1535
     29 C         -61.6839  -46.7395  -26.6568 C.2     1  UNL1        0.2443
     30 O         -61.6866  -47.6665  -27.5116 O.2     1  UNL1       -0.2730
     31 N         -61.9122  -47.0286  -25.2673 N.am    1  UNL1       -0.2825
     32 H         -61.6286  -46.3094  -24.5642 H       1  UNL1        0.1549
     33 C         -62.4090  -48.2857  -24.7781 C.ar    1  UNL1        0.0535
     34 C         -63.7253  -48.6674  -25.0715 C.ar    1  UNL1        0.0353
     35 C         -64.2057  -49.8984  -24.6187 C.ar    1  UNL1        0.1002
     36 N         -63.3945  -50.7287  -23.9117 N.ar    1  UNL1       -0.2422
     37 C         -62.1075  -50.3953  -23.6287 C.ar    1  UNL1        0.1002
     38 C         -61.5876  -49.1728  -24.0618 C.ar    1  UNL1        0.0353
     39 C         -61.9578  -45.1027  -28.5213 C.3     1  UNL1        0.0569
     40 C         -60.8486  -44.9717  -29.5275 C.ar    1  UNL1       -0.0012
     41 C         -59.5660  -45.4834  -29.3601 C.ar    1  UNL1        0.0681
     42 N         -58.8251  -45.2796  -30.4684 N.ar    1  UNL1       -0.3522
     43 C         -59.6268  -44.6498  -31.3426 C.ar    1  UNL1        0.0568
     44 C         -59.2905  -44.2501  -32.6343 C.ar    1  UNL1        0.0170
     45 C         -60.2740  -43.6127  -33.4051 C.ar    1  UNL1        0.0020
     46 C         -61.5609  -43.3890  -32.8766 C.ar    1  UNL1        0.0060
     47 C         -61.8849  -43.8005  -31.5691 C.ar    1  UNL1        0.0226
     48 S         -63.5338  -43.4744  -30.9456 S.3     1  UNL1       -0.1414
     49 C         -60.8823  -44.4393  -30.8145 C.ar    1  UNL1        0.0185
     50 H         -57.8324  -45.5680  -30.6168 H       1  UNL1        0.1660
     51 H         -63.1463  -42.2268  -30.4222 H       1  UNL1        0.1071
@<TRIPOS>BOND
     1     1     2    2
     2     2     3   am
     3     3    28    1
     4    28    39    1
     5    39    40    1
     6    40    41   ar
     7    41    42   ar
     8    42    43   ar
     9    43    44   ar
    10    44    45   ar
    11    45    46   ar
    12    46    47   ar
    13    47    48    1
    14    47    49   ar
    15    28    29    1
    16    29    30    2
    17    29    31   am
    18    31    33    1
    19    33    34   ar
    20    34    35   ar
    21    35    36   ar
    22    36    37   ar
    23    37    38   ar
    24     2     5    1
    25     5     6   ar
    26     6     7   ar
    27     7     8   ar
    28     8    12    1
    29    12    13    1
    30    13    14    1
    31    14    15    1
    32    15    18    1
    33    18    19   ar
    34    19    20   ar
    35    20    21   ar
    36    21    22   ar
    37    22    24    1
    38    24    25    1
    39    24    26    1
    40    24    27    1
    41    22    23   ar
    42    15    16    1
    43    16    17    1
    44     8     9   ar
    45     9    10   ar
    46    10    11    1
    47    49    40   ar
    48    38    33   ar
    49    10     5   ar
    50    49    43   ar
    51    17    12    1
    52    23    18   ar
    53     3     4    1
    54    42    50    1
    55    48    51    1
    56    31    32    1
@<TRIPOS>MOLECULE
*****
 51 56 0 0 0
SMALL
GASTEIGER

@<TRIPOS>ATOM
      1 O         -60.7236  -47.2183  -24.8186 O.2     1  UNL1       -0.2701
      2 C         -61.7316  -46.4972  -25.0548 C.2     1  UNL1        0.2483
      3 N         -62.7262  -46.9458  -25.9885 N.am    1  UNL1       -0.2945
      4 H         -63.6620  -46.4803  -25.9861 H       1  UNL1        0.1501
      5 C         -61.8880  -45.2122  -24.3372 C.ar    1  UNL1        0.0808
      6 C         -62.1057  -44.0325  -25.0669 C.ar    1  UNL1        0.0080
      7 C         -62.2514  -42.8075  -24.4116 C.ar    1  UNL1        0.0148
      8 C         -62.1923  -42.7345  -23.0090 C.ar    1  UNL1        0.0502
      9 C         -61.9956  -43.9194  -22.2782 C.ar    1  UNL1        0.0443
     10 C         -61.8474  -45.1468  -22.9315 C.ar    1  UNL1        0.1457
     11 F         -61.7121  -46.2703  -22.1829 F       1  UNL1       -0.2040
     12 N         -62.3469  -41.4682  -22.3295 N.pl3   1  UNL1       -0.3040
     13 C         -63.6874  -40.9057  -22.1093 C.3     1  UNL1        0.1122
     14 C         -63.6390  -39.3747  -22.0910 C.3     1  UNL1        0.1122
     15 N         -62.6102  -38.8770  -21.1643 N.pl3   1  UNL1       -0.3041
     16 C         -61.5505  -39.7795  -20.6912 C.3     1  UNL1        0.1122
     17 C         -61.1650  -40.7849  -21.7807 C.3     1  UNL1        0.1122
     18 C         -62.6958  -37.5260  -20.6580 C.ar    1  UNL1        0.0479
     19 C         -61.7341  -36.5664  -21.0202 C.ar    1  UNL1        0.0145
     20 C         -61.8088  -35.2651  -20.5206 C.ar    1  UNL1        0.0012
     21 C         -62.8481  -34.8991  -19.6639 C.ar    1  UNL1        0.0039
     22 C         -63.8395  -35.8300  -19.3124 C.ar    1  UNL1        0.0726
     23 C         -63.7432  -37.1471  -19.7961 C.ar    1  UNL1        0.0184
     24 C         -64.9397  -35.4505  -18.3528 C.3     1  UNL1        0.4186
     25 F         -65.8827  -34.6567  -18.9827 F       1  UNL1       -0.1659
     26 F         -65.5545  -36.5984  -17.8889 F       1  UNL1       -0.1659
     27 F         -64.4315  -34.7448  -17.2757 F       1  UNL1       -0.1659
     28 C         -62.5324  -48.1409  -26.8152 C.3     1  UNL1        0.1535
     29 C         -62.6182  -49.3741  -25.9573 C.2     1  UNL1        0.2443
     30 O         -63.6792  -50.0554  -25.9653 O.2     1  UNL1       -0.2730
     31 N         -61.4914  -49.7890  -25.1670 N.am    1  UNL1       -0.2825
     32 H         -60.5568  -49.3800  -25.3936 H       1  UNL1        0.1549
     33 C         -61.5502  -50.8078  -24.1546 C.ar    1  UNL1        0.0535
     34 C         -60.3601  -51.3704  -23.6736 C.ar    1  UNL1        0.0353
     35 C         -60.4102  -52.3439  -22.6730 C.ar    1  UNL1        0.1002
     36 N         -61.6066  -52.7305  -22.1571 N.ar    1  UNL1       -0.2422
     37 C         -62.7762  -52.1889  -22.5887 C.ar    1  UNL1        0.1002
     38 C         -62.7710  -51.2132  -23.5888 C.ar    1  UNL1        0.0353
     39 C         -63.5799  -48.2049  -27.9419 C.3     1  UNL1        0.0569
     40 C         -63.6405  -46.9103  -28.7036 C.ar    1  UNL1       -0.0012
     41 C         -62.9369  -45.7598  -28.3627 C.ar    1  UNL1        0.0681
     42 N         -63.1313  -44.7940  -29.2837 N.ar    1  UNL1       -0.3522
     43 C         -63.9459  -45.3219  -30.2118 C.ar    1  UNL1        0.0568
     44 C         -64.4080  -44.6888  -31.3637 C.ar    1  UNL1        0.0170
     45 C         -65.2469  -45.4130  -32.2236 C.ar    1  UNL1        0.0020
     46 C         -65.6044  -46.7416  -31.9197 C.ar    1  UNL1        0.0060
     47 C         -65.1276  -47.3673  -30.7514 C.ar    1  UNL1        0.0226
     48 S         -65.6295  -49.0542  -30.4097 S.3     1  UNL1       -0.1414
     49 C         -64.2861  -46.6215  -29.9040 C.ar    1  UNL1        0.0185
     50 H         -62.7179  -43.8350  -29.2786 H       1  UNL1        0.1660
     51 H         -66.7563  -48.6274  -29.6825 H       1  UNL1        0.1071
@<TRIPOS>BOND
     1     1     2    2
     2     2     3   am
     3     3    28    1
     4    28    39    1
     5    39    40    1
     6    40    41   ar
     7    41    42   ar
     8    42    43   ar
     9    43    44   ar
    10    44    45   ar
    11    45    46   ar
    12    46    47   ar
    13    47    48    1
    14    47    49   ar
    15    28    29    1
    16    29    30    2
    17    29    31   am
    18    31    33    1
    19    33    34   ar
    20    34    35   ar
    21    35    36   ar
    22    36    37   ar
    23    37    38   ar
    24     2     5    1
    25     5     6   ar
    26     6     7   ar
    27     7     8   ar
    28     8    12    1
    29    12    13    1
    30    13    14    1
    31    14    15    1
    32    15    18    1
    33    18    19   ar
    34    19    20   ar
    35    20    21   ar
    36    21    22   ar
    37    22    24    1
    38    24    25    1
    39    24    26    1
    40    24    27    1
    41    22    23   ar
    42    15    16    1
    43    16    17    1
    44     8     9   ar
    45     9    10   ar
    46    10    11    1
    47    49    40   ar
    48    38    33   ar
    49    10     5   ar
    50    49    43   ar
    51    17    12    1
    52    23    18   ar
    53     3     4    1
    54    42    50    1
    55    48    51    1
    56    31    32    1
@<TRIPOS>MOLECULE
*****
 51 56 0 0 0
SMALL
GASTEIGER

@<TRIPOS>ATOM
      1 O         -62.0191  -41.8741  -19.5701 O.2     1  UNL1       -0.2701
      2 C         -62.5264  -41.2717  -20.5557 C.2     1  UNL1        0.2483
      3 N         -63.4516  -40.1959  -20.3345 N.am    1  UNL1       -0.2945
      4 H         -63.6633  -39.5463  -21.1255 H       1  UNL1        0.1501
      5 C         -62.1313  -41.6640  -21.9271 C.ar    1  UNL1        0.0808
      6 C         -63.0485  -41.5209  -22.9805 C.ar    1  UNL1        0.0080
      7 C         -62.6997  -41.8890  -24.2822 C.ar    1  UNL1        0.0148
      8 C         -61.4208  -42.4006  -24.5630 C.ar    1  UNL1        0.0502
      9 C         -60.4960  -42.5235  -23.5111 C.ar    1  UNL1        0.0443
     10 C         -60.8430  -42.1577  -22.2068 C.ar    1  UNL1        0.1457
     11 F         -59.9010  -42.2446  -21.2342 F       1  UNL1       -0.2040
     12 N         -61.0573  -42.7781  -25.9100 N.pl3   1  UNL1       -0.3040
     13 C         -60.2382  -41.8780  -26.7350 C.3     1  UNL1        0.1122
     14 C         -60.5716  -42.0469  -28.2206 C.3     1  UNL1        0.1122
     15 N         -60.5228  -43.4596  -28.6287 N.pl3   1  UNL1       -0.3041
     16 C         -60.5594  -44.5192  -27.6102 C.3     1  UNL1        0.1122
     17 C         -61.4351  -44.1041  -26.4238 C.3     1  UNL1        0.1122
     18 C         -60.3540  -43.7964  -30.0240 C.ar    1  UNL1        0.0479
     19 C         -59.2267  -44.5198  -30.4517 C.ar    1  UNL1        0.0145
     20 C         -59.0567  -44.8336  -31.8012 C.ar    1  UNL1        0.0012
     21 C         -60.0119  -44.4419  -32.7403 C.ar    1  UNL1        0.0039
     22 C         -61.1629  -43.7464  -32.3345 C.ar    1  UNL1        0.0726
     23 C         -61.3148  -43.4084  -30.9778 C.ar    1  UNL1        0.0184
     24 C         -62.1759  -43.2837  -33.3519 C.3     1  UNL1        0.4186
     25 F         -63.2771  -44.1224  -33.3585 F       1  UNL1       -0.1659
     26 F         -62.5870  -42.0028  -33.0341 F       1  UNL1       -0.1659
     27 F         -61.6292  -43.2791  -34.6237 F       1  UNL1       -0.1659
     28 C         -63.9675  -39.8773  -18.9997 C.3     1  UNL1        0.1535
     29 C         -64.1008  -38.3864  -18.8466 C.2     1  UNL1        0.2443
     30 O         -63.2156  -37.7525  -18.2107 O.2     1  UNL1       -0.2730
     31 N         -65.2049  -37.6903  -19.4490 N.am    1  UNL1       -0.2825
     32 H         -65.7511  -38.1855  -20.1896 H       1  UNL1        0.1549
     33 C         -65.5398  -36.3201  -19.1718 C.ar    1  UNL1        0.0535
     34 C         -66.7688  -35.8090  -19.6108 C.ar    1  UNL1        0.0353
     35 C         -67.1095  -34.4850  -19.3237 C.ar    1  UNL1        0.1002
     36 N         -66.2600  -33.7023  -18.6075 N.ar    1  UNL1       -0.2422
     37 C         -65.0703  -34.1753  -18.1510 C.ar    1  UNL1        0.1002
     38 C         -64.6904  -35.4933  -18.4170 C.ar    1  UNL1        0.0353
     39 C         -65.3273  -40.5586  -18.7596 C.3     1  UNL1        0.0569
     40 C         -65.1529  -41.9968  -18.3584 C.ar    1  UNL1       -0.0012
     41 C         -64.8204  -42.4244  -17.0771 C.ar    1  UNL1        0.0681
     42 N         -64.8212  -43.7714  -17.0110 N.ar    1  UNL1       -0.3522
     43 C         -65.1587  -44.2050  -18.2365 C.ar    1  UNL1        0.0568
     44 C         -65.2995  -45.5326  -18.6348 C.ar    1  UNL1        0.0170
     45 C         -65.6728  -45.7873  -19.9628 C.ar    1  UNL1        0.0020
     46 C         -65.8959  -44.7223  -20.8580 C.ar    1  UNL1        0.0060
     47 C         -65.7502  -43.3856  -20.4388 C.ar    1  UNL1        0.0226
     48 S         -66.0318  -42.0730  -21.6271 S.3     1  UNL1       -0.1414
     49 C         -65.3760  -43.1541  -19.1012 C.ar    1  UNL1        0.0185
     50 H         -64.6138  -44.3548  -16.1700 H       1  UNL1        0.1660
     51 H         -64.6796  -42.0642  -22.0170 H       1  UNL1        0.1071
@<TRIPOS>BOND
     1     1     2    2
     2     2     3   am
     3     3    28    1
     4    28    39    1
     5    39    40    1
     6    40    41   ar
     7    41    42   ar
     8    42    43   ar
     9    43    44   ar
    10    44    45   ar
    11    45    46   ar
    12    46    47   ar
    13    47    48    1
    14    47    49   ar
    15    28    29    1
    16    29    30    2
    17    29    31   am
    18    31    33    1
    19    33    34   ar
    20    34    35   ar
    21    35    36   ar
    22    36    37   ar
    23    37    38   ar
    24     2     5    1
    25     5     6   ar
    26     6     7   ar
    27     7     8   ar
    28     8    12    1
    29    12    13    1
    30    13    14    1
    31    14    15    1
    32    15    18    1
    33    18    19   ar
    34    19    20   ar
    35    20    21   ar
    36    21    22   ar
    37    22    24    1
    38    24    25    1
    39    24    26    1
    40    24    27    1
    41    22    23   ar
    42    15    16    1
    43    16    17    1
    44     8     9   ar
    45     9    10   ar
    46    10    11    1
    47    49    40   ar
    48    38    33   ar
    49    10     5   ar
    50    49    43   ar
    51    17    12    1
    52    23    18   ar
    53     3     4    1
    54    42    50    1
    55    48    51    1
    56    31    32    1
