@<TRIPOS>MOLECULE
*****
 52 57 0 0 0
SMALL
GASTEIGER

@<TRIPOS>ATOM
      1 C          59.8345   87.9282    7.5749 C.ar    1  UNL1        0.0502
      2 C          59.2070   86.6879    7.7618 C.ar    1  UNL1        0.0148
      3 C          59.2071   86.0777    9.0182 C.ar    1  UNL1        0.0080
      4 C          59.8448   86.6873   10.1135 C.ar    1  UNL1        0.0808
      5 C          60.4759   87.9356    9.9218 C.ar    1  UNL1        0.1457
      6 F          61.0597   88.5998   10.9498 F       1  UNL1       -0.2040
      7 C          60.4684   88.5435    8.6631 C.ar    1  UNL1        0.0443
      8 N          60.0336   90.2278    4.0647 N.pl3   1  UNL1       -0.2897
      9 C          58.9982   90.5256    5.0632 C.3     1  UNL1        0.1136
     10 C          58.6167   89.2508    5.8130 C.3     1  UNL1        0.1123
     11 N          59.8273   88.5689    6.2856 N.pl3   1  UNL1       -0.3040
     12 C          60.8765   88.2751    5.3022 C.3     1  UNL1        0.1123
     13 C          61.2464   89.5432    4.5286 C.3     1  UNL1        0.1136
     14 C          61.2456   91.8088    0.8831 C.ar    1  UNL1        0.0155
     15 C          61.2430   91.1181    2.1054 C.ar    1  UNL1        0.0324
     16 C          60.0461   90.9188    2.8019 C.ar    1  UNL1        0.1315
     17 N          58.8892   91.4139    2.2909 N.ar    1  UNL1       -0.2292
     18 C          58.8448   92.0803    1.1097 C.ar    1  UNL1        0.1039
     19 C          60.0169   92.2947    0.3590 C.ar    1  UNL1        0.0890
     20 C          59.9350   93.0226   -0.9697 C.3     1  UNL1        0.4198
     21 F          58.8112   93.8277   -1.0479 F       1  UNL1       -0.1658
     22 F          59.8721   92.1038   -2.0018 F       1  UNL1       -0.1658
     23 F          61.0471   93.8277   -1.1343 F       1  UNL1       -0.1658
     24 C          62.5807   91.9936    0.1877 C.3     1  UNL1        0.1688
     25 C          63.8080   93.4902    1.4629 C.3     1  UNL1        0.1746
     26 O          63.6272   92.1309    1.1305 O.3     1  UNL1       -0.3463
     27 C          59.7919   86.0299   11.4443 C.2     1  UNL1        0.2483
     28 O          59.3968   86.6915   12.4435 O.2     1  UNL1       -0.2701
     29 N          60.1722   84.6556   11.6137 N.am    1  UNL1       -0.2945
     30 H          60.1572   84.0350   10.7740 H       1  UNL1        0.1501
     31 C          60.4661   84.0842   12.9370 C.3     1  UNL1        0.1535
     32 C          60.2277   82.5918   12.9605 C.2     1  UNL1        0.2443
     33 O          61.0680   81.8259   13.5076 O.2     1  UNL1       -0.2730
     34 N          58.9935   82.0633   12.4493 N.am    1  UNL1       -0.2825
     35 H          58.2068   82.7330   12.2895 H       1  UNL1        0.1549
     36 C          58.7343   80.6617   12.2605 C.ar    1  UNL1        0.0535
     37 C          59.0024   79.7212   13.2698 C.ar    1  UNL1        0.0353
     38 C          58.7565   78.3665   13.0317 C.ar    1  UNL1        0.1002
     39 N          58.2749   77.9614   11.8270 N.ar    1  UNL1       -0.2422
     40 C          58.0240   78.8466   10.8267 C.ar    1  UNL1        0.1002
     41 C          58.2570   80.2099   11.0225 C.ar    1  UNL1        0.0353
     42 C          61.9027   84.4224   13.3947 C.3     1  UNL1        0.0569
     43 C          61.9500   85.4753   14.4693 C.ar    1  UNL1       -0.0017
     44 C          61.5336   85.3316   15.7900 C.ar    1  UNL1        0.0681
     45 N          61.7856   86.4598   16.4913 N.ar    1  UNL1       -0.3523
     46 C          62.3540   87.3167   15.6258 C.ar    1  UNL1        0.0563
     47 C          62.8083   88.6077   15.8924 C.ar    1  UNL1        0.0170
     48 C          63.3872   89.3331   14.8355 C.ar    1  UNL1        0.0015
     49 C          63.4905   88.7618   13.5483 C.ar    1  UNL1        0.0001
     50 C          63.0199   87.4586   13.3072 C.ar    1  UNL1        0.0012
     51 C          62.4646   86.7561   14.3786 C.ar    1  UNL1        0.0131
     52 H          61.5853   86.6246   17.5028 H       1  UNL1        0.1660
@<TRIPOS>BOND
     1    25    26    1
     2    26    24    1
     3    24    14    1
     4    14    15   ar
     5    15    16   ar
     6    16     8    1
     7     8     9    1
     8     9    10    1
     9    10    11    1
    10    11     1    1
    11     1     2   ar
    12     2     3   ar
    13     3     4   ar
    14     4    27    1
    15    27    28    2
    16    27    29   am
    17    29    31    1
    18    31    42    1
    19    42    43    1
    20    43    44   ar
    21    44    45   ar
    22    45    46   ar
    23    46    47   ar
    24    47    48   ar
    25    48    49   ar
    26    49    50   ar
    27    50    51   ar
    28    31    32    1
    29    32    33    2
    30    32    34   am
    31    34    36    1
    32    36    37   ar
    33    37    38   ar
    34    38    39   ar
    35    39    40   ar
    36    40    41   ar
    37     4     5   ar
    38     5     6    1
    39     5     7   ar
    40    11    12    1
    41    12    13    1
    42    16    17   ar
    43    17    18   ar
    44    18    19   ar
    45    19    20    1
    46    20    21    1
    47    20    22    1
    48    20    23    1
    49    19    14   ar
    50    13     8    1
    51     7     1   ar
    52    51    43   ar
    53    41    36   ar
    54    51    46   ar
    55    29    30    1
    56    45    52    1
    57    34    35    1
@<TRIPOS>MOLECULE
*****
 52 57 0 0 0
SMALL
GASTEIGER

@<TRIPOS>ATOM
      1 C          59.8823   88.1332    7.6844 C.ar    1  UNL1        0.0502
      2 C          59.1951   86.9323    7.9137 C.ar    1  UNL1        0.0148
      3 C          59.1763   86.3606    9.1879 C.ar    1  UNL1        0.0080
      4 C          59.8540   86.9697   10.2592 C.ar    1  UNL1        0.0808
      5 C          60.5452   88.1783   10.0249 C.ar    1  UNL1        0.1457
      6 F          61.1711   88.8427   11.0278 F       1  UNL1       -0.2040
      7 C          60.5564   88.7480    8.7485 C.ar    1  UNL1        0.0443
      8 N          60.0802   90.3450    4.1181 N.pl3   1  UNL1       -0.2897
      9 C          58.9588   90.5652    5.0410 C.3     1  UNL1        0.1136
     10 C          58.6565   89.2796    5.8082 C.3     1  UNL1        0.1123
     11 N          59.8951   88.7348    6.3764 N.pl3   1  UNL1       -0.3040
     12 C          61.0289   88.5204    5.4693 C.3     1  UNL1        0.1123
     13 C          61.3219   89.7975    4.6779 C.3     1  UNL1        0.1136
     14 C          61.2856   91.6567    0.8140 C.ar    1  UNL1        0.0155
     15 C          61.2667   91.0005    2.0549 C.ar    1  UNL1        0.0324
     16 C          60.1060   90.9992    2.8360 C.ar    1  UNL1        0.1315
     17 N          59.0027   91.6526    2.3883 N.ar    1  UNL1       -0.2292
     18 C          58.9745   92.2928    1.1923 C.ar    1  UNL1        0.1039
     19 C          60.1092   92.3116    0.3582 C.ar    1  UNL1        0.0890
     20 C          60.0427   93.0151   -0.9843 C.3     1  UNL1        0.4198
     21 F          58.9006   93.7887   -1.1048 F       1  UNL1       -0.1658
     22 F          60.0306   92.0781   -2.0018 F       1  UNL1       -0.1658
     23 F          61.1373   93.8466   -1.1343 F       1  UNL1       -0.1658
     24 C          62.5806   91.6227    0.0251 C.3     1  UNL1        0.1688
     25 C          64.6296   92.5206    0.6315 C.3     1  UNL1        0.1746
     26 O          63.6950   91.4950    0.8879 O.3     1  UNL1       -0.3463
     27 C          59.7807   86.3558   11.6097 C.2     1  UNL1        0.2483
     28 O          58.8529   85.5402   11.8667 O.2     1  UNL1       -0.2701
     29 N          60.7493   86.6651   12.6239 N.am    1  UNL1       -0.2945
     30 H          61.6749   87.0413   12.3203 H       1  UNL1        0.1501
     31 C          60.5159   86.3628   14.0445 C.3     1  UNL1        0.1535
     32 C          60.9543   84.9584   14.3906 C.2     1  UNL1        0.2443
     33 O          61.0352   84.6007   15.5978 O.2     1  UNL1       -0.2730
     34 N          61.1775   84.0062   13.3381 N.am    1  UNL1       -0.2825
     35 H          60.8120   84.2385   12.3866 H       1  UNL1        0.1549
     36 C          61.7610   82.7074   13.5374 C.ar    1  UNL1        0.0535
     37 C          63.1303   82.5499   13.8117 C.ar    1  UNL1        0.0353
     38 C          63.6569   81.2659   13.9742 C.ar    1  UNL1        0.1002
     39 N          62.8520   80.1774   13.8533 N.ar    1  UNL1       -0.2422
     40 C          61.5282   80.2991   13.5702 C.ar    1  UNL1        0.1002
     41 C          60.9616   81.5644   13.3990 C.ar    1  UNL1        0.0353
     42 C          61.2001   87.3986   14.9648 C.3     1  UNL1        0.0569
     43 C          62.4521   87.9849   14.3695 C.ar    1  UNL1       -0.0017
     44 C          63.0240   87.6496   13.1453 C.ar    1  UNL1        0.0681
     45 N          64.1050   88.4237   12.8997 N.ar    1  UNL1       -0.3523
     46 C          64.2242   89.2428   13.9587 C.ar    1  UNL1        0.0563
     47 C          65.1829   90.2364   14.1528 C.ar    1  UNL1        0.0170
     48 C          65.1166   90.9926   15.3370 C.ar    1  UNL1        0.0015
     49 C          64.1102   90.7363   16.2936 C.ar    1  UNL1        0.0001
     50 C          63.1584   89.7247   16.0732 C.ar    1  UNL1        0.0012
     51 C          63.2387   89.0008   14.8819 C.ar    1  UNL1        0.0131
     52 H          64.7158   88.3937   12.0533 H       1  UNL1        0.1660
@<TRIPOS>BOND
     1    25    26    1
     2    26    24    1
     3    24    14    1
     4    14    15   ar
     5    15    16   ar
     6    16     8    1
     7     8     9    1
     8     9    10    1
     9    10    11    1
    10    11     1    1
    11     1     2   ar
    12     2     3   ar
    13     3     4   ar
    14     4    27    1
    15    27    28    2
    16    27    29   am
    17    29    31    1
    18    31    42    1
    19    42    43    1
    20    43    44   ar
    21    44    45   ar
    22    45    46   ar
    23    46    47   ar
    24    47    48   ar
    25    48    49   ar
    26    49    50   ar
    27    50    51   ar
    28    31    32    1
    29    32    33    2
    30    32    34   am
    31    34    36    1
    32    36    37   ar
    33    37    38   ar
    34    38    39   ar
    35    39    40   ar
    36    40    41   ar
    37     4     5   ar
    38     5     6    1
    39     5     7   ar
    40    11    12    1
    41    12    13    1
    42    16    17   ar
    43    17    18   ar
    44    18    19   ar
    45    19    20    1
    46    20    21    1
    47    20    22    1
    48    20    23    1
    49    19    14   ar
    50    13     8    1
    51     7     1   ar
    52    51    43   ar
    53    41    36   ar
    54    51    46   ar
    55    29    30    1
    56    45    52    1
    57    34    35    1
@<TRIPOS>MOLECULE
*****
 52 57 0 0 0
SMALL
GASTEIGER

@<TRIPOS>ATOM
      1 C          59.8410   87.8831    7.5534 C.ar    1  UNL1        0.0502
      2 C          60.1440   88.6031    8.7182 C.ar    1  UNL1        0.0148
      3 C          60.1702   87.9622    9.9590 C.ar    1  UNL1        0.0080
      4 C          59.8823   86.5896   10.0653 C.ar    1  UNL1        0.0808
      5 C          59.5773   85.8679    8.8908 C.ar    1  UNL1        0.1457
      6 F          59.3453   84.5322    8.9200 F       1  UNL1       -0.2040
      7 C          59.5573   86.5140    7.6514 C.ar    1  UNL1        0.0443
      8 N          60.0552   90.1950    4.0521 N.pl3   1  UNL1       -0.2897
      9 C          59.0887   90.5581    5.0971 C.3     1  UNL1        0.1136
     10 C          58.6479   89.3074    5.8550 C.3     1  UNL1        0.1123
     11 N          59.8247   88.5347    6.2697 N.pl3   1  UNL1       -0.3040
     12 C          60.8060   88.1746    5.2393 C.3     1  UNL1        0.1123
     13 C          61.2337   89.4196    4.4580 C.3     1  UNL1        0.1136
     14 C          61.2442   91.7306    0.8398 C.ar    1  UNL1        0.0155
     15 C          61.2445   91.0305    2.0567 C.ar    1  UNL1        0.0324
     16 C          60.0634   90.8951    2.7943 C.ar    1  UNL1        0.1315
     17 N          58.9200   91.4611    2.3284 N.ar    1  UNL1       -0.2292
     18 C          58.8729   92.1392    1.1540 C.ar    1  UNL1        0.1039
     19 C          60.0282   92.2917    0.3632 C.ar    1  UNL1        0.0890
     20 C          59.9420   93.0346   -0.9568 C.3     1  UNL1        0.4198
     21 F          58.8210   93.8449   -1.0199 F       1  UNL1       -0.1658
     22 F          59.8699   92.1276   -1.9987 F       1  UNL1       -0.1658
     23 F          61.0564   93.8371   -1.1185 F       1  UNL1       -0.1658
     24 C          62.5624   91.8434    0.0982 C.3     1  UNL1        0.1688
     25 C          63.5169   91.4682   -1.9803 C.3     1  UNL1        0.1746
     26 O          62.5774   90.9994   -1.0376 O.3     1  UNL1       -0.3463
     27 C          59.9577   85.9313   11.3946 C.2     1  UNL1        0.2483
     28 O          59.1930   86.3206   12.3196 O.2     1  UNL1       -0.2701
     29 N          60.8762   84.8559   11.6440 N.am    1  UNL1       -0.2945
     30 H          61.2379   84.3193   10.8246 H       1  UNL1        0.1501
     31 C          61.2238   84.4265   13.0073 C.3     1  UNL1        0.1535
     32 C          61.4909   85.6098   13.9089 C.2     1  UNL1        0.2443
     33 O          60.6724   85.9061   14.8223 O.2     1  UNL1       -0.2730
     34 N          62.7283   86.3292   13.7860 N.am    1  UNL1       -0.2825
     35 H          63.5000   85.8801   13.2422 H       1  UNL1        0.1549
     36 C          63.0118   87.5658   14.4625 C.ar    1  UNL1        0.0535
     37 C          62.8456   87.6996   15.8516 C.ar    1  UNL1        0.0353
     38 C          63.1109   88.9283   16.4618 C.ar    1  UNL1        0.1002
     39 N          63.5129   89.9895   15.7137 N.ar    1  UNL1       -0.2422
     40 C          63.6641   89.8940   14.3664 C.ar    1  UNL1        0.1002
     41 C          63.4083   88.6841   13.7165 C.ar    1  UNL1        0.0353
     42 C          60.1359   83.5079   13.6076 C.3     1  UNL1        0.0569
     43 C          60.1018   82.1405   12.9793 C.ar    1  UNL1       -0.0017
     44 C          60.7891   81.0107   13.4143 C.ar    1  UNL1        0.0681
     45 N          60.4705   79.9401   12.6524 N.ar    1  UNL1       -0.3523
     46 C          59.5911   80.3830   11.7375 C.ar    1  UNL1        0.0563
     47 C          58.9617   79.6368   10.7421 C.ar    1  UNL1        0.0170
     48 C          58.0595   80.3018    9.8922 C.ar    1  UNL1        0.0015
     49 C          57.8156   81.6836   10.0489 C.ar    1  UNL1        0.0001
     50 C          58.4681   82.4123   11.0595 C.ar    1  UNL1        0.0012
     51 C          59.3460   81.7232   11.8985 C.ar    1  UNL1        0.0131
     52 H          60.8307   78.9660   12.7616 H       1  UNL1        0.1660
@<TRIPOS>BOND
     1    25    26    1
     2    26    24    1
     3    24    14    1
     4    14    15   ar
     5    15    16   ar
     6    16     8    1
     7     8     9    1
     8     9    10    1
     9    10    11    1
    10    11     1    1
    11     1     2   ar
    12     2     3   ar
    13     3     4   ar
    14     4    27    1
    15    27    28    2
    16    27    29   am
    17    29    31    1
    18    31    42    1
    19    42    43    1
    20    43    44   ar
    21    44    45   ar
    22    45    46   ar
    23    46    47   ar
    24    47    48   ar
    25    48    49   ar
    26    49    50   ar
    27    50    51   ar
    28    31    32    1
    29    32    33    2
    30    32    34   am
    31    34    36    1
    32    36    37   ar
    33    37    38   ar
    34    38    39   ar
    35    39    40   ar
    36    40    41   ar
    37     4     5   ar
    38     5     6    1
    39     5     7   ar
    40    11    12    1
    41    12    13    1
    42    16    17   ar
    43    17    18   ar
    44    18    19   ar
    45    19    20    1
    46    20    21    1
    47    20    22    1
    48    20    23    1
    49    19    14   ar
    50    13     8    1
    51     7     1   ar
    52    51    43   ar
    53    41    36   ar
    54    51    46   ar
    55    29    30    1
    56    45    52    1
    57    34    35    1
