@<TRIPOS>MOLECULE
*****
 45 50 0 0 0
SMALL
GASTEIGER

@<TRIPOS>ATOM
      1 C         -63.5425  -51.4134  -24.3720 C.ar    1  UNL1        0.0702
      2 C         -63.0554  -52.1772  -23.3010 C.ar    1  UNL1        0.0191
      3 C         -63.8078  -53.2385  -22.7950 C.ar    1  UNL1        0.0356
      4 C         -65.0654  -53.5338  -23.3553 C.ar    1  UNL1        0.1318
      5 N         -65.5199  -52.7603  -24.3823 N.ar    1  UNL1       -0.2279
      6 C         -64.8048  -51.7227  -24.8905 C.ar    1  UNL1        0.1149
      7 N         -65.8823  -54.6241  -22.8600 N.pl3   1  UNL1       -0.2932
      8 C         -66.9686  -55.1681  -23.6968 C.3     1  UNL1        0.0923
      9 C         -67.6265  -56.3980  -23.0634 C.3     1  UNL1        0.0252
     10 C         -67.9439  -56.1018  -21.5913 C.3     1  UNL1        0.0472
     11 C         -66.6447  -55.8314  -20.7942 C.3     1  UNL1        0.0252
     12 C         -65.4552  -55.3582  -21.6549 C.3     1  UNL1        0.0923
     13 C         -68.7877  -57.2335  -20.9710 C.3     1  UNL1        0.2054
     14 O         -70.0969  -56.7656  -20.6347 O.3     1  UNL1       -0.4754
     15 C         -70.4567  -56.0412  -19.4863 C.ar    1  UNL1        0.1393
     16 C         -69.8582  -56.4009  -18.2743 C.ar    1  UNL1        0.0436
     17 C         -70.1770  -55.7240  -17.0951 C.ar    1  UNL1        0.0378
     18 BR        -69.3599  -56.2415  -15.4481 Br      1  UNL1       -0.0489
     19 C         -71.0941  -54.6706  -17.1188 C.ar    1  UNL1        0.0133
     20 C         -71.6955  -54.2788  -18.3274 C.ar    1  UNL1        0.0790
     21 C         -71.3659  -54.9650  -19.5105 C.ar    1  UNL1        0.0434
     22 C         -72.6613  -53.1573  -18.3581 C.2     1  UNL1        0.3381
     23 O         -73.7514  -53.2358  -17.7292 O.2     1  UNL1       -0.2451
     24 O         -72.3759  -52.0038  -19.0842 O.3     1  UNL1       -0.4771
     25 H         -73.0305  -51.2312  -19.1122 H       1  UNL1        0.2954
     26 C         -63.3624  -48.9860  -25.0787 C.2     1  UNL1        0.2839
     27 O         -64.3279  -48.6098  -24.3610 O.2     1  UNL1       -0.2665
     28 N         -62.8067  -50.2979  -24.9031 N.am    1  UNL1       -0.2766
     29 H         -61.7825  -50.4186  -25.0687 H       1  UNL1        0.1553
     30 C         -63.7616  -48.8976  -28.2869 C.3     1  UNL1        0.0345
     31 C         -62.9372  -47.9932  -27.4213 C.ar    1  UNL1        0.0202
     32 C         -62.7722  -48.0289  -26.0308 C.ar    1  UNL1        0.1946
     33 O         -61.9881  -47.0380  -25.6436 O.2     1  UNL1       -0.4492
     34 C         -61.6182  -46.3756  -26.7122 C.ar    1  UNL1        0.1452
     35 C         -60.7872  -45.2623  -26.7713 C.ar    1  UNL1        0.0375
     36 C         -60.5180  -44.7059  -28.0341 C.ar    1  UNL1        0.0031
     37 C         -61.0800  -45.2675  -29.2126 C.ar    1  UNL1        0.0002
     38 C         -61.9217  -46.4009  -29.1075 C.ar    1  UNL1        0.0028
     39 C         -62.1670  -46.9258  -27.8385 C.ar    1  UNL1        0.0337
     40 C         -60.7878  -44.6722  -30.5413 C.ar    1  UNL1        0.0000
     41 C         -59.5350  -44.8676  -31.1534 C.ar    1  UNL1        0.0000
     42 C         -59.2623  -44.3049  -32.4041 C.ar    1  UNL1        0.0000
     43 C         -60.2341  -43.5435  -33.0572 C.ar    1  UNL1        0.0000
     44 C         -61.4807  -43.3426  -32.4606 C.ar    1  UNL1        0.0000
     45 C         -61.7586  -43.9021  -31.2097 C.ar    1  UNL1        0.0000
@<TRIPOS>BOND
     1    30    31    1
     2    31    32   ar
     3    32    26    1
     4    26    27    2
     5    26    28   am
     6    28     1    1
     7     1     2   ar
     8     2     3   ar
     9     3     4   ar
    10     4     7    1
    11     7     8    1
    12     8     9    1
    13     9    10    1
    14    10    13    1
    15    13    14    1
    16    14    15    1
    17    15    16   ar
    18    16    17   ar
    19    17    18    1
    20    17    19   ar
    21    19    20   ar
    22    20    22    1
    23    22    23    2
    24    22    24    1
    25    20    21   ar
    26    10    11    1
    27    11    12    1
    28     4     5   ar
    29     5     6   ar
    30    32    33   ar
    31    33    34   ar
    32    34    35   ar
    33    35    36   ar
    34    36    37   ar
    35    37    40    1
    36    40    41   ar
    37    41    42   ar
    38    42    43   ar
    39    43    44   ar
    40    44    45   ar
    41    37    38   ar
    42    38    39   ar
    43    39    31   ar
    44     6     1   ar
    45    39    34   ar
    46    12     7    1
    47    45    40   ar
    48    21    15   ar
    49    28    29    1
    50    24    25    1
@<TRIPOS>MOLECULE
*****
 45 50 0 0 0
SMALL
GASTEIGER

@<TRIPOS>ATOM
      1 C         -63.5389  -51.7477  -24.3461 C.ar    1  UNL1        0.0702
      2 C         -63.1597  -52.4369  -23.1847 C.ar    1  UNL1        0.0191
      3 C         -63.9727  -53.4483  -22.6705 C.ar    1  UNL1        0.0356
      4 C         -65.1834  -53.7678  -23.3146 C.ar    1  UNL1        0.1318
      5 N         -65.5336  -53.0662  -24.4302 N.ar    1  UNL1       -0.2279
      6 C         -64.7581  -52.0781  -24.9482 C.ar    1  UNL1        0.1149
      7 N         -66.0603  -54.8082  -22.8145 N.pl3   1  UNL1       -0.2932
      8 C         -67.0233  -55.4581  -23.7235 C.3     1  UNL1        0.0923
      9 C         -67.7614  -56.6195  -23.0502 C.3     1  UNL1        0.0252
     10 C         -68.2753  -56.1657  -21.6771 C.3     1  UNL1        0.0472
     11 C         -67.0961  -55.7888  -20.7477 C.3     1  UNL1        0.0252
     12 C         -65.8007  -55.3970  -21.4880 C.3     1  UNL1        0.0923
     13 C         -69.1959  -57.2337  -21.0529 C.3     1  UNL1        0.2054
     14 O         -70.4093  -56.6439  -20.5776 O.3     1  UNL1       -0.4754
     15 C         -70.6100  -56.0364  -19.3273 C.ar    1  UNL1        0.1393
     16 C         -71.5082  -54.9663  -19.2588 C.ar    1  UNL1        0.0436
     17 C         -71.7481  -54.3155  -18.0467 C.ar    1  UNL1        0.0378
     18 BR        -72.9668  -52.8463  -17.9784 Br      1  UNL1       -0.0489
     19 C         -71.0964  -54.7365  -16.8852 C.ar    1  UNL1        0.0133
     20 C         -70.2027  -55.8208  -16.9248 C.ar    1  UNL1        0.0790
     21 C         -69.9697  -56.4719  -18.1500 C.ar    1  UNL1        0.0434
     22 C         -69.5167  -56.2756  -15.6944 C.2     1  UNL1        0.3381
     23 O         -68.3674  -55.8436  -15.4071 O.2     1  UNL1       -0.2451
     24 O         -70.1339  -57.1875  -14.8418 O.3     1  UNL1       -0.4771
     25 H         -69.6725  -57.5056  -13.9979 H       1  UNL1        0.2954
     26 C         -63.1537  -49.3099  -24.9226 C.2     1  UNL1        0.2839
     27 O         -63.9860  -48.8833  -24.0777 O.2     1  UNL1       -0.2665
     28 N         -62.7393  -50.6838  -24.8907 N.am    1  UNL1       -0.2766
     29 H         -61.7599  -50.9035  -25.1797 H       1  UNL1        0.1553
     30 C         -63.9098  -48.9192  -28.0429 C.3     1  UNL1        0.0345
     31 C         -62.8816  -48.1909  -27.2309 C.ar    1  UNL1        0.0202
     32 C         -62.5614  -48.3566  -25.8774 C.ar    1  UNL1        0.1946
     33 O         -61.6177  -47.4998  -25.5285 O.2     1  UNL1       -0.4492
     34 C         -61.2936  -46.8029  -26.5900 C.ar    1  UNL1        0.1452
     35 C         -60.3401  -45.7948  -26.6808 C.ar    1  UNL1        0.0375
     36 C         -60.1514  -45.1754  -27.9287 C.ar    1  UNL1        0.0031
     37 C         -60.9139  -45.5706  -29.0612 C.ar    1  UNL1        0.0002
     38 C         -61.8751  -46.6009  -28.9248 C.ar    1  UNL1        0.0028
     39 C         -62.0357  -47.1925  -27.6716 C.ar    1  UNL1        0.0337
     40 C         -60.7052  -44.9101  -30.3747 C.ar    1  UNL1        0.0000
     41 C         -61.7568  -44.2145  -31.0014 C.ar    1  UNL1        0.0000
     42 C         -61.5576  -43.5945  -32.2387 C.ar    1  UNL1        0.0000
     43 C         -60.3101  -43.6603  -32.8632 C.ar    1  UNL1        0.0000
     44 C         -59.2589  -44.3470  -32.2517 C.ar    1  UNL1        0.0000
     45 C         -59.4526  -44.9697  -31.0149 C.ar    1  UNL1        0.0000
@<TRIPOS>BOND
     1    30    31    1
     2    31    32   ar
     3    32    26    1
     4    26    27    2
     5    26    28   am
     6    28     1    1
     7     1     2   ar
     8     2     3   ar
     9     3     4   ar
    10     4     7    1
    11     7     8    1
    12     8     9    1
    13     9    10    1
    14    10    13    1
    15    13    14    1
    16    14    15    1
    17    15    16   ar
    18    16    17   ar
    19    17    18    1
    20    17    19   ar
    21    19    20   ar
    22    20    22    1
    23    22    23    2
    24    22    24    1
    25    20    21   ar
    26    10    11    1
    27    11    12    1
    28     4     5   ar
    29     5     6   ar
    30    32    33   ar
    31    33    34   ar
    32    34    35   ar
    33    35    36   ar
    34    36    37   ar
    35    37    40    1
    36    40    41   ar
    37    41    42   ar
    38    42    43   ar
    39    43    44   ar
    40    44    45   ar
    41    37    38   ar
    42    38    39   ar
    43    39    31   ar
    44     6     1   ar
    45    39    34   ar
    46    12     7    1
    47    45    40   ar
    48    21    15   ar
    49    28    29    1
    50    24    25    1
@<TRIPOS>MOLECULE
*****
 45 50 0 0 0
SMALL
GASTEIGER

@<TRIPOS>ATOM
      1 C         -63.6901  -51.1966  -24.3921 C.ar    1  UNL1        0.0702
      2 C         -63.0228  -52.0757  -23.5264 C.ar    1  UNL1        0.0191
      3 C         -63.6988  -53.1633  -22.9708 C.ar    1  UNL1        0.0356
      4 C         -65.0587  -53.3696  -23.2722 C.ar    1  UNL1        0.1318
      5 N         -65.6844  -52.4860  -24.1012 N.ar    1  UNL1       -0.2279
      6 C         -65.0464  -51.4209  -24.6532 C.ar    1  UNL1        0.1149
      7 N         -65.8013  -54.4834  -22.7158 N.pl3   1  UNL1       -0.2932
      8 C         -67.1076  -54.8566  -23.2904 C.3     1  UNL1        0.0923
      9 C         -67.6721  -56.1348  -22.6624 C.3     1  UNL1        0.0252
     10 C         -67.5700  -56.0368  -21.1342 C.3     1  UNL1        0.0472
     11 C         -66.0907  -55.9375  -20.6890 C.3     1  UNL1        0.0252
     12 C         -65.1336  -55.3982  -21.7719 C.3     1  UNL1        0.0923
     13 C         -68.3091  -57.2081  -20.4564 C.3     1  UNL1        0.2054
     14 O         -69.2120  -56.7286  -19.4559 O.3     1  UNL1       -0.4754
     15 C         -70.5199  -56.2611  -19.6648 C.ar    1  UNL1        0.1393
     16 C         -71.2668  -56.8494  -20.6907 C.ar    1  UNL1        0.0436
     17 C         -72.5714  -56.4262  -20.9535 C.ar    1  UNL1        0.0378
     18 BR        -73.5682  -57.2323  -22.3695 Br      1  UNL1       -0.0489
     19 C         -73.1470  -55.4128  -20.1835 C.ar    1  UNL1        0.0133
     20 C         -72.4231  -54.8182  -19.1354 C.ar    1  UNL1        0.0790
     21 C         -71.1105  -55.2533  -18.8766 C.ar    1  UNL1        0.0434
     22 C         -73.0326  -53.7501  -18.3115 C.2     1  UNL1        0.3381
     23 O         -72.4624  -53.3503  -17.2603 O.2     1  UNL1       -0.2451
     24 O         -74.2443  -53.1766  -18.6887 O.3     1  UNL1       -0.4771
     25 H         -74.6701  -52.4457  -18.1313 H       1  UNL1        0.2954
     26 C         -63.6223  -48.7449  -25.0311 C.2     1  UNL1        0.2839
     27 O         -64.5060  -48.4085  -24.1977 O.2     1  UNL1       -0.2665
     28 N         -63.0332  -50.0521  -24.9636 N.am    1  UNL1       -0.2766
     29 H         -62.0325  -50.1502  -25.2464 H       1  UNL1        0.1553
     30 C         -63.6363  -48.9915  -28.2558 C.3     1  UNL1        0.0345
     31 C         -63.1529  -47.8550  -27.4064 C.ar    1  UNL1        0.0202
     32 C         -63.1550  -47.7475  -26.0098 C.ar    1  UNL1        0.1946
     33 O         -62.6718  -46.5722  -25.6468 O.2     1  UNL1       -0.4492
     34 C         -62.3357  -45.9214  -26.7335 C.ar    1  UNL1        0.1452
     35 C         -61.7807  -44.6494  -26.8196 C.ar    1  UNL1        0.0375
     36 C         -61.4940  -44.1397  -28.0981 C.ar    1  UNL1        0.0031
     37 C         -61.7643  -44.9047  -29.2651 C.ar    1  UNL1        0.0002
     38 C         -62.3306  -46.1953  -29.1325 C.ar    1  UNL1        0.0028
     39 C         -62.6024  -46.6684  -27.8485 C.ar    1  UNL1        0.0337
     40 C         -61.4561  -44.3566  -30.6104 C.ar    1  UNL1        0.0000
     41 C         -60.1715  -44.5058  -31.1671 C.ar    1  UNL1        0.0000
     42 C         -59.8840  -43.9877  -32.4337 C.ar    1  UNL1        0.0000
     43 C         -60.8723  -43.3173  -33.1579 C.ar    1  UNL1        0.0000
     44 C         -62.1504  -43.1630  -32.6167 C.ar    1  UNL1        0.0000
     45 C         -62.4434  -43.6781  -31.3503 C.ar    1  UNL1        0.0000
@<TRIPOS>BOND
     1    30    31    1
     2    31    32   ar
     3    32    26    1
     4    26    27    2
     5    26    28   am
     6    28     1    1
     7     1     2   ar
     8     2     3   ar
     9     3     4   ar
    10     4     7    1
    11     7     8    1
    12     8     9    1
    13     9    10    1
    14    10    13    1
    15    13    14    1
    16    14    15    1
    17    15    16   ar
    18    16    17   ar
    19    17    18    1
    20    17    19   ar
    21    19    20   ar
    22    20    22    1
    23    22    23    2
    24    22    24    1
    25    20    21   ar
    26    10    11    1
    27    11    12    1
    28     4     5   ar
    29     5     6   ar
    30    32    33   ar
    31    33    34   ar
    32    34    35   ar
    33    35    36   ar
    34    36    37   ar
    35    37    40    1
    36    40    41   ar
    37    41    42   ar
    38    42    43   ar
    39    43    44   ar
    40    44    45   ar
    41    37    38   ar
    42    38    39   ar
    43    39    31   ar
    44     6     1   ar
    45    39    34   ar
    46    12     7    1
    47    45    40   ar
    48    21    15   ar
    49    28    29    1
    50    24    25    1
@<TRIPOS>MOLECULE
*****
 45 50 0 0 0
SMALL
GASTEIGER

@<TRIPOS>ATOM
      1 C         -65.9071  -53.5531  -23.1677 C.ar    1  UNL1        0.0702
      2 C         -65.3181  -54.6279  -22.4854 C.ar    1  UNL1        0.0191
      3 C         -66.0303  -55.3073  -21.4956 C.ar    1  UNL1        0.0356
      4 C         -67.3401  -54.9026  -21.1741 C.ar    1  UNL1        0.1318
      5 N         -67.8774  -53.8417  -21.8414 N.ar    1  UNL1       -0.2279
      6 C         -67.2027  -53.1659  -22.8080 C.ar    1  UNL1        0.1149
      7 N         -68.1156  -55.5766  -20.1514 N.pl3   1  UNL1       -0.2932
      8 C         -69.1783  -56.5234  -20.5389 C.3     1  UNL1        0.0923
      9 C         -69.7898  -57.2344  -19.3275 C.3     1  UNL1        0.0252
     10 C         -70.1216  -56.1978  -18.2454 C.3     1  UNL1        0.0472
     11 C         -68.8356  -55.4949  -17.7470 C.3     1  UNL1        0.0252
     12 C         -67.6632  -55.5248  -18.7491 C.3     1  UNL1        0.0923
     13 C         -70.9228  -56.8395  -17.0948 C.3     1  UNL1        0.2054
     14 O         -72.1675  -56.1616  -16.9020 O.3     1  UNL1       -0.4754
     15 C         -72.3628  -54.9500  -16.2188 C.ar    1  UNL1        0.1393
     16 C         -71.9020  -54.8628  -14.9011 C.ar    1  UNL1        0.0436
     17 C         -72.0702  -53.6879  -14.1650 C.ar    1  UNL1        0.0378
     18 BR        -71.4475  -53.5954  -12.3617 Br      1  UNL1       -0.0489
     19 C         -72.6951  -52.5817  -14.7455 C.ar    1  UNL1        0.0133
     20 C         -73.1508  -52.6387  -16.0740 C.ar    1  UNL1        0.0790
     21 C         -72.9743  -53.8257  -16.8084 C.ar    1  UNL1        0.0434
     22 C         -73.8057  -51.4656  -16.6957 C.2     1  UNL1        0.3381
     23 O         -74.2936  -51.5466  -17.8555 O.2     1  UNL1       -0.2451
     24 O         -73.8879  -50.2590  -16.0053 O.3     1  UNL1       -0.4771
     25 H         -74.3332  -49.4502  -16.4222 H       1  UNL1        0.2954
     26 C         -64.0686  -51.9692  -23.8991 C.2     1  UNL1        0.2839
     27 O         -63.3514  -52.1871  -22.8859 O.2     1  UNL1       -0.2665
     28 N         -65.1955  -52.8144  -24.1755 N.am    1  UNL1       -0.2766
     29 H         -65.4416  -52.9855  -25.1761 H       1  UNL1        0.1553
     30 C         -61.7260  -49.7762  -23.4956 C.3     1  UNL1        0.0345
     31 C         -62.6686  -49.9368  -24.6499 C.ar    1  UNL1        0.0202
     32 C         -63.6774  -50.8925  -24.8258 C.ar    1  UNL1        0.1946
     33 O         -64.2676  -50.7160  -25.9950 O.2     1  UNL1       -0.4492
     34 C         -63.7095  -49.6825  -26.5763 C.ar    1  UNL1        0.1452
     35 C         -64.0235  -49.1387  -27.8170 C.ar    1  UNL1        0.0375
     36 C         -63.2933  -48.0182  -28.2503 C.ar    1  UNL1        0.0031
     37 C         -62.2660  -47.4606  -27.4416 C.ar    1  UNL1        0.0002
     38 C         -61.9779  -48.0458  -26.1853 C.ar    1  UNL1        0.0028
     39 C         -62.7222  -49.1569  -25.7881 C.ar    1  UNL1        0.0337
     40 C         -61.5020  -46.2761  -27.9090 C.ar    1  UNL1        0.0000
     41 C         -60.1568  -46.4024  -28.3049 C.ar    1  UNL1        0.0000
     42 C         -59.4396  -45.2851  -28.7435 C.ar    1  UNL1        0.0000
     43 C         -60.0549  -44.0322  -28.7930 C.ar    1  UNL1        0.0000
     44 C         -61.3888  -43.8939  -28.4032 C.ar    1  UNL1        0.0000
     45 C         -62.1105  -45.0075  -27.9628 C.ar    1  UNL1        0.0000
@<TRIPOS>BOND
     1    30    31    1
     2    31    32   ar
     3    32    26    1
     4    26    27    2
     5    26    28   am
     6    28     1    1
     7     1     2   ar
     8     2     3   ar
     9     3     4   ar
    10     4     7    1
    11     7     8    1
    12     8     9    1
    13     9    10    1
    14    10    13    1
    15    13    14    1
    16    14    15    1
    17    15    16   ar
    18    16    17   ar
    19    17    18    1
    20    17    19   ar
    21    19    20   ar
    22    20    22    1
    23    22    23    2
    24    22    24    1
    25    20    21   ar
    26    10    11    1
    27    11    12    1
    28     4     5   ar
    29     5     6   ar
    30    32    33   ar
    31    33    34   ar
    32    34    35   ar
    33    35    36   ar
    34    36    37   ar
    35    37    40    1
    36    40    41   ar
    37    41    42   ar
    38    42    43   ar
    39    43    44   ar
    40    44    45   ar
    41    37    38   ar
    42    38    39   ar
    43    39    31   ar
    44     6     1   ar
    45    39    34   ar
    46    12     7    1
    47    45    40   ar
    48    21    15   ar
    49    28    29    1
    50    24    25    1
@<TRIPOS>MOLECULE
*****
 45 50 0 0 0
SMALL
GASTEIGER

@<TRIPOS>ATOM
      1 C         -65.9325  -53.4951  -23.1325 C.ar    1  UNL1        0.0702
      2 C         -65.3573  -54.6046  -22.4955 C.ar    1  UNL1        0.0191
      3 C         -66.0690  -55.3003  -21.5167 C.ar    1  UNL1        0.0356
      4 C         -67.3640  -54.8774  -21.1604 C.ar    1  UNL1        0.1318
      5 N         -67.8875  -53.7833  -21.7838 N.ar    1  UNL1       -0.2279
      6 C         -67.2131  -53.0912  -22.7390 C.ar    1  UNL1        0.1149
      7 N         -68.1383  -55.5672  -20.1475 N.pl3   1  UNL1       -0.2932
      8 C         -69.2058  -56.5031  -20.5485 C.3     1  UNL1        0.0923
      9 C         -69.8156  -57.2340  -19.3482 C.3     1  UNL1        0.0252
     10 C         -70.1399  -56.2163  -18.2461 C.3     1  UNL1        0.0472
     11 C         -68.8496  -55.5272  -17.7395 C.3     1  UNL1        0.0252
     12 C         -67.6809  -55.5428  -18.7462 C.3     1  UNL1        0.0923
     13 C         -70.9393  -56.8762  -17.1046 C.3     1  UNL1        0.2054
     14 O         -72.1232  -56.1278  -16.8143 O.3     1  UNL1       -0.4754
     15 C         -72.2256  -55.0283  -15.9463 C.ar    1  UNL1        0.1393
     16 C         -72.9252  -53.9042  -16.3973 C.ar    1  UNL1        0.0436
     17 C         -73.0583  -52.7760  -15.5850 C.ar    1  UNL1        0.0378
     18 BR        -74.0044  -51.2457  -16.2265 Br      1  UNL1       -0.0489
     19 C         -72.4987  -52.7650  -14.3052 C.ar    1  UNL1        0.0133
     20 C         -71.8062  -53.8890  -13.8225 C.ar    1  UNL1        0.0790
     21 C         -71.6798  -55.0218  -14.6471 C.ar    1  UNL1        0.0434
     22 C         -71.2192  -53.8845  -12.4635 C.2     1  UNL1        0.3381
     23 O         -71.9469  -54.0819  -11.4528 O.2     1  UNL1       -0.2451
     24 O         -69.8561  -53.6601  -12.2875 O.3     1  UNL1       -0.4771
     25 H         -69.4450  -53.6542  -11.3617 H       1  UNL1        0.2954
     26 C         -64.0526  -51.9529  -23.8478 C.2     1  UNL1        0.2839
     27 O         -63.3163  -52.2451  -22.8674 O.2     1  UNL1       -0.2665
     28 N         -65.2203  -52.7395  -24.1274 N.am    1  UNL1       -0.2766
     29 H         -65.5015  -52.8549  -25.1268 H       1  UNL1        0.1553
     30 C         -61.6676  -49.8201  -23.3756 C.3     1  UNL1        0.0345
     31 C         -62.6171  -49.9215  -24.5310 C.ar    1  UNL1        0.0202
     32 C         -63.6444  -50.8511  -24.7369 C.ar    1  UNL1        0.1946
     33 O         -64.2352  -50.6217  -25.8965 O.2     1  UNL1       -0.4492
     34 C         -63.6597  -49.5786  -26.4427 C.ar    1  UNL1        0.1452
     35 C         -63.9678  -48.9848  -27.6618 C.ar    1  UNL1        0.0375
     36 C         -63.2180  -47.8633  -28.0577 C.ar    1  UNL1        0.0031
     37 C         -62.1776  -47.3545  -27.2338 C.ar    1  UNL1        0.0002
     38 C         -61.8962  -47.9898  -26.0005 C.ar    1  UNL1        0.0028
     39 C         -62.6600  -49.1003  -25.6402 C.ar    1  UNL1        0.0337
     40 C         -61.3931  -46.1685  -27.6616 C.ar    1  UNL1        0.0000
     41 C         -61.7368  -44.8809  -27.2074 C.ar    1  UNL1        0.0000
     42 C         -60.9969  -43.7659  -27.6127 C.ar    1  UNL1        0.0000
     43 C         -59.9077  -43.9221  -28.4730 C.ar    1  UNL1        0.0000
     44 C         -59.5565  -45.1941  -28.9303 C.ar    1  UNL1        0.0000
     45 C         -60.2934  -46.3125  -28.5291 C.ar    1  UNL1        0.0000
@<TRIPOS>BOND
     1    30    31    1
     2    31    32   ar
     3    32    26    1
     4    26    27    2
     5    26    28   am
     6    28     1    1
     7     1     2   ar
     8     2     3   ar
     9     3     4   ar
    10     4     7    1
    11     7     8    1
    12     8     9    1
    13     9    10    1
    14    10    13    1
    15    13    14    1
    16    14    15    1
    17    15    16   ar
    18    16    17   ar
    19    17    18    1
    20    17    19   ar
    21    19    20   ar
    22    20    22    1
    23    22    23    2
    24    22    24    1
    25    20    21   ar
    26    10    11    1
    27    11    12    1
    28     4     5   ar
    29     5     6   ar
    30    32    33   ar
    31    33    34   ar
    32    34    35   ar
    33    35    36   ar
    34    36    37   ar
    35    37    40    1
    36    40    41   ar
    37    41    42   ar
    38    42    43   ar
    39    43    44   ar
    40    44    45   ar
    41    37    38   ar
    42    38    39   ar
    43    39    31   ar
    44     6     1   ar
    45    39    34   ar
    46    12     7    1
    47    45    40   ar
    48    21    15   ar
    49    28    29    1
    50    24    25    1
