@<TRIPOS>MOLECULE
*****
 47 52 0 0 0
SMALL
GASTEIGER

@<TRIPOS>ATOM
      1 C          11.9844   80.6693   25.4918 C.ar    1  UNL1        0.0702
      2 C          11.2449   81.8259   25.1997 C.ar    1  UNL1        0.0191
      3 C          11.8739   82.9356   24.6333 C.ar    1  UNL1        0.0356
      4 C          13.2526   82.8917   24.3669 C.ar    1  UNL1        0.1318
      5 N          13.9534   81.7686   24.6874 N.ar    1  UNL1       -0.2279
      6 C          13.3621   80.6768   25.2403 C.ar    1  UNL1        0.1149
      7 N          13.9398   84.0181   23.7844 N.pl3   1  UNL1       -0.2932
      8 C          13.6515   85.3895   24.2288 C.3     1  UNL1        0.0923
      9 C          13.6982   86.3638   23.0451 C.3     1  UNL1        0.0252
     10 C          14.9858   86.2165   22.2087 C.3     1  UNL1        0.0472
     11 C          15.1765   84.7495   21.7770 C.3     1  UNL1        0.0252
     12 C          15.1389   83.7858   22.9679 C.3     1  UNL1        0.0923
     13 C          16.2278   86.7706   22.9322 C.3     1  UNL1        0.2054
     14 O          15.8903   87.9708   23.6245 O.3     1  UNL1       -0.4755
     15 C          16.1060   88.1872   24.9934 C.ar    1  UNL1        0.1388
     16 C          17.3493   88.6852   25.3963 C.ar    1  UNL1        0.0369
     17 C          17.6145   88.9192   26.7465 C.ar    1  UNL1        0.0033
     18 C          16.6380   88.6572   27.7096 C.ar    1  UNL1        0.0066
     19 C          15.3806   88.1557   27.3292 C.ar    1  UNL1        0.0785
     20 C          15.1212   87.9224   25.9661 C.ar    1  UNL1        0.0433
     21 C          14.3423   87.8763   28.3464 C.2     1  UNL1        0.3381
     22 O          14.6211   87.9302   29.5750 O.2     1  UNL1       -0.2451
     23 O          13.0458   87.5509   27.9560 O.3     1  UNL1       -0.4771
     24 H          12.3280   87.3579   28.6444 H       1  UNL1        0.2954
     25 C          10.7943   78.4303   25.3615 C.2     1  UNL1        0.2839
     26 O          10.9996   78.3240   24.1229 O.2     1  UNL1       -0.2665
     27 N          11.3782   79.5159   26.0998 N.am    1  UNL1       -0.2766
     28 H          11.4456   79.4201   27.1386 H       1  UNL1        0.1553
     29 C           7.1136   75.4353   27.0611 C.ar    1  UNL1        0.0374
     30 C           7.1442   74.5339   28.1665 C.ar    1  UNL1        0.0029
     31 C           8.3310   74.3855   28.9240 C.ar    1  UNL1        0.0032
     32 C           9.4761   75.1325   28.6215 C.ar    1  UNL1        0.0375
     33 C           9.4227   76.0062   27.5443 C.ar    1  UNL1        0.1453
     34 O          10.3917   76.7760   27.1189 O.2     1  UNL1       -0.4492
     35 C           9.9578   77.4376   26.0652 C.ar    1  UNL1        0.1946
     36 C           8.6406   77.0588   25.7721 C.ar    1  UNL1        0.0203
     37 C           7.8021   77.5154   24.6122 C.3     1  UNL1        0.0345
     38 C           8.2947   76.1521   26.7727 C.ar    1  UNL1        0.0364
     39 C           5.9487   73.7650   28.5815 C.ar    1  UNL1        0.0001
     40 C           5.6043   72.5714   27.9245 C.ar    1  UNL1        0.0000
     41 C           4.4720   71.8521   28.3189 C.ar    1  UNL1        0.0000
     42 C           3.6722   72.3226   29.3639 C.ar    1  UNL1        0.0000
     43 C           4.0010   73.5154   30.0136 C.ar    1  UNL1        0.0000
     44 C           5.1327   74.2378   29.6226 C.ar    1  UNL1        0.0000
     45 C           4.8717   76.6512   26.6215 C.3     1  UNL1        0.0773
     46 C           5.8882   75.6157   26.2567 C.2     1  UNL1        0.1736
     47 O           5.7093   74.9098   25.2287 O.2     1  UNL1       -0.2913
@<TRIPOS>BOND
     1    45    46    1
     2    46    47    2
     3    46    29    1
     4    29    30   ar
     5    30    39    1
     6    39    40   ar
     7    40    41   ar
     8    41    42   ar
     9    42    43   ar
    10    43    44   ar
    11    30    31   ar
    12    31    32   ar
    13    32    33   ar
    14    33    34   ar
    15    34    35   ar
    16    35    25    1
    17    25    26    2
    18    25    27   am
    19    27     1    1
    20     1     2   ar
    21     2     3   ar
    22     3     4   ar
    23     4     7    1
    24     7     8    1
    25     8     9    1
    26     9    10    1
    27    10    13    1
    28    13    14    1
    29    14    15    1
    30    15    16   ar
    31    16    17   ar
    32    17    18   ar
    33    18    19   ar
    34    19    21    1
    35    21    22    2
    36    21    23    1
    37    19    20   ar
    38    10    11    1
    39    11    12    1
    40     4     5   ar
    41     5     6   ar
    42    35    36   ar
    43    36    37    1
    44    36    38   ar
    45    38    29   ar
    46    44    39   ar
    47    38    33   ar
    48     6     1   ar
    49    12     7    1
    50    20    15   ar
    51    27    28    1
    52    23    24    1
@<TRIPOS>MOLECULE
*****
 47 52 0 0 0
SMALL
GASTEIGER

@<TRIPOS>ATOM
      1 C          12.8727   82.9379   25.5470 C.ar    1  UNL1        0.0702
      2 C          13.5148   83.9362   26.2961 C.ar    1  UNL1        0.0191
      3 C          14.1767   84.9811   25.6495 C.ar    1  UNL1        0.0356
      4 C          14.2052   85.0219   24.2454 C.ar    1  UNL1        0.1318
      5 N          13.6002   84.0250   23.5417 N.ar    1  UNL1       -0.2279
      6 C          12.9507   82.9976   24.1500 C.ar    1  UNL1        0.1149
      7 N          14.8804   86.0833   23.5399 N.pl3   1  UNL1       -0.2932
      8 C          16.2488   85.9016   23.0344 C.3     1  UNL1        0.0923
      9 C          17.0565   87.1975   23.1788 C.3     1  UNL1        0.0252
     10 C          16.3162   88.4225   22.6036 C.3     1  UNL1        0.0472
     11 C          14.9069   88.5307   23.2175 C.3     1  UNL1        0.0252
     12 C          14.1049   87.2346   23.0585 C.3     1  UNL1        0.0923
     13 C          16.2755   88.4199   21.0637 C.3     1  UNL1        0.2054
     14 O          14.9356   88.2286   20.6146 O.3     1  UNL1       -0.4755
     15 C          14.4819   87.0948   19.9248 C.ar    1  UNL1        0.1388
     16 C          13.1140   86.9894   19.6531 C.ar    1  UNL1        0.0369
     17 C          12.6113   85.8818   18.9685 C.ar    1  UNL1        0.0033
     18 C          13.4724   84.8662   18.5478 C.ar    1  UNL1        0.0066
     19 C          14.8515   84.9494   18.8095 C.ar    1  UNL1        0.0785
     20 C          15.3502   86.0691   19.5003 C.ar    1  UNL1        0.0433
     21 C          15.7681   83.8754   18.3657 C.2     1  UNL1        0.3381
     22 O          16.2779   83.9069   17.2128 O.2     1  UNL1       -0.2451
     23 O          16.0770   82.8183   19.2181 O.3     1  UNL1       -0.4771
     24 H          16.7031   82.0784   18.9238 H       1  UNL1        0.2954
     25 C          10.9499   81.2898   25.7288 C.2     1  UNL1        0.2839
     26 O          10.4860   81.6128   24.6027 O.2     1  UNL1       -0.2665
     27 N          12.2033   81.8316   26.1759 N.am    1  UNL1       -0.2766
     28 H          12.7017   81.3360   26.9497 H       1  UNL1        0.1553
     29 C           7.9837   77.7160   27.6871 C.ar    1  UNL1        0.0374
     30 C           7.7355   77.4257   29.0617 C.ar    1  UNL1        0.0029
     31 C           8.3838   78.1781   30.0706 C.ar    1  UNL1        0.0032
     32 C           9.2508   79.2272   29.7411 C.ar    1  UNL1        0.0375
     33 C           9.4746   79.4946   28.3976 C.ar    1  UNL1        0.1453
     34 O          10.2503   80.4289   27.9097 O.2     1  UNL1       -0.4492
     35 C          10.2130   80.3481   26.5950 C.ar    1  UNL1        0.1946
     36 C           9.3867   79.2853   26.2047 C.ar    1  UNL1        0.0203
     37 C           9.1297   78.8025   24.8055 C.3     1  UNL1        0.0345
     38 C           8.8822   78.7645   27.3951 C.ar    1  UNL1        0.0364
     39 C           6.7787   76.3751   29.4784 C.ar    1  UNL1        0.0001
     40 C           5.3997   76.6424   29.5225 C.ar    1  UNL1        0.0000
     41 C           4.5020   75.6470   29.9205 C.ar    1  UNL1        0.0000
     42 C           4.9740   74.3831   30.2849 C.ar    1  UNL1        0.0000
     43 C           6.3450   74.1136   30.2557 C.ar    1  UNL1        0.0000
     44 C           7.2463   75.1060   29.8581 C.ar    1  UNL1        0.0000
     45 C           7.8732   75.6482   26.1348 C.3     1  UNL1        0.0773
     46 C           7.3171   76.9522   26.6130 C.2     1  UNL1        0.1736
     47 O           6.2459   77.3876   26.1128 O.2     1  UNL1       -0.2913
@<TRIPOS>BOND
     1    45    46    1
     2    46    47    2
     3    46    29    1
     4    29    30   ar
     5    30    39    1
     6    39    40   ar
     7    40    41   ar
     8    41    42   ar
     9    42    43   ar
    10    43    44   ar
    11    30    31   ar
    12    31    32   ar
    13    32    33   ar
    14    33    34   ar
    15    34    35   ar
    16    35    25    1
    17    25    26    2
    18    25    27   am
    19    27     1    1
    20     1     2   ar
    21     2     3   ar
    22     3     4   ar
    23     4     7    1
    24     7     8    1
    25     8     9    1
    26     9    10    1
    27    10    13    1
    28    13    14    1
    29    14    15    1
    30    15    16   ar
    31    16    17   ar
    32    17    18   ar
    33    18    19   ar
    34    19    21    1
    35    21    22    2
    36    21    23    1
    37    19    20   ar
    38    10    11    1
    39    11    12    1
    40     4     5   ar
    41     5     6   ar
    42    35    36   ar
    43    36    37    1
    44    36    38   ar
    45    38    29   ar
    46    44    39   ar
    47    38    33   ar
    48     6     1   ar
    49    12     7    1
    50    20    15   ar
    51    27    28    1
    52    23    24    1
@<TRIPOS>MOLECULE
*****
 47 52 0 0 0
SMALL
GASTEIGER

@<TRIPOS>ATOM
      1 C          12.2873   81.5023   25.7205 C.ar    1  UNL1        0.0702
      2 C          11.8837   81.9385   24.4490 C.ar    1  UNL1        0.0191
      3 C          12.4962   83.0462   23.8608 C.ar    1  UNL1        0.0356
      4 C          13.5112   83.7276   24.5530 C.ar    1  UNL1        0.1318
      5 N          13.8637   83.3026   25.7982 N.ar    1  UNL1       -0.2279
      6 C          13.2805   82.2274   26.3906 C.ar    1  UNL1        0.1149
      7 N          14.1670   84.8776   23.9807 N.pl3   1  UNL1       -0.2932
      8 C          14.9209   84.7679   22.7234 C.3     1  UNL1        0.0923
      9 C          16.1710   85.6559   22.7618 C.3     1  UNL1        0.0252
     10 C          15.8560   87.1014   23.1983 C.3     1  UNL1        0.0472
     11 C          15.0886   87.0998   24.5347 C.3     1  UNL1        0.0252
     12 C          13.8361   86.2184   24.4821 C.3     1  UNL1        0.0923
     13 C          15.1153   87.9002   22.1091 C.3     1  UNL1        0.2054
     14 O          15.4728   87.4078   20.8194 O.3     1  UNL1       -0.4755
     15 C          14.6494   86.6026   20.0188 C.ar    1  UNL1        0.1388
     16 C          13.2698   86.8304   20.0503 C.ar    1  UNL1        0.0369
     17 C          12.4066   86.0577   19.2716 C.ar    1  UNL1        0.0033
     18 C          12.9146   85.0475   18.4523 C.ar    1  UNL1        0.0066
     19 C          14.2978   84.7992   18.4040 C.ar    1  UNL1        0.0785
     20 C          15.1611   85.5824   19.1920 C.ar    1  UNL1        0.0433
     21 C          14.8409   83.7295   17.5371 C.2     1  UNL1        0.3381
     22 O          15.8783   83.9303   16.8491 O.2     1  UNL1       -0.2451
     23 O          14.2107   82.4893   17.4730 O.3     1  UNL1       -0.4771
     24 H          14.5744   81.7507   16.8828 H       1  UNL1        0.2954
     25 C          11.6251   79.0534   25.8252 C.2     1  UNL1        0.2839
     26 O          12.3554   78.7508   24.8441 O.2     1  UNL1       -0.2665
     27 N          11.6627   80.3822   26.3707 N.am    1  UNL1       -0.2766
     28 H          11.2917   80.5243   27.3376 H       1  UNL1        0.1553
     29 C           7.7582   76.1619   27.2713 C.ar    1  UNL1        0.0374
     30 C           7.7479   75.1171   28.2428 C.ar    1  UNL1        0.0029
     31 C           8.9423   74.7696   28.9187 C.ar    1  UNL1        0.0032
     32 C          10.1370   75.4556   28.6679 C.ar    1  UNL1        0.0375
     33 C          10.1231   76.4709   27.7217 C.ar    1  UNL1        0.1453
     34 O          11.1403   77.2108   27.3603 O.2     1  UNL1       -0.4492
     35 C          10.7300   78.0445   26.4261 C.ar    1  UNL1        0.1946
     36 C           9.3757   77.8181   26.1447 C.ar    1  UNL1        0.0203
     37 C           8.5412   78.4970   25.0961 C.3     1  UNL1        0.0345
     38 C           8.9866   76.8132   27.0287 C.ar    1  UNL1        0.0364
     39 C           6.5049   74.3980   28.6042 C.ar    1  UNL1        0.0001
     40 C           5.7356   74.8114   29.7053 C.ar    1  UNL1        0.0000
     41 C           4.5649   74.1257   30.0434 C.ar    1  UNL1        0.0000
     42 C           4.1593   73.0194   29.2919 C.ar    1  UNL1        0.0000
     43 C           4.9258   72.5945   28.2033 C.ar    1  UNL1        0.0000
     44 C           6.0971   73.2776   27.8614 C.ar    1  UNL1        0.0000
     45 C           6.1273   75.8714   25.2829 C.3     1  UNL1        0.0773
     46 C           6.5265   76.5505   26.5550 C.2     1  UNL1        0.1736
     47 O           5.7821   77.4450   27.0375 O.2     1  UNL1       -0.2913
@<TRIPOS>BOND
     1    45    46    1
     2    46    47    2
     3    46    29    1
     4    29    30   ar
     5    30    39    1
     6    39    40   ar
     7    40    41   ar
     8    41    42   ar
     9    42    43   ar
    10    43    44   ar
    11    30    31   ar
    12    31    32   ar
    13    32    33   ar
    14    33    34   ar
    15    34    35   ar
    16    35    25    1
    17    25    26    2
    18    25    27   am
    19    27     1    1
    20     1     2   ar
    21     2     3   ar
    22     3     4   ar
    23     4     7    1
    24     7     8    1
    25     8     9    1
    26     9    10    1
    27    10    13    1
    28    13    14    1
    29    14    15    1
    30    15    16   ar
    31    16    17   ar
    32    17    18   ar
    33    18    19   ar
    34    19    21    1
    35    21    22    2
    36    21    23    1
    37    19    20   ar
    38    10    11    1
    39    11    12    1
    40     4     5   ar
    41     5     6   ar
    42    35    36   ar
    43    36    37    1
    44    36    38   ar
    45    38    29   ar
    46    44    39   ar
    47    38    33   ar
    48     6     1   ar
    49    12     7    1
    50    20    15   ar
    51    27    28    1
    52    23    24    1
@<TRIPOS>MOLECULE
*****
 47 52 0 0 0
SMALL
GASTEIGER

@<TRIPOS>ATOM
      1 C          12.2529   80.8931   25.5451 C.ar    1  UNL1        0.0702
      2 C          13.6404   80.9598   25.3445 C.ar    1  UNL1        0.0191
      3 C          14.2202   82.1240   24.8380 C.ar    1  UNL1        0.0356
      4 C          13.4061   83.2241   24.5207 C.ar    1  UNL1        0.1318
      5 N          12.0592   83.1234   24.6963 N.ar    1  UNL1       -0.2279
      6 C          11.4728   81.9997   25.1871 C.ar    1  UNL1        0.1149
      7 N          13.9664   84.4439   23.9931 N.pl3   1  UNL1       -0.2932
      8 C          14.6044   84.4699   22.6689 C.3     1  UNL1        0.0923
      9 C          15.8214   85.4033   22.6718 C.3     1  UNL1        0.0252
     10 C          15.4987   86.7934   23.2571 C.3     1  UNL1        0.0472
     11 C          14.8585   86.6496   24.6515 C.3     1  UNL1        0.0252
     12 C          13.6375   85.7237   24.6353 C.3     1  UNL1        0.0923
     13 C          14.6336   87.6475   22.3109 C.3     1  UNL1        0.2054
     14 O          15.0989   87.5075   20.9702 O.3     1  UNL1       -0.4755
     15 C          14.5803   86.5956   20.0392 C.ar    1  UNL1        0.1388
     16 C          13.1922   86.5296   19.8808 C.ar    1  UNL1        0.0369
     17 C          12.6253   85.6400   18.9668 C.ar    1  UNL1        0.0033
     18 C          13.4416   84.8055   18.2005 C.ar    1  UNL1        0.0066
     19 C          14.8398   84.8532   18.3422 C.ar    1  UNL1        0.0785
     20 C          15.4033   85.7526   19.2658 C.ar    1  UNL1        0.0433
     21 C          15.7091   83.9706   17.5322 C.2     1  UNL1        0.3381
     22 O          15.4108   83.7032   16.3365 O.2     1  UNL1       -0.2451
     23 O          16.8664   83.4264   18.0833 O.3     1  UNL1       -0.4771
     24 H          17.4680   82.8212   17.5374 H       1  UNL1        0.2954
     25 C          10.6074   78.9723   25.3222 C.2     1  UNL1        0.2839
     26 O          10.3999   79.2110   24.1026 O.2     1  UNL1       -0.2665
     27 N          11.6154   79.7029   26.0397 N.am    1  UNL1       -0.2766
     28 H          11.9698   79.2959   26.9349 H       1  UNL1        0.1553
     29 C           7.1043   75.7400   26.9608 C.ar    1  UNL1        0.0374
     30 C           7.1560   74.8781   28.0966 C.ar    1  UNL1        0.0029
     31 C           8.3146   74.8502   28.9097 C.ar    1  UNL1        0.0032
     32 C           9.4089   75.6787   28.6321 C.ar    1  UNL1        0.0375
     33 C           9.3353   76.5119   27.5244 C.ar    1  UNL1        0.1453
     34 O          10.2581   77.3450   27.1157 O.2     1  UNL1       -0.4492
     35 C           9.8217   77.9366   26.0222 C.ar    1  UNL1        0.1946
     36 C           8.5540   77.4427   25.6850 C.ar    1  UNL1        0.0203
     37 C           7.7361   77.7938   24.4748 C.3     1  UNL1        0.0345
     38 C           8.2361   76.5417   26.6999 C.ar    1  UNL1        0.0364
     39 C           6.0081   74.0271   28.4850 C.ar    1  UNL1        0.0001
     40 C           5.1465   74.4211   29.5230 C.ar    1  UNL1        0.0000
     41 C           4.0666   73.6110   29.8873 C.ar    1  UNL1        0.0000
     42 C           3.8446   72.4003   29.2254 C.ar    1  UNL1        0.0000
     43 C           4.7045   71.9957   28.2007 C.ar    1  UNL1        0.0000
     44 C           5.7855   72.8029   27.8330 C.ar    1  UNL1        0.0000
     45 C           4.7859   76.7409   26.3941 C.3     1  UNL1        0.0773
     46 C           5.9068   75.7951   26.0981 C.2     1  UNL1        0.1736
     47 O           5.8401   75.0582   25.0784 O.2     1  UNL1       -0.2913
@<TRIPOS>BOND
     1    45    46    1
     2    46    47    2
     3    46    29    1
     4    29    30   ar
     5    30    39    1
     6    39    40   ar
     7    40    41   ar
     8    41    42   ar
     9    42    43   ar
    10    43    44   ar
    11    30    31   ar
    12    31    32   ar
    13    32    33   ar
    14    33    34   ar
    15    34    35   ar
    16    35    25    1
    17    25    26    2
    18    25    27   am
    19    27     1    1
    20     1     2   ar
    21     2     3   ar
    22     3     4   ar
    23     4     7    1
    24     7     8    1
    25     8     9    1
    26     9    10    1
    27    10    13    1
    28    13    14    1
    29    14    15    1
    30    15    16   ar
    31    16    17   ar
    32    17    18   ar
    33    18    19   ar
    34    19    21    1
    35    21    22    2
    36    21    23    1
    37    19    20   ar
    38    10    11    1
    39    11    12    1
    40     4     5   ar
    41     5     6   ar
    42    35    36   ar
    43    36    37    1
    44    36    38   ar
    45    38    29   ar
    46    44    39   ar
    47    38    33   ar
    48     6     1   ar
    49    12     7    1
    50    20    15   ar
    51    27    28    1
    52    23    24    1
@<TRIPOS>MOLECULE
*****
 47 52 0 0 0
SMALL
GASTEIGER

@<TRIPOS>ATOM
      1 C          11.6091   81.5580   25.5893 C.ar    1  UNL1        0.0702
      2 C          12.6384   82.0963   26.3772 C.ar    1  UNL1        0.0191
      3 C          13.4664   83.0947   25.8620 C.ar    1  UNL1        0.0356
      4 C          13.2702   83.5499   24.5474 C.ar    1  UNL1        0.1318
      5 N          12.2837   82.9901   23.7933 N.ar    1  UNL1       -0.2279
      6 C          11.4663   82.0164   24.2738 C.ar    1  UNL1        0.1149
      7 N          14.1058   84.5781   23.9776 N.pl3   1  UNL1       -0.2932
      8 C          14.8178   84.3555   22.7109 C.3     1  UNL1        0.0923
      9 C          16.2007   85.0182   22.7426 C.3     1  UNL1        0.0252
     10 C          16.1397   86.4916   23.1952 C.3     1  UNL1        0.0472
     11 C          15.3963   86.6061   24.5402 C.3     1  UNL1        0.0252
     12 C          14.0121   85.9503   24.4944 C.3     1  UNL1        0.0923
     13 C          15.5345   87.4157   22.1216 C.3     1  UNL1        0.2054
     14 O          15.8287   86.9068   20.8223 O.3     1  UNL1       -0.4755
     15 C          14.8968   86.2758   19.9852 C.ar    1  UNL1        0.1388
     16 C          13.5545   86.6560   20.0850 C.ar    1  UNL1        0.0369
     17 C          12.5876   86.0598   19.2739 C.ar    1  UNL1        0.0033
     18 C          12.9530   85.0755   18.3534 C.ar    1  UNL1        0.0066
     19 C          14.2961   84.6761   18.2350 C.ar    1  UNL1        0.0785
     20 C          15.2647   85.2819   19.0563 C.ar    1  UNL1        0.0433
     21 C          14.6883   83.6332   17.2607 C.2     1  UNL1        0.3381
     22 O          15.3964   83.9281   16.2599 O.2     1  UNL1       -0.2451
     23 O          14.2787   82.3143   17.4402 O.3     1  UNL1       -0.4771
     24 H          14.5418   81.5932   16.7791 H       1  UNL1        0.2954
     25 C          10.4935   79.2883   25.3644 C.2     1  UNL1        0.2839
     26 O          11.2029   78.9696   24.3731 O.2     1  UNL1       -0.2665
     27 N          10.7525   80.5100   26.0749 N.am    1  UNL1       -0.2766
     28 H          10.3661   80.6046   27.0415 H       1  UNL1        0.1553
     29 C           7.4404   76.0836   27.7756 C.ar    1  UNL1        0.0374
     30 C           6.2002   75.5367   27.3304 C.ar    1  UNL1        0.0029
     31 C           5.6773   75.9078   26.0682 C.ar    1  UNL1        0.0032
     32 C           6.3736   76.7885   25.2313 C.ar    1  UNL1        0.0375
     33 C           7.5800   77.3054   25.6830 C.ar    1  UNL1        0.1453
     34 O           8.3585   78.1379   25.0400 O.2     1  UNL1       -0.4492
     35 C           9.3950   78.4068   25.8078 C.ar    1  UNL1        0.1946
     36 C           9.2724   77.7317   27.0300 C.ar    1  UNL1        0.0203
     37 C          10.1950   77.8211   28.2123 C.3     1  UNL1        0.0345
     38 C           8.1003   76.9864   26.9145 C.ar    1  UNL1        0.0364
     39 C           5.4472   74.5487   28.1365 C.ar    1  UNL1        0.0001
     40 C           5.4327   73.1918   27.7709 C.ar    1  UNL1        0.0000
     41 C           4.7167   72.2646   28.5343 C.ar    1  UNL1        0.0000
     42 C           4.0044   72.6857   29.6605 C.ar    1  UNL1        0.0000
     43 C           4.0036   74.0354   30.0231 C.ar    1  UNL1        0.0000
     44 C           4.7186   74.9660   29.2626 C.ar    1  UNL1        0.0000
     45 C           8.9106   74.5207   29.2225 C.3     1  UNL1        0.0773
     46 C           8.0135   75.7101   29.0846 C.2     1  UNL1        0.1736
     47 O           7.7705   76.4211   30.0958 O.2     1  UNL1       -0.2913
@<TRIPOS>BOND
     1    45    46    1
     2    46    47    2
     3    46    29    1
     4    29    30   ar
     5    30    39    1
     6    39    40   ar
     7    40    41   ar
     8    41    42   ar
     9    42    43   ar
    10    43    44   ar
    11    30    31   ar
    12    31    32   ar
    13    32    33   ar
    14    33    34   ar
    15    34    35   ar
    16    35    25    1
    17    25    26    2
    18    25    27   am
    19    27     1    1
    20     1     2   ar
    21     2     3   ar
    22     3     4   ar
    23     4     7    1
    24     7     8    1
    25     8     9    1
    26     9    10    1
    27    10    13    1
    28    13    14    1
    29    14    15    1
    30    15    16   ar
    31    16    17   ar
    32    17    18   ar
    33    18    19   ar
    34    19    21    1
    35    21    22    2
    36    21    23    1
    37    19    20   ar
    38    10    11    1
    39    11    12    1
    40     4     5   ar
    41     5     6   ar
    42    35    36   ar
    43    36    37    1
    44    36    38   ar
    45    38    29   ar
    46    44    39   ar
    47    38    33   ar
    48     6     1   ar
    49    12     7    1
    50    20    15   ar
    51    27    28    1
    52    23    24    1
@<TRIPOS>MOLECULE
*****
 47 52 0 0 0
SMALL
GASTEIGER

@<TRIPOS>ATOM
      1 C          12.9861   82.9902   25.4873 C.ar    1  UNL1        0.0702
      2 C          13.0062   83.1322   24.0911 C.ar    1  UNL1        0.0191
      3 C          13.6536   84.2218   23.5066 C.ar    1  UNL1        0.0356
      4 C          14.2759   85.1801   24.3239 C.ar    1  UNL1        0.1318
      5 N          14.2164   85.0353   25.6770 N.ar    1  UNL1       -0.2279
      6 C          13.5908   83.9833   26.2679 C.ar    1  UNL1        0.1149
      7 N          14.9532   86.3212   23.7588 N.pl3   1  UNL1       -0.2932
      8 C          16.2477   86.1694   23.0786 C.3     1  UNL1        0.0923
      9 C          17.1580   87.3684   23.3721 C.3     1  UNL1        0.0252
     10 C          16.4556   88.7188   23.1228 C.3     1  UNL1        0.0472
     11 C          15.1260   88.7798   23.8995 C.3     1  UNL1        0.0252
     12 C          14.2198   87.5832   23.5911 C.3     1  UNL1        0.0923
     13 C          16.2618   89.0172   21.6240 C.3     1  UNL1        0.2054
     14 O          16.1699   87.7952   20.8945 O.3     1  UNL1       -0.4755
     15 C          15.0080   87.3338   20.2585 C.ar    1  UNL1        0.1388
     16 C          14.9278   85.9762   19.9319 C.ar    1  UNL1        0.0369
     17 C          13.7929   85.4660   19.2994 C.ar    1  UNL1        0.0033
     18 C          12.7248   86.3092   18.9862 C.ar    1  UNL1        0.0066
     19 C          12.7823   87.6777   19.3041 C.ar    1  UNL1        0.0785
     20 C          13.9298   88.1842   19.9416 C.ar    1  UNL1        0.0433
     21 C          11.6527   88.5754   18.9741 C.2     1  UNL1        0.3381
     22 O          11.7741   89.4502   18.0740 O.2     1  UNL1       -0.2451
     23 O          10.4433   88.4625   19.6551 O.3     1  UNL1       -0.4771
     24 H           9.6642   89.0720   19.4367 H       1  UNL1        0.2954
     25 C          11.0463   81.3645   25.6896 C.2     1  UNL1        0.2839
     26 O          10.5821   81.6829   24.5623 O.2     1  UNL1       -0.2665
     27 N          12.3071   81.8965   26.1278 N.am    1  UNL1       -0.2766
     28 H          12.8029   81.4021   26.9040 H       1  UNL1        0.1553
     29 C           8.0665   77.8234   27.6862 C.ar    1  UNL1        0.0374
     30 C           7.8053   77.5587   29.0636 C.ar    1  UNL1        0.0029
     31 C           8.4426   78.3312   30.0643 C.ar    1  UNL1        0.0032
     32 C           9.3111   79.3754   29.7235 C.ar    1  UNL1        0.0375
     33 C           9.5477   79.6177   28.3774 C.ar    1  UNL1        0.1453
     34 O          10.3268   80.5438   27.8794 O.2     1  UNL1       -0.4492
     35 C          10.3025   80.4381   26.5662 C.ar    1  UNL1        0.1946
     36 C           9.4816   79.3667   26.1881 C.ar    1  UNL1        0.0203
     37 C           9.2391   78.8571   24.7959 C.3     1  UNL1        0.0345
     38 C           8.9663   78.8677   27.3832 C.ar    1  UNL1        0.0364
     39 C           6.8461   76.5146   29.4907 C.ar    1  UNL1        0.0001
     40 C           5.4656   76.7772   29.5068 C.ar    1  UNL1        0.0000
     41 C           4.5655   75.7881   29.9148 C.ar    1  UNL1        0.0000
     42 C           5.0365   74.5353   30.3172 C.ar    1  UNL1        0.0000
     43 C           6.4088   74.2709   30.3161 C.ar    1  UNL1        0.0000
     44 C           7.3124   75.2571   29.9085 C.ar    1  UNL1        0.0000
     45 C           7.9701   75.7227   26.1777 C.3     1  UNL1        0.0773
     46 C           7.4116   77.0383   26.6204 C.2     1  UNL1        0.1736
     47 O           6.3483   77.4655   26.0969 O.2     1  UNL1       -0.2913
@<TRIPOS>BOND
     1    45    46    1
     2    46    47    2
     3    46    29    1
     4    29    30   ar
     5    30    39    1
     6    39    40   ar
     7    40    41   ar
     8    41    42   ar
     9    42    43   ar
    10    43    44   ar
    11    30    31   ar
    12    31    32   ar
    13    32    33   ar
    14    33    34   ar
    15    34    35   ar
    16    35    25    1
    17    25    26    2
    18    25    27   am
    19    27     1    1
    20     1     2   ar
    21     2     3   ar
    22     3     4   ar
    23     4     7    1
    24     7     8    1
    25     8     9    1
    26     9    10    1
    27    10    13    1
    28    13    14    1
    29    14    15    1
    30    15    16   ar
    31    16    17   ar
    32    17    18   ar
    33    18    19   ar
    34    19    21    1
    35    21    22    2
    36    21    23    1
    37    19    20   ar
    38    10    11    1
    39    11    12    1
    40     4     5   ar
    41     5     6   ar
    42    35    36   ar
    43    36    37    1
    44    36    38   ar
    45    38    29   ar
    46    44    39   ar
    47    38    33   ar
    48     6     1   ar
    49    12     7    1
    50    20    15   ar
    51    27    28    1
    52    23    24    1
@<TRIPOS>MOLECULE
*****
 47 52 0 0 0
SMALL
GASTEIGER

@<TRIPOS>ATOM
      1 C          12.2576   81.5444   25.6090 C.ar    1  UNL1        0.0702
      2 C          13.3214   82.2544   26.1870 C.ar    1  UNL1        0.0191
      3 C          13.8975   83.3294   25.5084 C.ar    1  UNL1        0.0356
      4 C          13.4133   83.6897   24.2397 C.ar    1  UNL1        0.1318
      5 N          12.4001   82.9659   23.6877 N.ar    1  UNL1       -0.2279
      6 C          11.8248   81.9150   24.3297 C.ar    1  UNL1        0.1149
      7 N          13.9830   84.7926   23.5054 N.pl3   1  UNL1       -0.2932
      8 C          15.1580   84.5981   22.6436 C.3     1  UNL1        0.0923
      9 C          16.0903   85.8138   22.7159 C.3     1  UNL1        0.0252
     10 C          15.3438   87.1452   22.4938 C.3     1  UNL1        0.0472
     11 C          14.1499   87.2552   23.4620 C.3     1  UNL1        0.0252
     12 C          13.2194   86.0409   23.3741 C.3     1  UNL1        0.0923
     13 C          14.9172   87.3469   21.0274 C.3     1  UNL1        0.2054
     14 O          13.6210   87.9393   20.9768 O.3     1  UNL1       -0.4755
     15 C          12.9869   88.3668   19.8010 C.ar    1  UNL1        0.1388
     16 C          11.6596   88.7998   19.8854 C.ar    1  UNL1        0.0369
     17 C          10.9835   89.2364   18.7450 C.ar    1  UNL1        0.0033
     18 C          11.6282   89.2445   17.5064 C.ar    1  UNL1        0.0066
     19 C          12.9621   88.8136   17.3962 C.ar    1  UNL1        0.0785
     20 C          13.6366   88.3749   18.5505 C.ar    1  UNL1        0.0433
     21 C          13.6497   88.8204   16.0855 C.2     1  UNL1        0.3381
     22 O          12.9857   88.7523   15.0157 O.2     1  UNL1       -0.2451
     23 O          15.0384   88.9021   16.0210 O.3     1  UNL1       -0.4771
     24 H          15.5184   88.9074   15.1290 H       1  UNL1        0.2954
     25 C          11.5587   79.1046   25.6835 C.2     1  UNL1        0.2839
     26 O          12.2188   78.8204   24.6486 O.2     1  UNL1       -0.2665
     27 N          11.6556   80.4151   26.2646 N.am    1  UNL1       -0.2766
     28 H          11.3502   80.5333   27.2574 H       1  UNL1        0.1553
     29 C           7.7573   76.1616   27.1980 C.ar    1  UNL1        0.0374
     30 C           7.7672   75.1480   28.2019 C.ar    1  UNL1        0.0029
     31 C           8.9656   74.8528   28.8955 C.ar    1  UNL1        0.0032
     32 C          10.1441   75.5610   28.6300 C.ar    1  UNL1        0.0375
     33 C          10.1106   76.5454   27.6521 C.ar    1  UNL1        0.1453
     34 O          11.1109   77.2993   27.2733 O.2     1  UNL1       -0.4492
     35 C          10.6857   78.0924   26.3108 C.ar    1  UNL1        0.1946
     36 C           9.3395   77.8225   26.0289 C.ar    1  UNL1        0.0203
     37 C           8.4949   78.4464   24.9545 C.3     1  UNL1        0.0345
     38 C           8.9703   76.8363   26.9420 C.ar    1  UNL1        0.0364
     39 C           6.5406   74.4090   28.5788 C.ar    1  UNL1        0.0001
     40 C           5.7836   74.8043   29.6948 C.ar    1  UNL1        0.0000
     41 C           4.6285   74.0998   30.0474 C.ar    1  UNL1        0.0000
     42 C           4.2264   72.9927   29.2953 C.ar    1  UNL1        0.0000
     43 C           4.9810   72.5857   28.1917 C.ar    1  UNL1        0.0000
     44 C           6.1368   73.2875   27.8354 C.ar    1  UNL1        0.0000
     45 C           6.1552   75.7771   25.2022 C.3     1  UNL1        0.0773
     46 C           6.5209   76.4957   26.4626 C.2     1  UNL1        0.1736
     47 O           5.7443   77.3765   26.9190 O.2     1  UNL1       -0.2913
@<TRIPOS>BOND
     1    45    46    1
     2    46    47    2
     3    46    29    1
     4    29    30   ar
     5    30    39    1
     6    39    40   ar
     7    40    41   ar
     8    41    42   ar
     9    42    43   ar
    10    43    44   ar
    11    30    31   ar
    12    31    32   ar
    13    32    33   ar
    14    33    34   ar
    15    34    35   ar
    16    35    25    1
    17    25    26    2
    18    25    27   am
    19    27     1    1
    20     1     2   ar
    21     2     3   ar
    22     3     4   ar
    23     4     7    1
    24     7     8    1
    25     8     9    1
    26     9    10    1
    27    10    13    1
    28    13    14    1
    29    14    15    1
    30    15    16   ar
    31    16    17   ar
    32    17    18   ar
    33    18    19   ar
    34    19    21    1
    35    21    22    2
    36    21    23    1
    37    19    20   ar
    38    10    11    1
    39    11    12    1
    40     4     5   ar
    41     5     6   ar
    42    35    36   ar
    43    36    37    1
    44    36    38   ar
    45    38    29   ar
    46    44    39   ar
    47    38    33   ar
    48     6     1   ar
    49    12     7    1
    50    20    15   ar
    51    27    28    1
    52    23    24    1
@<TRIPOS>MOLECULE
*****
 47 52 0 0 0
SMALL
GASTEIGER

@<TRIPOS>ATOM
      1 C          11.6890   81.2447   25.2481 C.ar    1  UNL1        0.0702
      2 C          13.0703   81.0744   25.0668 C.ar    1  UNL1        0.0191
      3 C          13.8525   82.1341   24.6050 C.ar    1  UNL1        0.0356
      4 C          13.2478   83.3681   24.3132 C.ar    1  UNL1        0.1318
      5 N          11.9009   83.4986   24.4688 N.ar    1  UNL1       -0.2279
      6 C          11.1196   82.4804   24.9162 C.ar    1  UNL1        0.1149
      7 N          14.0208   84.4865   23.8318 N.pl3   1  UNL1       -0.2932
      8 C          14.7303   84.4155   22.5462 C.3     1  UNL1        0.0923
      9 C          16.0758   85.1472   22.6285 C.3     1  UNL1        0.0252
     10 C          15.9405   86.5695   23.2101 C.3     1  UNL1        0.0472
     11 C          15.2063   86.5243   24.5643 C.3     1  UNL1        0.0252
     12 C          13.8589   85.8006   24.4686 C.3     1  UNL1        0.0923
     13 C          15.2751   87.5503   22.2261 C.3     1  UNL1        0.2054
     14 O          14.5295   86.8260   21.2497 O.3     1  UNL1       -0.4755
     15 C          13.6261   87.4062   20.3472 C.ar    1  UNL1        0.1388
     16 C          12.3329   87.6913   20.7973 C.ar    1  UNL1        0.0369
     17 C          11.3961   88.2699   19.9395 C.ar    1  UNL1        0.0033
     18 C          11.7428   88.5697   18.6205 C.ar    1  UNL1        0.0066
     19 C          13.0365   88.2920   18.1447 C.ar    1  UNL1        0.0785
     20 C          13.9750   87.7086   19.0157 C.ar    1  UNL1        0.0433
     21 C          13.4088   88.6080   16.7474 C.2     1  UNL1        0.3381
     22 O          12.5214   88.9015   15.9009 O.2     1  UNL1       -0.2451
     23 O          14.7443   88.5842   16.3535 O.3     1  UNL1       -0.4771
     24 H          15.0094   88.7989   15.3997 H       1  UNL1        0.2954
     25 C          10.2009   79.2328   24.8185 C.2     1  UNL1        0.2839
     26 O          10.5395   79.1642   23.6068 O.2     1  UNL1       -0.2665
     27 N          10.8456   80.1699   25.6965 N.am    1  UNL1       -0.2766
     28 H          10.7688   80.0073   26.7262 H       1  UNL1        0.1553
     29 C           7.2903   76.1465   27.5402 C.ar    1  UNL1        0.0374
     30 C           6.0836   75.4931   27.1497 C.ar    1  UNL1        0.0029
     31 C           5.5549   75.7025   25.8532 C.ar    1  UNL1        0.0032
     32 C           6.2140   76.5251   24.9313 C.ar    1  UNL1        0.0375
     33 C           7.3883   77.1476   25.3313 C.ar    1  UNL1        0.1453
     34 O           8.1300   77.9469   24.6076 O.2     1  UNL1       -0.4492
     35 C           9.1441   78.3476   25.3474 C.ar    1  UNL1        0.1946
     36 C           9.0439   77.7990   26.6333 C.ar    1  UNL1        0.0203
     37 C           9.9492   78.0590   27.8036 C.3     1  UNL1        0.0345
     38 C           7.9121   76.9866   26.5918 C.ar    1  UNL1        0.0364
     39 C           5.3738   74.5578   28.0520 C.ar    1  UNL1        0.0001
     40 C           4.6955   75.0363   29.1859 C.ar    1  UNL1        0.0000
     41 C           4.0304   74.1474   30.0358 C.ar    1  UNL1        0.0000
     42 C           4.0448   72.7763   29.7653 C.ar    1  UNL1        0.0000
     43 C           4.7278   72.2915   28.6466 C.ar    1  UNL1        0.0000
     44 C           5.3942   73.1771   27.7938 C.ar    1  UNL1        0.0000
     45 C           8.8056   74.8077   29.1556 C.3     1  UNL1        0.0773
     46 C           7.8687   75.9421   28.8837 C.2     1  UNL1        0.1736
     47 O           7.5960   76.7531   29.8084 O.2     1  UNL1       -0.2913
@<TRIPOS>BOND
     1    45    46    1
     2    46    47    2
     3    46    29    1
     4    29    30   ar
     5    30    39    1
     6    39    40   ar
     7    40    41   ar
     8    41    42   ar
     9    42    43   ar
    10    43    44   ar
    11    30    31   ar
    12    31    32   ar
    13    32    33   ar
    14    33    34   ar
    15    34    35   ar
    16    35    25    1
    17    25    26    2
    18    25    27   am
    19    27     1    1
    20     1     2   ar
    21     2     3   ar
    22     3     4   ar
    23     4     7    1
    24     7     8    1
    25     8     9    1
    26     9    10    1
    27    10    13    1
    28    13    14    1
    29    14    15    1
    30    15    16   ar
    31    16    17   ar
    32    17    18   ar
    33    18    19   ar
    34    19    21    1
    35    21    22    2
    36    21    23    1
    37    19    20   ar
    38    10    11    1
    39    11    12    1
    40     4     5   ar
    41     5     6   ar
    42    35    36   ar
    43    36    37    1
    44    36    38   ar
    45    38    29   ar
    46    44    39   ar
    47    38    33   ar
    48     6     1   ar
    49    12     7    1
    50    20    15   ar
    51    27    28    1
    52    23    24    1
@<TRIPOS>MOLECULE
*****
 47 52 0 0 0
SMALL
GASTEIGER

@<TRIPOS>ATOM
      1 C          12.6543   82.7156   25.2373 C.ar    1  UNL1        0.0702
      2 C          12.5795   83.1299   23.8984 C.ar    1  UNL1        0.0191
      3 C          13.2961   84.2482   23.4697 C.ar    1  UNL1        0.0356
      4 C          14.0840   84.9621   24.3879 C.ar    1  UNL1        0.1318
      5 N          14.1160   84.5574   25.6881 N.ar    1  UNL1       -0.2279
      6 C          13.4258   83.4723   26.1280 C.ar    1  UNL1        0.1149
      7 N          14.8375   86.1241   23.9849 N.pl3   1  UNL1       -0.2932
      8 C          15.9974   85.9980   23.0906 C.3     1  UNL1        0.0923
      9 C          17.0996   86.9871   23.4897 C.3     1  UNL1        0.0252
     10 C          16.5701   88.4263   23.6564 C.3     1  UNL1        0.0472
     11 C          15.3753   88.4457   24.6295 C.3     1  UNL1        0.0252
     12 C          14.2756   87.4618   24.2158 C.3     1  UNL1        0.0923
     13 C          16.2273   89.0904   22.3094 C.3     1  UNL1        0.2054
     14 O          14.8166   89.2703   22.2029 O.3     1  UNL1       -0.4755
     15 C          13.9865   88.5516   21.3302 C.ar    1  UNL1        0.1388
     16 C          12.6808   89.0115   21.1306 C.ar    1  UNL1        0.0369
     17 C          11.8149   88.3332   20.2713 C.ar    1  UNL1        0.0033
     18 C          12.2459   87.1862   19.6017 C.ar    1  UNL1        0.0066
     19 C          13.5538   86.7042   19.7865 C.ar    1  UNL1        0.0785
     20 C          14.4205   87.3935   20.6544 C.ar    1  UNL1        0.0433
     21 C          14.0152   85.4887   19.0790 C.2     1  UNL1        0.3381
     22 O          14.1176   85.4815   17.8222 O.2     1  UNL1       -0.2451
     23 O          14.3412   84.3398   19.7954 O.3     1  UNL1       -0.4771
     24 H          14.6579   83.5029   19.3206 H       1  UNL1        0.2954
     25 C          10.9396   80.8659   24.9452 C.2     1  UNL1        0.2839
     26 O          10.8637   81.0490   23.7009 O.2     1  UNL1       -0.2665
     27 N          11.9104   81.5850   25.7231 N.am    1  UNL1       -0.2766
     28 H          12.1547   81.2098   26.6677 H       1  UNL1        0.1553
     29 C           8.3705   77.9800   28.1820 C.ar    1  UNL1        0.0374
     30 C           7.4390   76.9386   27.8938 C.ar    1  UNL1        0.0029
     31 C           7.1224   76.6263   26.5497 C.ar    1  UNL1        0.0032
     32 C           7.7316   77.3089   25.4895 C.ar    1  UNL1        0.0375
     33 C           8.6375   78.3157   25.7930 C.ar    1  UNL1        0.1453
     34 O           9.2947   79.0545   24.9358 O.2     1  UNL1       -0.4492
     35 C          10.0366   79.9073   25.6130 C.ar    1  UNL1        0.1946
     36 C           9.8320   79.7316   26.9884 C.ar    1  UNL1        0.0203
     37 C          10.4235   80.5445   28.1047 C.3     1  UNL1        0.0345
     38 C           8.9448   78.6611   27.0874 C.ar    1  UNL1        0.0364
     39 C           6.8108   76.1328   28.9657 C.ar    1  UNL1        0.0001
     40 C           7.5449   75.1382   29.6342 C.ar    1  UNL1        0.0000
     41 C           6.9447   74.3785   30.6429 C.ar    1  UNL1        0.0000
     42 C           5.6077   74.5995   30.9848 C.ar    1  UNL1        0.0000
     43 C           4.8675   75.5781   30.3157 C.ar    1  UNL1        0.0000
     44 C           5.4640   76.3404   29.3065 C.ar    1  UNL1        0.0000
     45 C           7.8303   79.1866   30.4069 C.3     1  UNL1        0.0773
     46 C           8.7248   78.3237   29.5740 C.2     1  UNL1        0.1736
     47 O           9.7801   77.8578   30.0805 O.2     1  UNL1       -0.2913
@<TRIPOS>BOND
     1    45    46    1
     2    46    47    2
     3    46    29    1
     4    29    30   ar
     5    30    39    1
     6    39    40   ar
     7    40    41   ar
     8    41    42   ar
     9    42    43   ar
    10    43    44   ar
    11    30    31   ar
    12    31    32   ar
    13    32    33   ar
    14    33    34   ar
    15    34    35   ar
    16    35    25    1
    17    25    26    2
    18    25    27   am
    19    27     1    1
    20     1     2   ar
    21     2     3   ar
    22     3     4   ar
    23     4     7    1
    24     7     8    1
    25     8     9    1
    26     9    10    1
    27    10    13    1
    28    13    14    1
    29    14    15    1
    30    15    16   ar
    31    16    17   ar
    32    17    18   ar
    33    18    19   ar
    34    19    21    1
    35    21    22    2
    36    21    23    1
    37    19    20   ar
    38    10    11    1
    39    11    12    1
    40     4     5   ar
    41     5     6   ar
    42    35    36   ar
    43    36    37    1
    44    36    38   ar
    45    38    29   ar
    46    44    39   ar
    47    38    33   ar
    48     6     1   ar
    49    12     7    1
    50    20    15   ar
    51    27    28    1
    52    23    24    1
