@<TRIPOS>MOLECULE
*****
 39 41 0 0 0
SMALL
GASTEIGER

@<TRIPOS>ATOM
      1 N         -20.1985   -8.2154   -9.8125 N.pl3   1  UNL1       -0.2856
      2 C         -20.9319   -7.2148   -9.0213 C.3     1  UNL1        0.0945
      3 C         -21.9275   -6.4309   -9.8865 C.3     1  UNL1        0.0436
      4 C         -22.6679   -7.4014  -10.8206 C.3     1  UNL1        0.1024
      5 C         -21.6884   -8.0973  -11.8123 C.3     1  UNL1        0.1528
      6 C         -20.2359   -8.1472  -11.2816 C.3     1  UNL1        0.1237
      7 C         -18.1936  -10.1144   -7.4651 C.ar    1  UNL1        0.1486
      8 N         -19.0420   -9.1215   -7.8427 N.ar    1  UNL1       -0.2193
      9 C         -19.3811   -9.1979   -9.1475 C.ar    1  UNL1        0.1635
     10 S         -18.6556  -10.5249   -9.8883 S.2     1  UNL1       -0.0449
     11 C         -17.8661  -11.0206   -8.4852 C.ar    1  UNL1        0.1295
     12 N         -18.5940   -9.8747   -4.9680 N.am    1  UNL1       -0.2988
     13 C         -17.7354  -10.2111   -6.0707 C.2     1  UNL1        0.2644
     14 O         -16.5886  -10.6755   -5.8333 O.2     1  UNL1       -0.2685
     15 H         -18.4041  -10.3614   -4.0625 H       1  UNL1        0.1498
     16 C         -19.4688   -8.6923   -4.9078 C.3     1  UNL1        0.1015
     17 C         -20.6801   -8.9443   -4.0010 C.3     1  UNL1        0.0239
     18 C         -18.6982   -7.4280   -4.4937 C.3     1  UNL1        0.1617
     19 C         -16.6391   -6.7848   -5.3011 C.3     1  UNL1        0.1742
     20 O         -18.0095   -6.9080   -5.6122 O.3     1  UNL1       -0.3494
     21 C         -16.9363  -12.1621   -8.4301 C.2     1  UNL1        0.3459
     22 O         -17.3400  -13.3360   -8.6429 O.2     1  UNL1       -0.2445
     23 O         -15.5990  -11.9436   -8.1137 O.3     1  UNL1       -0.4767
     24 H         -14.9442  -12.7148   -8.0613 H       1  UNL1        0.2954
     25 N         -23.7449   -6.7099  -11.5391 N.am    1  UNL1       -0.2988
     26 C         -24.9500   -7.3851  -11.9283 C.2     1  UNL1        0.2624
     27 O         -25.2519   -8.4879  -11.3969 O.2     1  UNL1       -0.2685
     28 H         -23.6567   -5.6875  -11.7347 H       1  UNL1        0.1498
     29 C         -25.8637   -6.7970  -12.9248 C.ar    1  UNL1        0.1220
     30 N         -25.4731   -5.8724  -13.8262 N.ar    1  UNL1       -0.3515
     31 C         -26.5625   -5.5338  -14.5421 C.ar    1  UNL1        0.0456
     32 C         -26.5686   -4.4792  -15.6016 C.3     1  UNL1        0.0507
     33 C         -27.6673   -6.2233  -14.0805 C.ar    1  UNL1        0.0811
     34 CL        -29.3238   -6.0471  -14.6350 Cl      1  UNL1       -0.0802
     35 C         -27.2269   -7.0330  -13.0525 C.ar    1  UNL1        0.0893
     36 CL        -28.2549   -8.0162  -12.0201 Cl      1  UNL1       -0.0797
     37 H         -24.5106   -5.4828  -13.9415 H       1  UNL1        0.1658
     38 O         -21.6938   -7.4071  -13.0540 O.3     1  UNL1       -0.3501
     39 C         -21.7917   -8.3140  -14.1301 C.3     1  UNL1        0.1741
@<TRIPOS>BOND
     1    19    20    1
     2    20    18    1
     3    18    16    1
     4    16    17    1
     5    16    12    1
     6    12    13   am
     7    13    14    2
     8    13     7    1
     9     7     8   ar
    10     8     9   ar
    11     9     1    1
    12     1     2    1
    13     2     3    1
    14     3     4    1
    15     4    25    1
    16    25    26   am
    17    26    27    2
    18    26    29    1
    19    29    30   ar
    20    30    31   ar
    21    31    32    1
    22    31    33   ar
    23    33    34    1
    24    33    35   ar
    25    35    36    1
    26     4     5    1
    27     5    38    1
    28    38    39    1
    29     5     6    1
    30     9    10   ar
    31    10    11   ar
    32    11    21    1
    33    21    22    2
    34    21    23    1
    35    11     7   ar
    36     6     1    1
    37    35    29   ar
    38    12    15    1
    39    25    28    1
    40    30    37    1
    41    23    24    1
@<TRIPOS>MOLECULE
*****
 39 41 0 0 0
SMALL
GASTEIGER

@<TRIPOS>ATOM
      1 N         -21.7472   -9.9884  -11.6756 N.pl3   1  UNL1       -0.2856
      2 C         -22.7764   -9.5407  -10.7241 C.3     1  UNL1        0.0945
      3 C         -22.2866   -9.6441   -9.2736 C.3     1  UNL1        0.0436
      4 C         -20.8429   -9.1247   -9.1830 C.3     1  UNL1        0.1024
      5 C         -19.8690   -9.9965  -10.0308 C.3     1  UNL1        0.1528
      6 C         -20.5833  -10.7417  -11.1834 C.3     1  UNL1        0.1237
      7 C         -22.2095  -10.3101  -15.2560 C.ar    1  UNL1        0.1486
      8 N         -22.1619  -10.7565  -13.9727 N.ar    1  UNL1       -0.2193
      9 C         -21.9283   -9.7642  -13.0872 C.ar    1  UNL1        0.1635
     10 S         -21.7935   -8.2755  -13.8628 S.2     1  UNL1       -0.0449
     11 C         -22.0350   -8.9251  -15.3982 C.ar    1  UNL1        0.1295
     12 N         -23.7388  -11.9334  -16.4724 N.am    1  UNL1       -0.2988
     13 C         -22.4824  -11.2444  -16.3589 C.2     1  UNL1        0.2644
     14 O         -21.6237  -11.3842  -17.2701 O.2     1  UNL1       -0.2685
     15 H         -24.0391  -12.2018  -17.4370 H       1  UNL1        0.1498
     16 C         -24.4529  -12.5784  -15.3583 C.3     1  UNL1        0.1015
     17 C         -25.6727  -11.7531  -14.9297 C.3     1  UNL1        0.0239
     18 C         -24.8325  -14.0322  -15.6843 C.3     1  UNL1        0.1617
     19 C         -22.9489  -15.2739  -15.2198 C.3     1  UNL1        0.1742
     20 O         -24.2247  -14.8993  -14.7490 O.3     1  UNL1       -0.3494
     21 C         -21.9707   -8.1345  -16.6398 C.2     1  UNL1        0.3459
     22 O         -22.9854   -7.9990  -17.3735 O.2     1  UNL1       -0.2445
     23 O         -20.7664   -7.5506  -17.0203 O.3     1  UNL1       -0.4767
     24 H         -20.6973   -7.0106  -17.8746 H       1  UNL1        0.2954
     25 N         -20.4048   -9.0511   -7.7841 N.am    1  UNL1       -0.2988
     26 C         -19.5043   -8.0320   -7.3259 C.2     1  UNL1        0.2624
     27 O         -19.3153   -6.9999   -8.0250 O.2     1  UNL1       -0.2685
     28 H         -20.7916   -9.7286   -7.0894 H       1  UNL1        0.1498
     29 C         -18.8111   -8.1555   -6.0304 C.ar    1  UNL1        0.1220
     30 N         -17.4713   -8.0652   -5.9011 N.ar    1  UNL1       -0.3515
     31 C         -17.1858   -8.2636   -4.5999 C.ar    1  UNL1        0.0456
     32 C         -15.7967   -8.3145   -4.0500 C.3     1  UNL1        0.0507
     33 C         -18.3459   -8.5115   -3.8916 C.ar    1  UNL1        0.0811
     34 CL        -18.4712   -8.9194   -2.1885 Cl      1  UNL1       -0.0802
     35 C         -19.3853   -8.4397   -4.7976 C.ar    1  UNL1        0.0893
     36 CL        -21.0662   -8.8176   -4.4497 Cl      1  UNL1       -0.0797
     37 H         -16.7824   -7.8865   -6.6659 H       1  UNL1        0.1658
     38 O         -19.2344  -10.9550   -9.1960 O.3     1  UNL1       -0.3501
     39 C         -17.8310  -10.8627   -9.3055 C.3     1  UNL1        0.1741
@<TRIPOS>BOND
     1    19    20    1
     2    20    18    1
     3    18    16    1
     4    16    17    1
     5    16    12    1
     6    12    13   am
     7    13    14    2
     8    13     7    1
     9     7     8   ar
    10     8     9   ar
    11     9     1    1
    12     1     2    1
    13     2     3    1
    14     3     4    1
    15     4    25    1
    16    25    26   am
    17    26    27    2
    18    26    29    1
    19    29    30   ar
    20    30    31   ar
    21    31    32    1
    22    31    33   ar
    23    33    34    1
    24    33    35   ar
    25    35    36    1
    26     4     5    1
    27     5    38    1
    28    38    39    1
    29     5     6    1
    30     9    10   ar
    31    10    11   ar
    32    11    21    1
    33    21    22    2
    34    21    23    1
    35    11     7   ar
    36     6     1    1
    37    35    29   ar
    38    12    15    1
    39    25    28    1
    40    30    37    1
    41    23    24    1
@<TRIPOS>MOLECULE
*****
 39 41 0 0 0
SMALL
GASTEIGER

@<TRIPOS>ATOM
      1 N         -22.4516   -7.1636  -11.9564 N.pl3   1  UNL1       -0.2856
      2 C         -21.7750   -5.9326  -11.5184 C.3     1  UNL1        0.0945
      3 C         -21.5849   -5.9047   -9.9960 C.3     1  UNL1        0.0436
      4 C         -21.1103   -7.2851   -9.5146 C.3     1  UNL1        0.1024
      5 C         -22.1769   -8.3850   -9.7965 C.3     1  UNL1        0.1528
      6 C         -23.1241   -8.0143  -10.9623 C.3     1  UNL1        0.1237
      7 C         -21.8428   -8.3191  -15.3373 C.ar    1  UNL1        0.1486
      8 N         -21.6052   -8.2310  -14.0016 N.ar    1  UNL1       -0.2193
      9 C         -22.5266   -7.4812  -13.3597 C.ar    1  UNL1        0.1635
     10 S         -23.6979   -6.9107  -14.4268 S.2     1  UNL1       -0.0449
     11 C         -22.9949   -7.6450  -15.7701 C.ar    1  UNL1        0.1295
     12 N         -21.3878  -10.3654  -16.7723 N.am    1  UNL1       -0.2988
     13 C         -20.9588   -9.1190  -16.1990 C.2     1  UNL1        0.2644
     14 O         -19.8257   -8.6623  -16.5065 O.2     1  UNL1       -0.2685
     15 H         -20.9392  -10.6437  -17.6746 H       1  UNL1        0.1498
     16 C         -22.1265  -11.4167  -16.0538 C.3     1  UNL1        0.1015
     17 C         -22.3464  -12.6467  -16.9435 C.3     1  UNL1        0.0239
     18 C         -21.4503  -11.7871  -14.7236 C.3     1  UNL1        0.1617
     19 C         -21.5429  -11.4942  -12.4408 C.3     1  UNL1        0.1742
     20 O         -22.2606  -11.3605  -13.6478 O.3     1  UNL1       -0.3494
     21 C         -23.5013   -7.4904  -17.1450 C.2     1  UNL1        0.3459
     22 O         -23.9193   -6.3767  -17.5589 O.2     1  UNL1       -0.2445
     23 O         -23.5422   -8.5953  -17.9898 O.3     1  UNL1       -0.4767
     24 H         -23.8950   -8.5137  -18.9359 H       1  UNL1        0.2954
     25 N         -20.7564   -7.2444   -8.0907 N.am    1  UNL1       -0.2988
     26 C         -19.8695   -8.2079   -7.5036 C.2     1  UNL1        0.2624
     27 O         -19.1311   -8.9140   -8.2423 O.2     1  UNL1       -0.2685
     28 H         -21.1209   -6.4684   -7.4937 H       1  UNL1        0.1498
     29 C         -19.7835   -8.3706   -6.0407 C.ar    1  UNL1        0.1220
     30 N         -20.8040   -8.8353   -5.2907 N.ar    1  UNL1       -0.3515
     31 C         -20.3931   -8.8144   -4.0083 C.ar    1  UNL1        0.0456
     32 C         -21.2607   -9.1866   -2.8491 C.3     1  UNL1        0.0507
     33 C         -19.1107   -8.3066   -3.9287 C.ar    1  UNL1        0.0811
     34 CL        -18.1902   -7.9997   -2.4653 Cl      1  UNL1       -0.0802
     35 C         -18.7156   -8.0259   -5.2215 C.ar    1  UNL1        0.0893
     36 CL        -17.2188   -7.2248   -5.6769 Cl      1  UNL1       -0.0797
     37 H         -21.7408   -9.1431   -5.6358 H       1  UNL1        0.1658
     38 O         -22.9579   -8.6046   -8.6303 O.3     1  UNL1       -0.3501
     39 C         -23.8223   -9.7055   -8.8069 C.3     1  UNL1        0.1741
@<TRIPOS>BOND
     1    19    20    1
     2    20    18    1
     3    18    16    1
     4    16    17    1
     5    16    12    1
     6    12    13   am
     7    13    14    2
     8    13     7    1
     9     7     8   ar
    10     8     9   ar
    11     9     1    1
    12     1     2    1
    13     2     3    1
    14     3     4    1
    15     4    25    1
    16    25    26   am
    17    26    27    2
    18    26    29    1
    19    29    30   ar
    20    30    31   ar
    21    31    32    1
    22    31    33   ar
    23    33    34    1
    24    33    35   ar
    25    35    36    1
    26     4     5    1
    27     5    38    1
    28    38    39    1
    29     5     6    1
    30     9    10   ar
    31    10    11   ar
    32    11    21    1
    33    21    22    2
    34    21    23    1
    35    11     7   ar
    36     6     1    1
    37    35    29   ar
    38    12    15    1
    39    25    28    1
    40    30    37    1
    41    23    24    1
@<TRIPOS>MOLECULE
*****
 39 41 0 0 0
SMALL
GASTEIGER

@<TRIPOS>ATOM
      1 N         -22.2564   -8.2624  -11.7803 N.pl3   1  UNL1       -0.2856
      2 C         -21.7803   -6.9155  -11.4279 C.3     1  UNL1        0.0945
      3 C         -21.6955   -6.7271   -9.9075 C.3     1  UNL1        0.0436
      4 C         -21.0734   -7.9801   -9.2708 C.3     1  UNL1        0.1024
      5 C         -21.9629   -9.2382   -9.5011 C.3     1  UNL1        0.1528
      6 C         -22.8730   -9.1071  -10.7456 C.3     1  UNL1        0.1237
      7 C         -21.9025   -8.5398  -15.3767 C.ar    1  UNL1        0.1486
      8 N         -21.7888   -7.9257  -14.1691 N.ar    1  UNL1       -0.2193
      9 C         -22.1965   -8.7100  -13.1484 C.ar    1  UNL1        0.1635
     10 S         -22.6970  -10.2194  -13.7029 S.2     1  UNL1       -0.0449
     11 C         -22.3888   -9.8548  -15.3184 C.ar    1  UNL1        0.1295
     12 N         -22.3241   -6.8886  -17.2606 N.am    1  UNL1       -0.2988
     13 C         -21.4798   -7.8496  -16.6050 C.2     1  UNL1        0.2644
     14 O         -20.3177   -8.0466  -17.0496 O.2     1  UNL1       -0.2685
     15 H         -21.8423   -6.1433  -17.8131 H       1  UNL1        0.1498
     16 C         -23.7672   -7.0548  -17.4996 C.3     1  UNL1        0.1015
     17 C         -24.4658   -5.6966  -17.6411 C.3     1  UNL1        0.0239
     18 C         -24.0485   -7.9703  -18.7023 C.3     1  UNL1        0.1617
     19 C         -24.9880   -8.0832  -20.8023 C.3     1  UNL1        0.1742
     20 O         -24.7567   -7.2485  -19.6889 O.3     1  UNL1       -0.3494
     21 C         -22.6865  -10.7696  -16.4342 C.2     1  UNL1        0.3459
     22 O         -21.7749  -11.4533  -16.9708 O.2     1  UNL1       -0.2445
     23 O         -23.9876  -10.8610  -16.9187 O.3     1  UNL1       -0.4767
     24 H         -24.2130  -11.4766  -17.6910 H       1  UNL1        0.2954
     25 N         -20.8219   -7.7650   -7.8409 N.am    1  UNL1       -0.2988
     26 C         -19.7569   -8.4351   -7.1507 C.2     1  UNL1        0.2624
     27 O         -18.8249   -8.9745   -7.8064 O.2     1  UNL1       -0.2685
     28 H         -21.4020   -7.0721   -7.3168 H       1  UNL1        0.1498
     29 C         -19.7157   -8.4819   -5.6776 C.ar    1  UNL1        0.1220
     30 N         -20.7852   -8.8047   -4.9214 N.ar    1  UNL1       -0.3515
     31 C         -20.4020   -8.7084   -3.6338 C.ar    1  UNL1        0.0456
     32 C         -21.3209   -8.9169   -2.4732 C.3     1  UNL1        0.0507
     33 C         -19.0862   -8.2937   -3.5596 C.ar    1  UNL1        0.0811
     34 CL        -18.1770   -7.9365   -2.1007 Cl      1  UNL1       -0.0802
     35 C         -18.6425   -8.1518   -4.8594 C.ar    1  UNL1        0.0893
     36 CL        -17.0787   -7.5061   -5.3359 Cl      1  UNL1       -0.0797
     37 H         -21.7352   -9.0687   -5.2666 H       1  UNL1        0.1658
     38 O         -22.7822   -9.4603   -8.3620 O.3     1  UNL1       -0.3501
     39 C         -24.0838   -9.8430   -8.7487 C.3     1  UNL1        0.1741
@<TRIPOS>BOND
     1    19    20    1
     2    20    18    1
     3    18    16    1
     4    16    17    1
     5    16    12    1
     6    12    13   am
     7    13    14    2
     8    13     7    1
     9     7     8   ar
    10     8     9   ar
    11     9     1    1
    12     1     2    1
    13     2     3    1
    14     3     4    1
    15     4    25    1
    16    25    26   am
    17    26    27    2
    18    26    29    1
    19    29    30   ar
    20    30    31   ar
    21    31    32    1
    22    31    33   ar
    23    33    34    1
    24    33    35   ar
    25    35    36    1
    26     4     5    1
    27     5    38    1
    28    38    39    1
    29     5     6    1
    30     9    10   ar
    31    10    11   ar
    32    11    21    1
    33    21    22    2
    34    21    23    1
    35    11     7   ar
    36     6     1    1
    37    35    29   ar
    38    12    15    1
    39    25    28    1
    40    30    37    1
    41    23    24    1
@<TRIPOS>MOLECULE
*****
 39 41 0 0 0
SMALL
GASTEIGER

@<TRIPOS>ATOM
      1 N         -21.1273   -8.3490  -11.4859 N.pl3   1  UNL1       -0.2856
      2 C         -19.9588   -9.0582  -10.9411 C.3     1  UNL1        0.0945
      3 C         -19.5700   -8.5241   -9.5562 C.3     1  UNL1        0.0436
      4 C         -20.8384   -8.3198   -8.7124 C.3     1  UNL1        0.1024
      5 C         -21.7753   -7.2462   -9.3420 C.3     1  UNL1        0.1528
      6 C         -21.5636   -7.0880  -10.8665 C.3     1  UNL1        0.1237
      7 C         -23.0719  -10.2159  -13.9086 C.ar    1  UNL1        0.1486
      8 N         -22.6567   -9.8721  -12.6605 N.ar    1  UNL1       -0.2193
      9 C         -21.7801   -8.8451  -12.6705 C.ar    1  UNL1        0.1635
     10 S         -21.4990   -8.3001  -14.2390 S.2     1  UNL1       -0.0449
     11 C         -22.5344   -9.4295  -14.9389 C.ar    1  UNL1        0.1295
     12 N         -23.6620  -12.6812  -14.0750 N.am    1  UNL1       -0.2988
     13 C         -24.0512  -11.2976  -14.0951 C.2     1  UNL1        0.2644
     14 O         -25.2730  -11.0073  -14.1959 O.2     1  UNL1       -0.2685
     15 H         -24.3893  -13.3667  -13.7687 H       1  UNL1        0.1498
     16 C         -22.4792  -13.2366  -14.7528 C.3     1  UNL1        0.1015
     17 C         -21.2358  -13.1492  -13.8588 C.3     1  UNL1        0.0239
     18 C         -22.7238  -14.6697  -15.2530 C.3     1  UNL1        0.1617
     19 C         -24.8354  -14.9571  -16.1271 C.3     1  UNL1        0.1742
     20 O         -24.0515  -15.0519  -14.9582 O.3     1  UNL1       -0.3494
     21 C         -22.7263   -9.5721  -16.3927 C.2     1  UNL1        0.3459
     22 O         -22.5107  -10.6712  -16.9688 O.2     1  UNL1       -0.2445
     23 O         -23.1268   -8.4712  -17.1436 O.3     1  UNL1       -0.4767
     24 H         -23.2559   -8.5444  -18.1457 H       1  UNL1        0.2954
     25 N         -20.4910   -7.9727   -7.3293 N.am    1  UNL1       -0.2988
     26 C         -19.5346   -8.7325   -6.5759 C.2     1  UNL1        0.2624
     27 O         -18.7435   -9.5133   -7.1709 O.2     1  UNL1       -0.2685
     28 H         -20.9142   -7.1237   -6.8919 H       1  UNL1        0.1498
     29 C         -19.4389   -8.5965   -5.1109 C.ar    1  UNL1        0.1220
     30 N         -20.5056   -8.3467   -4.3237 N.ar    1  UNL1       -0.3515
     31 C         -20.0496   -8.2472   -3.0604 C.ar    1  UNL1        0.0456
     32 C         -20.9112   -7.9028   -1.8882 C.3     1  UNL1        0.0507
     33 C         -18.6773   -8.4056   -3.0369 C.ar    1  UNL1        0.0811
     34 CL        -17.6263   -8.2649   -1.6375 Cl      1  UNL1       -0.0802
     35 C         -18.2831   -8.6326   -4.3406 C.ar    1  UNL1        0.0893
     36 CL        -16.6194   -8.7579   -4.8934 Cl      1  UNL1       -0.0797
     37 H         -21.4972   -8.2390   -4.6344 H       1  UNL1        0.1658
     38 O         -21.5487   -5.9891   -8.7201 O.3     1  UNL1       -0.3501
     39 C         -21.4625   -4.9624   -9.6839 C.3     1  UNL1        0.1741
@<TRIPOS>BOND
     1    19    20    1
     2    20    18    1
     3    18    16    1
     4    16    17    1
     5    16    12    1
     6    12    13   am
     7    13    14    2
     8    13     7    1
     9     7     8   ar
    10     8     9   ar
    11     9     1    1
    12     1     2    1
    13     2     3    1
    14     3     4    1
    15     4    25    1
    16    25    26   am
    17    26    27    2
    18    26    29    1
    19    29    30   ar
    20    30    31   ar
    21    31    32    1
    22    31    33   ar
    23    33    34    1
    24    33    35   ar
    25    35    36    1
    26     4     5    1
    27     5    38    1
    28    38    39    1
    29     5     6    1
    30     9    10   ar
    31    10    11   ar
    32    11    21    1
    33    21    22    2
    34    21    23    1
    35    11     7   ar
    36     6     1    1
    37    35    29   ar
    38    12    15    1
    39    25    28    1
    40    30    37    1
    41    23    24    1
@<TRIPOS>MOLECULE
*****
 39 41 0 0 0
SMALL
GASTEIGER

@<TRIPOS>ATOM
      1 N         -26.0504   -7.2460  -13.0359 N.pl3   1  UNL1       -0.2856
      2 C         -26.5617   -7.3848  -11.6632 C.3     1  UNL1        0.0945
      3 C         -25.5754   -8.1468  -10.7683 C.3     1  UNL1        0.0436
      4 C         -24.1480   -7.6433  -11.0360 C.3     1  UNL1        0.1024
      5 C         -23.7087   -7.9282  -12.5032 C.3     1  UNL1        0.1528
      6 C         -24.9085   -8.0653  -13.4705 C.3     1  UNL1        0.1237
      7 C         -26.9141   -4.8247  -15.5908 C.ar    1  UNL1        0.1486
      8 N         -26.0744   -5.6283  -14.8855 N.ar    1  UNL1       -0.2193
      9 C         -26.7228   -6.3773  -13.9681 C.ar    1  UNL1        0.1635
     10 S         -28.3816   -6.0895  -14.0096 S.2     1  UNL1       -0.0449
     11 C         -28.2685   -4.9520  -15.2469 C.ar    1  UNL1        0.1295
     12 N         -26.1310   -4.4529  -17.9787 N.am    1  UNL1       -0.2988
     13 C         -26.3915   -3.9548  -16.6557 C.2     1  UNL1        0.2644
     14 O         -26.2431   -2.7252  -16.4250 O.2     1  UNL1       -0.2685
     15 H         -26.2008   -3.7621  -18.7602 H       1  UNL1        0.1498
     16 C         -25.4607   -5.7271  -18.2857 C.3     1  UNL1        0.1015
     17 C         -25.3757   -5.9582  -19.7996 C.3     1  UNL1        0.0239
     18 C         -24.0813   -5.8268  -17.6140 C.3     1  UNL1        0.1617
     19 C         -22.8174   -7.4993  -16.6596 C.3     1  UNL1        0.1742
     20 O         -23.5590   -7.1263  -17.8000 O.3     1  UNL1       -0.3494
     21 C         -29.4191   -4.1934  -15.7679 C.2     1  UNL1        0.3459
     22 O         -30.5610   -4.7197  -15.8412 O.2     1  UNL1       -0.2445
     23 O         -29.2368   -2.8863  -16.2086 O.3     1  UNL1       -0.4767
     24 H         -30.0120   -2.3494  -16.5789 H       1  UNL1        0.2954
     25 N         -23.2030   -8.2293  -10.0779 N.am    1  UNL1       -0.2988
     26 C         -22.1074   -7.4755   -9.5383 C.2     1  UNL1        0.2624
     27 O         -22.1080   -6.2176   -9.6234 O.2     1  UNL1       -0.2685
     28 H         -23.3538   -9.2067   -9.7414 H       1  UNL1        0.1498
     29 C         -20.9854   -8.1461   -8.8563 C.ar    1  UNL1        0.1220
     30 N         -20.5298   -7.7687   -7.6438 N.ar    1  UNL1       -0.3515
     31 C         -19.4846   -8.5653   -7.3491 C.ar    1  UNL1        0.0456
     32 C         -18.6506   -8.4237   -6.1165 C.3     1  UNL1        0.0507
     33 C         -19.2474   -9.4422   -8.3901 C.ar    1  UNL1        0.0811
     34 CL        -17.9376  -10.6055   -8.5072 Cl      1  UNL1       -0.0802
     35 C         -20.2036   -9.1823   -9.3516 C.ar    1  UNL1        0.0893
     36 CL        -20.2693   -9.9185  -10.9463 Cl      1  UNL1       -0.0797
     37 H         -20.9075   -6.9973   -7.0490 H       1  UNL1        0.1658
     38 O         -22.9485   -9.1274  -12.5511 O.3     1  UNL1       -0.3501
     39 C         -23.4436   -9.9941  -13.5481 C.3     1  UNL1        0.1741
@<TRIPOS>BOND
     1    19    20    1
     2    20    18    1
     3    18    16    1
     4    16    17    1
     5    16    12    1
     6    12    13   am
     7    13    14    2
     8    13     7    1
     9     7     8   ar
    10     8     9   ar
    11     9     1    1
    12     1     2    1
    13     2     3    1
    14     3     4    1
    15     4    25    1
    16    25    26   am
    17    26    27    2
    18    26    29    1
    19    29    30   ar
    20    30    31   ar
    21    31    32    1
    22    31    33   ar
    23    33    34    1
    24    33    35   ar
    25    35    36    1
    26     4     5    1
    27     5    38    1
    28    38    39    1
    29     5     6    1
    30     9    10   ar
    31    10    11   ar
    32    11    21    1
    33    21    22    2
    34    21    23    1
    35    11     7   ar
    36     6     1    1
    37    35    29   ar
    38    12    15    1
    39    25    28    1
    40    30    37    1
    41    23    24    1
@<TRIPOS>MOLECULE
*****
 39 41 0 0 0
SMALL
GASTEIGER

@<TRIPOS>ATOM
      1 N         -21.4933   -9.5509  -10.9900 N.pl3   1  UNL1       -0.2856
      2 C         -20.1009   -9.8815  -10.6480 C.3     1  UNL1        0.0945
      3 C         -19.5847   -9.0188   -9.4888 C.3     1  UNL1        0.0436
      4 C         -20.6671   -8.9223   -8.4018 C.3     1  UNL1        0.1024
      5 C         -21.9471   -8.2107   -8.9331 C.3     1  UNL1        0.1528
      6 C         -22.0930   -8.3122  -10.4701 C.3     1  UNL1        0.1237
      7 C         -22.5409  -11.8086  -13.6247 C.ar    1  UNL1        0.1486
      8 N         -21.6394  -11.1750  -12.8284 N.ar    1  UNL1       -0.2193
      9 C         -22.2288  -10.3931  -11.8986 C.ar    1  UNL1        0.1635
     10 S         -23.9072  -10.4737  -12.0106 S.2     1  UNL1       -0.0449
     11 C         -23.8828  -11.5471  -13.3087 C.ar    1  UNL1        0.1295
     12 N         -21.4429  -12.2475  -15.8731 N.am    1  UNL1       -0.2988
     13 C         -22.0853  -12.7267  -14.6798 C.2     1  UNL1        0.2644
     14 O         -22.1892  -13.9690  -14.4979 O.2     1  UNL1       -0.2685
     15 H         -20.7735  -12.9018  -16.3384 H       1  UNL1        0.1498
     16 C         -21.8864  -11.0882  -16.6647 C.3     1  UNL1        0.1015
     17 C         -23.3172  -11.2843  -17.1814 C.3     1  UNL1        0.0239
     18 C         -21.7349   -9.7702  -15.8877 C.3     1  UNL1        0.1617
     19 C         -22.9012   -8.0597  -14.8780 C.3     1  UNL1        0.1742
     20 O         -22.9930   -9.1357  -15.7856 O.3     1  UNL1       -0.3494
     21 C         -25.0939  -12.0183  -14.0029 C.2     1  UNL1        0.3459
     22 O         -25.7241  -11.2626  -14.7891 O.2     1  UNL1       -0.2445
     23 O         -25.5625  -13.3071  -13.7676 O.3     1  UNL1       -0.4767
     24 H         -26.3983  -13.6486  -14.2270 H       1  UNL1        0.2954
     25 N         -20.1443   -8.2477   -7.2076 N.am    1  UNL1       -0.2988
     26 C         -19.0613   -8.7959   -6.4420 C.2     1  UNL1        0.2624
     27 O         -18.3295   -9.6928   -6.9418 O.2     1  UNL1       -0.2685
     28 H         -20.5371   -7.3206   -6.9292 H       1  UNL1        0.1498
     29 C         -18.7674   -8.3079   -5.0821 C.ar    1  UNL1        0.1220
     30 N         -19.3311   -7.1989   -4.5604 N.ar    1  UNL1       -0.3515
     31 C         -18.8095   -7.0322   -3.3299 C.ar    1  UNL1        0.0456
     32 C         -19.1225   -5.8705   -2.4425 C.3     1  UNL1        0.0507
     33 C         -17.8832   -8.0234   -3.0684 C.ar    1  UNL1        0.0811
     34 CL        -16.8766   -8.1709   -1.6375 Cl      1  UNL1       -0.0802
     35 C         -17.8553   -8.8417   -4.1802 C.ar    1  UNL1        0.0893
     36 CL        -16.7413  -10.1776   -4.4326 Cl      1  UNL1       -0.0797
     37 H         -20.0316   -6.5787   -5.0252 H       1  UNL1        0.1658
     38 O         -21.9168   -6.8374   -8.5705 O.3     1  UNL1       -0.3501
     39 C         -21.8549   -6.0183   -9.7174 C.3     1  UNL1        0.1741
@<TRIPOS>BOND
     1    19    20    1
     2    20    18    1
     3    18    16    1
     4    16    17    1
     5    16    12    1
     6    12    13   am
     7    13    14    2
     8    13     7    1
     9     7     8   ar
    10     8     9   ar
    11     9     1    1
    12     1     2    1
    13     2     3    1
    14     3     4    1
    15     4    25    1
    16    25    26   am
    17    26    27    2
    18    26    29    1
    19    29    30   ar
    20    30    31   ar
    21    31    32    1
    22    31    33   ar
    23    33    34    1
    24    33    35   ar
    25    35    36    1
    26     4     5    1
    27     5    38    1
    28    38    39    1
    29     5     6    1
    30     9    10   ar
    31    10    11   ar
    32    11    21    1
    33    21    22    2
    34    21    23    1
    35    11     7   ar
    36     6     1    1
    37    35    29   ar
    38    12    15    1
    39    25    28    1
    40    30    37    1
    41    23    24    1
@<TRIPOS>MOLECULE
*****
 39 41 0 0 0
SMALL
GASTEIGER

@<TRIPOS>ATOM
      1 N         -24.9433   -7.6214  -12.5206 N.pl3   1  UNL1       -0.2856
      2 C         -24.1692   -7.6206  -13.7719 C.3     1  UNL1        0.0945
      3 C         -25.0217   -7.1612  -14.9622 C.3     1  UNL1        0.0436
      4 C         -25.8625   -5.9428  -14.5488 C.3     1  UNL1        0.1024
      5 C         -26.8657   -6.3013  -13.4121 C.3     1  UNL1        0.1528
      6 C         -26.4100   -7.5204  -12.5753 C.3     1  UNL1        0.1237
      7 C         -22.6640   -7.5308   -9.7041 C.ar    1  UNL1        0.1486
      8 N         -23.1690   -7.1177  -10.8969 N.ar    1  UNL1       -0.2193
      9 C         -24.2707   -7.8086  -11.2604 C.ar    1  UNL1        0.1635
     10 S         -24.6821   -8.9544  -10.0968 S.2     1  UNL1       -0.0449
     11 C         -23.3929   -8.5589   -9.0872 C.ar    1  UNL1        0.1295
     12 N         -20.1678   -7.4549   -9.2385 N.am    1  UNL1       -0.2988
     13 C         -21.4786   -6.8749   -9.1309 C.2     1  UNL1        0.2644
     14 O         -21.6030   -5.7384   -8.6017 O.2     1  UNL1       -0.2685
     15 H         -19.3608   -6.7905   -9.2310 H       1  UNL1        0.1498
     16 C         -19.8514   -8.8757   -9.0192 C.3     1  UNL1        0.1015
     17 C         -19.1781   -9.4907  -10.2526 C.3     1  UNL1        0.0239
     18 C         -19.0157   -9.0883   -7.7463 C.3     1  UNL1        0.1617
     19 C         -19.1728   -8.2628   -5.6017 C.3     1  UNL1        0.1742
     20 O         -19.0434   -7.9135   -6.9622 O.3     1  UNL1       -0.3494
     21 C         -23.0886   -9.2697   -7.8331 C.2     1  UNL1        0.3459
     22 O         -22.4403   -8.7068   -6.9115 O.2     1  UNL1       -0.2445
     23 O         -23.5009  -10.5891   -7.6743 O.3     1  UNL1       -0.4767
     24 H         -23.2946  -11.0998   -6.8241 H       1  UNL1        0.2954
     25 N         -26.5594   -5.3756  -15.7094 N.am    1  UNL1       -0.2988
     26 C         -26.7739   -3.9633  -15.8474 C.2     1  UNL1        0.2624
     27 O         -26.1051   -3.1550  -15.1481 O.2     1  UNL1       -0.2685
     28 H         -26.8694   -6.0081  -16.4809 H       1  UNL1        0.1498
     29 C         -27.7487   -3.4330  -16.8181 C.ar    1  UNL1        0.1220
     30 N         -27.3971   -2.9666  -18.0342 N.ar    1  UNL1       -0.3515
     31 C         -28.5231   -2.5302  -18.6305 C.ar    1  UNL1        0.0456
     32 C         -28.5537   -1.8696  -19.9713 C.3     1  UNL1        0.0507
     33 C         -29.6022   -2.6900  -17.7826 C.ar    1  UNL1        0.0811
     34 CL        -31.2567   -2.1829  -18.0794 Cl      1  UNL1       -0.0802
     35 C         -29.1151   -3.2689  -16.6276 C.ar    1  UNL1        0.0893
     36 CL        -30.0446   -3.5574  -15.1640 Cl      1  UNL1       -0.0797
     37 H         -26.4329   -2.9379  -18.4353 H       1  UNL1        0.1658
     38 O         -28.1404   -6.5861  -13.9708 O.3     1  UNL1       -0.3501
     39 C         -28.6110   -7.8408  -13.5297 C.3     1  UNL1        0.1741
@<TRIPOS>BOND
     1    19    20    1
     2    20    18    1
     3    18    16    1
     4    16    17    1
     5    16    12    1
     6    12    13   am
     7    13    14    2
     8    13     7    1
     9     7     8   ar
    10     8     9   ar
    11     9     1    1
    12     1     2    1
    13     2     3    1
    14     3     4    1
    15     4    25    1
    16    25    26   am
    17    26    27    2
    18    26    29    1
    19    29    30   ar
    20    30    31   ar
    21    31    32    1
    22    31    33   ar
    23    33    34    1
    24    33    35   ar
    25    35    36    1
    26     4     5    1
    27     5    38    1
    28    38    39    1
    29     5     6    1
    30     9    10   ar
    31    10    11   ar
    32    11    21    1
    33    21    22    2
    34    21    23    1
    35    11     7   ar
    36     6     1    1
    37    35    29   ar
    38    12    15    1
    39    25    28    1
    40    30    37    1
    41    23    24    1
@<TRIPOS>MOLECULE
*****
 39 41 0 0 0
SMALL
GASTEIGER

@<TRIPOS>ATOM
      1 N         -22.2298   -9.2771  -12.0527 N.pl3   1  UNL1       -0.2856
      2 C         -20.9583   -8.5392  -11.9880 C.3     1  UNL1        0.0945
      3 C         -20.5285   -8.2824  -10.5376 C.3     1  UNL1        0.0436
      4 C         -20.7500   -9.5556   -9.7055 C.3     1  UNL1        0.1024
      5 C         -22.2577   -9.9434   -9.6469 C.3     1  UNL1        0.1528
      6 C         -23.0640   -9.3911  -10.8464 C.3     1  UNL1        0.1237
      7 C         -24.0693  -10.8872  -14.7285 C.ar    1  UNL1        0.1486
      8 N         -23.8969  -10.3882  -13.4757 N.ar    1  UNL1       -0.2193
      9 C         -22.6899   -9.8055  -13.3116 C.ar    1  UNL1        0.1635
     10 S         -21.7874   -9.8641  -14.7322 S.2     1  UNL1       -0.0449
     11 C         -22.9851  -10.6768  -15.5941 C.ar    1  UNL1        0.1295
     12 N         -25.9648  -12.5113  -14.2564 N.am    1  UNL1       -0.2988
     13 C         -25.3356  -11.5351  -15.1034 C.2     1  UNL1        0.2644
     14 O         -25.9240  -11.1678  -16.1551 O.2     1  UNL1       -0.2685
     15 H         -27.0044  -12.5927  -14.3295 H       1  UNL1        0.1498
     16 C         -25.2663  -13.6092  -13.5681 C.3     1  UNL1        0.1015
     17 C         -26.1685  -14.2674  -12.5166 C.3     1  UNL1        0.0239
     18 C         -24.6979  -14.6387  -14.5585 C.3     1  UNL1        0.1617
     19 C         -22.8123  -15.3108  -15.6979 C.3     1  UNL1        0.1742
     20 O         -23.3460  -14.3332  -14.8323 O.3     1  UNL1       -0.3494
     21 C         -22.8222  -11.1377  -16.9840 C.2     1  UNL1        0.3459
     22 O         -21.9339  -11.9775  -17.2870 O.2     1  UNL1       -0.2445
     23 O         -23.6441  -10.6193  -17.9799 O.3     1  UNL1       -0.4767
     24 H         -23.5436  -10.9152  -18.9435 H       1  UNL1        0.2954
     25 N         -20.1919   -9.3978   -8.3572 N.am    1  UNL1       -0.2988
     26 C         -20.1010   -8.1145   -7.7213 C.2     1  UNL1        0.2624
     27 O         -20.7755   -7.1453   -8.1631 O.2     1  UNL1       -0.2685
     28 H         -19.8934  -10.2448   -7.8235 H       1  UNL1        0.1498
     29 C         -19.2490   -7.9117   -6.5352 C.ar    1  UNL1        0.1220
     30 N         -17.9843   -7.4481   -6.6081 N.ar    1  UNL1       -0.3515
     31 C         -17.4983   -7.4271   -5.3522 C.ar    1  UNL1        0.0456
     32 C         -16.0954   -7.0421   -5.0079 C.3     1  UNL1        0.0507
     33 C         -18.4456   -7.9068   -4.4683 C.ar    1  UNL1        0.0811
     34 CL        -18.2422   -8.1566   -2.7424 Cl      1  UNL1       -0.0802
     35 C         -19.5650   -8.2133   -5.2163 C.ar    1  UNL1        0.0893
     36 CL        -21.0148   -8.9959   -4.6041 Cl      1  UNL1       -0.0797
     37 H         -17.4725   -7.1683   -7.4749 H       1  UNL1        0.1658
     38 O         -22.8335   -9.4469   -8.4468 O.3     1  UNL1       -0.3501
     39 C         -23.9987   -8.7009   -8.7221 C.3     1  UNL1        0.1741
@<TRIPOS>BOND
     1    19    20    1
     2    20    18    1
     3    18    16    1
     4    16    17    1
     5    16    12    1
     6    12    13   am
     7    13    14    2
     8    13     7    1
     9     7     8   ar
    10     8     9   ar
    11     9     1    1
    12     1     2    1
    13     2     3    1
    14     3     4    1
    15     4    25    1
    16    25    26   am
    17    26    27    2
    18    26    29    1
    19    29    30   ar
    20    30    31   ar
    21    31    32    1
    22    31    33   ar
    23    33    34    1
    24    33    35   ar
    25    35    36    1
    26     4     5    1
    27     5    38    1
    28    38    39    1
    29     5     6    1
    30     9    10   ar
    31    10    11   ar
    32    11    21    1
    33    21    22    2
    34    21    23    1
    35    11     7   ar
    36     6     1    1
    37    35    29   ar
    38    12    15    1
    39    25    28    1
    40    30    37    1
    41    23    24    1
