@<TRIPOS>MOLECULE
*****
 59 63 0 0 0
SMALL
GASTEIGER

@<TRIPOS>ATOM
      1 C         -19.9176   -7.9307   -8.2824 C.ar    1  UNL1        0.0601
      2 C         -20.6860   -6.8196   -8.6520 C.ar    1  UNL1        0.0082
      3 C         -21.0883   -6.6442   -9.9735 C.ar    1  UNL1        0.0390
      4 C         -20.7438   -7.5762  -10.9533 C.ar    1  UNL1        0.1602
      5 C         -20.0515   -8.7557  -10.5784 C.ar    1  UNL1        0.1046
      6 C         -19.6072   -8.9149   -9.2475 C.ar    1  UNL1        0.0520
      7 I         -18.5957  -10.7144   -8.6944 I       1  UNL1       -0.0409
      8 N         -18.1499   -7.6147   -6.5031 N.am    1  UNL1       -0.3040
      9 C         -19.4721   -8.0415   -6.8800 C.2     1  UNL1        0.2462
     10 O         -20.2842   -8.4619   -6.0130 O.2     1  UNL1       -0.2701
     11 H         -17.5910   -7.1229   -7.2380 H       1  UNL1        0.1496
     12 C         -16.1818   -7.0904   -5.1290 C.3     1  UNL1        0.0196
     13 C         -17.5375   -7.8248   -5.1767 C.3     1  UNL1        0.0572
     14 C         -18.4459   -7.2487   -4.0735 C.3     1  UNL1        0.0196
     15 C         -17.2878   -9.3266   -4.9349 C.3     1  UNL1        0.0196
     16 N         -19.8136   -9.7995  -11.5303 N.pl3   1  UNL1       -0.2116
     17 H         -18.8367   -9.9753  -11.8547 H       1  UNL1        0.1739
     18 S         -20.9825  -11.0488  -11.8083 S.O2    1  UNL1        0.0745
     19 O         -20.5236  -12.3036  -11.1196 O.2     1  UNL1       -0.1499
     20 O         -21.1016  -11.3412  -13.2779 O.2     1  UNL1       -0.1499
     21 C         -22.5462  -10.5496  -11.1553 C.ar    1  UNL1        0.1356
     22 C         -22.6094  -10.0996   -9.8307 C.ar    1  UNL1        0.0207
     23 C         -23.8121   -9.6465   -9.2871 C.ar    1  UNL1       -0.0028
     24 C         -24.9874   -9.6309  -10.0648 C.ar    1  UNL1       -0.0216
     25 C         -24.9223  -10.0911  -11.3890 C.ar    1  UNL1        0.0085
     26 C         -23.7187  -10.5490  -11.9381 C.ar    1  UNL1        0.0762
     27 CL        -23.7314  -11.0896  -13.6138 Cl      1  UNL1       -0.0809
     28 C         -26.3291   -9.1318   -9.5553 C.3     1  UNL1        0.0224
     29 C         -27.2806   -8.5379  -10.5852 C.3     1  UNL1        0.0047
     30 C         -26.5793   -7.6300   -9.5821 C.3     1  UNL1        0.0047
     31 O         -21.1137   -7.2896  -12.2787 O.3     1  UNL1       -0.4513
     32 C         -22.4242   -7.0787  -12.7294 C.ar    1  UNL1        0.1580
     33 C         -23.2479   -6.2264  -11.9863 C.ar    1  UNL1        0.0677
     34 C         -24.6028   -6.0973  -12.2996 C.ar    1  UNL1        0.1398
     35 F         -25.3987   -5.3434  -11.4995 F       1  UNL1       -0.2044
     36 C         -25.1414   -6.7918  -13.3953 C.ar    1  UNL1        0.0175
     37 C         -24.2936   -7.5671  -14.2020 C.ar    1  UNL1        0.0130
     38 C         -22.9371   -7.6988  -13.8891 C.ar    1  UNL1        0.0919
     39 CL        -21.9155   -8.6245  -14.9825 Cl      1  UNL1       -0.0791
     40 C         -26.6274   -6.8255  -13.6255 C.3     1  UNL1        0.1382
     41 C         -27.0145   -5.6707  -14.4951 C.2     1  UNL1        0.3234
     42 O         -26.2094   -4.7154  -14.6677 O.2     1  UNL1       -0.2497
     43 O         -28.2906   -5.6512  -15.0727 O.3     1  UNL1       -0.4215
     44 C         -29.1066   -4.4853  -15.1841 C.3     1  UNL1        0.3207
     45 O         -30.4415   -4.8679  -14.8998 O.3     1  UNL1       -0.3070
     46 C         -31.3018   -3.7416  -14.8920 C.3     1  UNL1        0.2456
     47 C         -31.3702   -3.1047  -16.2987 C.3     1  UNL1        0.1781
     48 O         -32.2220   -1.9847  -16.3114 O.3     1  UNL1       -0.3790
     49 C         -29.9581   -2.7170  -16.7692 C.3     1  UNL1        0.1733
     50 O         -30.0142   -2.3122  -18.1129 O.3     1  UNL1       -0.3793
     51 C         -29.0080   -3.9168  -16.6180 C.3     1  UNL1        0.2106
     52 O         -27.6944   -3.4978  -16.8867 O.3     1  UNL1       -0.3766
     53 H         -31.8691   -1.3293  -15.6539 H       1  UNL1        0.2106
     54 H         -29.1983   -1.7739  -18.2863 H       1  UNL1        0.2105
     55 H         -27.2170   -4.2724  -17.2836 H       1  UNL1        0.2107
     56 C         -32.6721   -4.1880  -14.4650 C.2     1  UNL1        0.3439
     57 O         -33.6216   -3.3616  -14.4364 O.2     1  UNL1       -0.2475
     58 O         -32.9187   -5.5195  -14.1400 O.3     1  UNL1       -0.4785
     59 H         -32.1825   -6.2145  -14.1698 H       1  UNL1        0.2951
@<TRIPOS>BOND
     1    12    13    1
     2    13    14    1
     3    13    15    1
     4    13     8    1
     5     8     9   am
     6     9    10    2
     7     9     1    1
     8     1     2   ar
     9     2     3   ar
    10     3     4   ar
    11     4    31    1
    12    31    32    1
    13    32    33   ar
    14    33    34   ar
    15    34    35    1
    16    34    36   ar
    17    36    40    1
    18    40    41    1
    19    41    42    2
    20    41    43    1
    21    43    44    1
    22    44    45    1
    23    45    46    1
    24    46    56    1
    25    56    57    2
    26    56    58    1
    27    46    47    1
    28    47    48    1
    29    47    49    1
    30    49    50    1
    31    49    51    1
    32    51    52    1
    33    36    37   ar
    34    37    38   ar
    35    38    39    1
    36     4     5   ar
    37     5    16    1
    38    16    18    1
    39    18    19    2
    40    18    20    2
    41    18    21    1
    42    21    22   ar
    43    22    23   ar
    44    23    24   ar
    45    24    28    1
    46    28    29    1
    47    29    30    1
    48    24    25   ar
    49    25    26   ar
    50    26    27    1
    51     5     6   ar
    52     6     7    1
    53     6     1   ar
    54    38    32   ar
    55    26    21   ar
    56    51    44    1
    57    30    28    1
    58     8    11    1
    59    58    59    1
    60    48    53    1
    61    50    54    1
    62    52    55    1
    63    16    17    1
@<TRIPOS>MOLECULE
*****
 59 63 0 0 0
SMALL
GASTEIGER

@<TRIPOS>ATOM
      1 C         -20.1859   -7.7366   -8.4814 C.ar    1  UNL1        0.0601
      2 C         -20.9582   -6.5989   -8.7476 C.ar    1  UNL1        0.0082
      3 C         -21.3855   -6.3198  -10.0431 C.ar    1  UNL1        0.0390
      4 C         -21.0627   -7.1725  -11.0995 C.ar    1  UNL1        0.1602
      5 C         -20.3667   -8.3787  -10.8320 C.ar    1  UNL1        0.1046
      6 C         -19.8971   -8.6425   -9.5266 C.ar    1  UNL1        0.0520
      7 I         -18.8803  -10.4812   -9.1363 I       1  UNL1       -0.0409
      8 N         -18.4179   -7.4814   -6.6926 N.am    1  UNL1       -0.3040
      9 C         -19.7136   -7.9578   -7.1010 C.2     1  UNL1        0.2462
     10 O         -20.4826   -8.5185   -6.2751 O.2     1  UNL1       -0.2701
     11 H         -17.9043   -6.8805   -7.3779 H       1  UNL1        0.1496
     12 C         -16.4445   -7.0038   -5.3091 C.3     1  UNL1        0.0196
     13 C         -17.7734   -7.7819   -5.3992 C.3     1  UNL1        0.0572
     14 C         -18.6812   -7.3376   -4.2361 C.3     1  UNL1        0.0196
     15 C         -17.4651   -9.2885   -5.2927 C.3     1  UNL1        0.0196
     16 N         -20.1504   -9.3449  -11.8672 N.pl3   1  UNL1       -0.2116
     17 H         -19.1918   -9.4511  -12.2678 H       1  UNL1        0.1739
     18 S         -21.2795  -10.6288  -12.1516 S.O2    1  UNL1        0.0745
     19 O         -20.7566  -11.8845  -11.5119 O.2     1  UNL1       -0.1499
     20 O         -21.4270  -10.8839  -13.6256 O.2     1  UNL1       -0.1499
     21 C         -22.8425  -10.2073  -11.4444 C.ar    1  UNL1        0.1356
     22 C         -22.8830   -9.7672  -10.1156 C.ar    1  UNL1        0.0207
     23 C         -24.0870   -9.3742   -9.5300 C.ar    1  UNL1       -0.0028
     24 C         -25.2869   -9.4103  -10.2685 C.ar    1  UNL1       -0.0216
     25 C         -25.2440   -9.8605  -11.5970 C.ar    1  UNL1        0.0085
     26 C         -24.0390  -10.2583  -12.1883 C.ar    1  UNL1        0.0762
     27 CL        -24.0817  -10.7908  -13.8661 Cl      1  UNL1       -0.0809
     28 C         -26.6330   -8.9778   -9.7120 C.3     1  UNL1        0.0224
     29 C         -27.5575   -8.2189  -10.6545 C.3     1  UNL1        0.0047
     30 C         -26.8665   -7.4866   -9.5106 C.3     1  UNL1        0.0047
     31 O         -21.4575   -6.7823  -12.3909 O.3     1  UNL1       -0.4513
     32 C         -22.7810   -6.6937  -12.8444 C.ar    1  UNL1        0.1580
     33 C         -23.6835   -5.9275  -12.0992 C.ar    1  UNL1        0.0677
     34 C         -25.0437   -5.9253  -12.4158 C.ar    1  UNL1        0.1398
     35 F         -25.9094   -5.2547  -11.6140 F       1  UNL1       -0.2044
     36 C         -25.5115   -6.6615  -13.5168 C.ar    1  UNL1        0.0175
     37 C         -24.5921   -7.3485  -14.3252 C.ar    1  UNL1        0.0130
     38 C         -23.2300   -7.3531  -14.0089 C.ar    1  UNL1        0.0919
     39 CL        -22.1227   -8.1717  -15.1042 Cl      1  UNL1       -0.0791
     40 C         -26.9870   -6.8343  -13.7517 C.3     1  UNL1        0.1382
     41 C         -27.5059   -5.6476  -14.5014 C.2     1  UNL1        0.3234
     42 O         -26.7257   -4.9696  -15.2242 O.2     1  UNL1       -0.2497
     43 O         -28.8503   -5.2832  -14.3530 O.3     1  UNL1       -0.4215
     44 C         -29.6628   -4.7570  -15.4021 C.3     1  UNL1        0.3207
     45 O         -28.8376   -3.9387  -16.2136 O.3     1  UNL1       -0.3070
     46 C         -29.5507   -3.4568  -17.3397 C.3     1  UNL1        0.2456
     47 C         -30.7017   -2.5273  -16.8925 C.3     1  UNL1        0.1781
     48 O         -31.4210   -2.0368  -17.9980 O.3     1  UNL1       -0.3790
     49 C         -31.6361   -3.2753  -15.9266 C.3     1  UNL1        0.1733
     50 O         -32.5652   -2.3697  -15.3890 O.3     1  UNL1       -0.3793
     51 C         -30.8146   -3.9216  -14.7985 C.3     1  UNL1        0.2106
     52 O         -31.6578   -4.7394  -14.0281 O.3     1  UNL1       -0.3766
     53 H         -31.7825   -2.8177  -18.4939 H       1  UNL1        0.2106
     54 H         -33.3282   -2.9066  -15.0495 H       1  UNL1        0.2105
     55 H         -31.3106   -4.7219  -13.0983 H       1  UNL1        0.2107
     56 C         -28.5975   -2.7023  -18.2237 C.2     1  UNL1        0.3439
     57 O         -29.0366   -1.8406  -19.0301 O.2     1  UNL1       -0.2475
     58 O         -27.2238   -2.9123  -18.1335 O.3     1  UNL1       -0.4785
     59 H         -26.8348   -3.5845  -17.4832 H       1  UNL1        0.2951
@<TRIPOS>BOND
     1    12    13    1
     2    13    14    1
     3    13    15    1
     4    13     8    1
     5     8     9   am
     6     9    10    2
     7     9     1    1
     8     1     2   ar
     9     2     3   ar
    10     3     4   ar
    11     4    31    1
    12    31    32    1
    13    32    33   ar
    14    33    34   ar
    15    34    35    1
    16    34    36   ar
    17    36    40    1
    18    40    41    1
    19    41    42    2
    20    41    43    1
    21    43    44    1
    22    44    45    1
    23    45    46    1
    24    46    56    1
    25    56    57    2
    26    56    58    1
    27    46    47    1
    28    47    48    1
    29    47    49    1
    30    49    50    1
    31    49    51    1
    32    51    52    1
    33    36    37   ar
    34    37    38   ar
    35    38    39    1
    36     4     5   ar
    37     5    16    1
    38    16    18    1
    39    18    19    2
    40    18    20    2
    41    18    21    1
    42    21    22   ar
    43    22    23   ar
    44    23    24   ar
    45    24    28    1
    46    28    29    1
    47    29    30    1
    48    24    25   ar
    49    25    26   ar
    50    26    27    1
    51     5     6   ar
    52     6     7    1
    53     6     1   ar
    54    38    32   ar
    55    26    21   ar
    56    51    44    1
    57    30    28    1
    58     8    11    1
    59    58    59    1
    60    48    53    1
    61    50    54    1
    62    52    55    1
    63    16    17    1
@<TRIPOS>MOLECULE
*****
 59 63 0 0 0
SMALL
GASTEIGER

@<TRIPOS>ATOM
      1 C         -19.7917   -8.1968   -8.1899 C.ar    1  UNL1        0.0601
      2 C         -20.6388   -7.2031   -8.6964 C.ar    1  UNL1        0.0082
      3 C         -21.0169   -7.2097  -10.0364 C.ar    1  UNL1        0.0390
      4 C         -20.5689   -8.2114  -10.8986 C.ar    1  UNL1        0.1602
      5 C         -19.7922   -9.2788  -10.3806 C.ar    1  UNL1        0.1046
      6 C         -19.3737   -9.2514   -9.0322 C.ar    1  UNL1        0.0520
      7 I         -18.2326  -10.8858   -8.2615 I       1  UNL1       -0.0409
      8 N         -18.0366   -7.7180   -6.4345 N.am    1  UNL1       -0.3040
      9 C         -19.3781   -8.1135   -6.7758 C.2     1  UNL1        0.2462
     10 O         -20.2309   -8.3394   -5.8761 O.2     1  UNL1       -0.2701
     11 H         -17.4337   -7.3847   -7.2218 H       1  UNL1        0.1496
     12 C         -17.2619   -9.2262   -4.6564 C.3     1  UNL1        0.0196
     13 C         -17.4619   -7.7552   -5.0755 C.3     1  UNL1        0.0572
     14 C         -16.0922   -7.0499   -5.0572 C.3     1  UNL1        0.0196
     15 C         -18.4216   -7.0876   -4.0707 C.3     1  UNL1        0.0196
     16 N         -19.4419  -10.3971  -11.2045 N.pl3   1  UNL1       -0.2116
     17 H         -18.4568  -10.4910  -11.5379 H       1  UNL1        0.1739
     18 S         -20.4487  -11.8057  -11.2869 S.O2    1  UNL1        0.0745
     19 O         -21.2772  -11.8829  -10.0351 O.2     1  UNL1       -0.1499
     20 O         -19.6087  -13.0497  -11.3668 O.2     1  UNL1       -0.1499
     21 C         -21.5085  -11.6917  -12.6956 C.ar    1  UNL1        0.1356
     22 C         -21.0487  -12.1805  -13.9248 C.ar    1  UNL1        0.0207
     23 C         -21.8688  -12.1592  -15.0535 C.ar    1  UNL1       -0.0028
     24 C         -23.1795  -11.6468  -14.9757 C.ar    1  UNL1       -0.0216
     25 C         -23.6337  -11.1495  -13.7445 C.ar    1  UNL1        0.0085
     26 C         -22.8139  -11.1663  -12.6099 C.ar    1  UNL1        0.0762
     27 CL        -23.4779  -10.5375  -11.1051 Cl      1  UNL1       -0.0809
     28 C         -24.1416  -11.6098  -16.1512 C.3     1  UNL1        0.0224
     29 C         -24.3069  -12.8968  -16.9481 C.3     1  UNL1        0.0047
     30 C         -23.5503  -11.7189  -17.5502 C.3     1  UNL1        0.0047
     31 O         -20.9239   -8.1056  -12.2545 O.3     1  UNL1       -0.4513
     32 C         -22.1809   -7.7161  -12.7378 C.ar    1  UNL1        0.1580
     33 C         -23.1143   -7.2192  -11.8220 C.ar    1  UNL1        0.0677
     34 C         -24.4281   -6.9588  -12.2177 C.ar    1  UNL1        0.1398
     35 F         -25.3370   -6.5751  -11.2858 F       1  UNL1       -0.2044
     36 C         -24.8124   -7.1534  -13.5548 C.ar    1  UNL1        0.0175
     37 C         -23.8504   -7.5548  -14.4951 C.ar    1  UNL1        0.0130
     38 C         -22.5349   -7.8174  -14.1004 C.ar    1  UNL1        0.0919
     39 CL        -21.3622   -8.2449  -15.3406 Cl      1  UNL1       -0.0791
     40 C         -26.2600   -7.0738  -13.9551 C.3     1  UNL1        0.1382
     41 C         -26.6373   -5.6381  -14.1451 C.2     1  UNL1        0.3234
     42 O         -26.6934   -4.8653  -13.1499 O.2     1  UNL1       -0.2497
     43 O         -26.9648   -5.1845  -15.4293 O.3     1  UNL1       -0.4215
     44 C         -27.9285   -4.1676  -15.7030 C.3     1  UNL1        0.3207
     45 O         -29.2071   -4.6942  -15.3917 O.3     1  UNL1       -0.3070
     46 C         -30.2132   -3.7073  -15.5426 C.3     1  UNL1        0.2456
     47 C         -30.3218   -3.2687  -17.0207 C.3     1  UNL1        0.1781
     48 O         -31.3178   -2.2895  -17.1911 O.3     1  UNL1       -0.3790
     49 C         -28.9613   -2.7498  -17.5162 C.3     1  UNL1        0.1733
     50 O         -29.0280   -2.5295  -18.9016 O.3     1  UNL1       -0.3793
     51 C         -27.8614   -3.7762  -17.1967 C.3     1  UNL1        0.2106
     52 O         -26.6094   -3.2149  -17.4975 O.3     1  UNL1       -0.3766
     53 H         -31.0797   -1.5136  -16.6187 H       1  UNL1        0.2106
     54 H         -28.2881   -1.9086  -19.1309 H       1  UNL1        0.2105
     55 H         -26.0178   -3.9589  -17.7837 H       1  UNL1        0.2107
     56 C         -31.5228   -4.2836  -15.0821 C.2     1  UNL1        0.3439
     57 O         -32.5383   -3.5443  -14.9942 O.2     1  UNL1       -0.2475
     58 O         -31.6413   -5.6402  -14.7907 O.3     1  UNL1       -0.4785
     59 H         -30.8496   -6.2672  -14.8681 H       1  UNL1        0.2951
@<TRIPOS>BOND
     1    12    13    1
     2    13    14    1
     3    13    15    1
     4    13     8    1
     5     8     9   am
     6     9    10    2
     7     9     1    1
     8     1     2   ar
     9     2     3   ar
    10     3     4   ar
    11     4    31    1
    12    31    32    1
    13    32    33   ar
    14    33    34   ar
    15    34    35    1
    16    34    36   ar
    17    36    40    1
    18    40    41    1
    19    41    42    2
    20    41    43    1
    21    43    44    1
    22    44    45    1
    23    45    46    1
    24    46    56    1
    25    56    57    2
    26    56    58    1
    27    46    47    1
    28    47    48    1
    29    47    49    1
    30    49    50    1
    31    49    51    1
    32    51    52    1
    33    36    37   ar
    34    37    38   ar
    35    38    39    1
    36     4     5   ar
    37     5    16    1
    38    16    18    1
    39    18    19    2
    40    18    20    2
    41    18    21    1
    42    21    22   ar
    43    22    23   ar
    44    23    24   ar
    45    24    28    1
    46    28    29    1
    47    29    30    1
    48    24    25   ar
    49    25    26   ar
    50    26    27    1
    51     5     6   ar
    52     6     7    1
    53     6     1   ar
    54    38    32   ar
    55    26    21   ar
    56    51    44    1
    57    30    28    1
    58     8    11    1
    59    58    59    1
    60    48    53    1
    61    50    54    1
    62    52    55    1
    63    16    17    1
@<TRIPOS>MOLECULE
*****
 59 63 0 0 0
SMALL
GASTEIGER

@<TRIPOS>ATOM
      1 C         -28.0504   -6.7583  -13.8988 C.ar    1  UNL1        0.0601
      2 C         -28.3918   -7.5880  -12.8233 C.ar    1  UNL1        0.0082
      3 C         -27.4055   -8.2575  -12.1039 C.ar    1  UNL1        0.0390
      4 C         -26.0575   -8.1073  -12.4324 C.ar    1  UNL1        0.1602
      5 C         -25.6880   -7.1953  -13.4535 C.ar    1  UNL1        0.1046
      6 C         -26.6885   -6.5478  -14.2109 C.ar    1  UNL1        0.0520
      7 I         -26.1117   -5.1514  -15.7224 I       1  UNL1       -0.0409
      8 N         -29.4350   -4.7200  -14.4635 N.am    1  UNL1       -0.3040
      9 C         -29.1370   -6.1144  -14.6618 C.2     1  UNL1        0.2462
     10 O         -29.7592   -6.7888  -15.5255 O.2     1  UNL1       -0.2701
     11 H         -28.7729   -4.1829  -13.8570 H       1  UNL1        0.1496
     12 C         -30.8070   -2.6909  -14.2716 C.3     1  UNL1        0.0196
     13 C         -30.5926   -4.0101  -15.0418 C.3     1  UNL1        0.0572
     14 C         -30.3267   -3.6755  -16.5221 C.3     1  UNL1        0.0196
     15 C         -31.8670   -4.8668  -14.9068 C.3     1  UNL1        0.0196
     16 N         -24.3093   -6.9068  -13.7144 N.pl3   1  UNL1       -0.2116
     17 H         -23.7979   -6.2598  -13.0739 H       1  UNL1        0.1739
     18 S         -23.3577   -7.9186  -14.7513 S.O2    1  UNL1        0.0745
     19 O         -21.9062   -7.7384  -14.4047 O.2     1  UNL1       -0.1499
     20 O         -23.5454   -7.5239  -16.1895 O.2     1  UNL1       -0.1499
     21 C         -23.8206   -9.6069  -14.5148 C.ar    1  UNL1        0.1356
     22 C         -24.9172  -10.1098  -15.2259 C.ar    1  UNL1        0.0207
     23 C         -25.2889  -11.4499  -15.1112 C.ar    1  UNL1       -0.0028
     24 C         -24.5633  -12.3245  -14.2775 C.ar    1  UNL1       -0.0216
     25 C         -23.4705  -11.8149  -13.5594 C.ar    1  UNL1        0.0085
     26 C         -23.0952  -10.4707  -13.6691 C.ar    1  UNL1        0.0762
     27 CL        -21.6992   -9.9276  -12.7436 Cl      1  UNL1       -0.0809
     28 C         -24.8888  -13.7999  -14.1163 C.3     1  UNL1        0.0224
     29 C         -23.9114  -14.7931  -14.7303 C.3     1  UNL1        0.0047
     30 C         -25.2791  -14.5767  -15.3665 C.3     1  UNL1        0.0047
     31 O         -25.1262   -8.8787  -11.7159 O.3     1  UNL1       -0.4513
     32 C         -24.1686   -8.3757  -10.8243 C.ar    1  UNL1        0.1580
     33 C         -23.4669   -7.2226  -11.1918 C.ar    1  UNL1        0.0677
     34 C         -22.3997   -6.7636  -10.4167 C.ar    1  UNL1        0.1398
     35 F         -21.6732   -5.7028  -10.8516 F       1  UNL1       -0.2044
     36 C         -22.0490   -7.4345   -9.2335 C.ar    1  UNL1        0.0175
     37 C         -22.8170   -8.5312   -8.8116 C.ar    1  UNL1        0.0130
     38 C         -23.8851   -8.9932   -9.5870 C.ar    1  UNL1        0.0919
     39 CL        -24.8521  -10.3250   -8.9648 Cl      1  UNL1       -0.0791
     40 C         -20.7863   -7.0799   -8.4972 C.3     1  UNL1        0.1382
     41 C         -19.9903   -8.3252   -8.2623 C.2     1  UNL1        0.3234
     42 O         -19.3645   -8.8614   -9.2170 O.2     1  UNL1       -0.2497
     43 O         -19.9883   -8.9012   -6.9854 O.3     1  UNL1       -0.4215
     44 C         -19.4403   -8.2806   -5.8226 C.3     1  UNL1        0.3207
     45 O         -18.0542   -8.5758   -5.7924 O.3     1  UNL1       -0.3070
     46 C         -17.4164   -7.9091   -4.7166 C.3     1  UNL1        0.2456
     47 C         -17.9549   -8.4284   -3.3642 C.3     1  UNL1        0.1781
     48 O         -17.3315   -7.7788   -2.2828 O.3     1  UNL1       -0.3790
     49 C         -19.4806   -8.2444   -3.3004 C.3     1  UNL1        0.1733
     50 O         -19.9750   -8.8839   -2.1519 O.3     1  UNL1       -0.3793
     51 C         -20.1329   -8.8401   -4.5592 C.3     1  UNL1        0.2106
     52 O         -21.4987   -8.5118   -4.5667 O.3     1  UNL1       -0.3766
     53 H         -17.5081   -6.8056   -2.3724 H       1  UNL1        0.2106
     54 H         -20.8645   -8.4865   -1.9609 H       1  UNL1        0.2105
     55 H         -21.9749   -9.2566   -5.0183 H       1  UNL1        0.2107
     56 C         -15.9368   -8.1579   -4.8082 C.2     1  UNL1        0.3439
     57 O         -15.4841   -9.3215   -4.6446 O.2     1  UNL1       -0.2475
     58 O         -15.0577   -7.1226   -5.1157 O.3     1  UNL1       -0.4785
     59 H         -15.3892   -6.1782   -5.2714 H       1  UNL1        0.2951
@<TRIPOS>BOND
     1    12    13    1
     2    13    14    1
     3    13    15    1
     4    13     8    1
     5     8     9   am
     6     9    10    2
     7     9     1    1
     8     1     2   ar
     9     2     3   ar
    10     3     4   ar
    11     4    31    1
    12    31    32    1
    13    32    33   ar
    14    33    34   ar
    15    34    35    1
    16    34    36   ar
    17    36    40    1
    18    40    41    1
    19    41    42    2
    20    41    43    1
    21    43    44    1
    22    44    45    1
    23    45    46    1
    24    46    56    1
    25    56    57    2
    26    56    58    1
    27    46    47    1
    28    47    48    1
    29    47    49    1
    30    49    50    1
    31    49    51    1
    32    51    52    1
    33    36    37   ar
    34    37    38   ar
    35    38    39    1
    36     4     5   ar
    37     5    16    1
    38    16    18    1
    39    18    19    2
    40    18    20    2
    41    18    21    1
    42    21    22   ar
    43    22    23   ar
    44    23    24   ar
    45    24    28    1
    46    28    29    1
    47    29    30    1
    48    24    25   ar
    49    25    26   ar
    50    26    27    1
    51     5     6   ar
    52     6     7    1
    53     6     1   ar
    54    38    32   ar
    55    26    21   ar
    56    51    44    1
    57    30    28    1
    58     8    11    1
    59    58    59    1
    60    48    53    1
    61    50    54    1
    62    52    55    1
    63    16    17    1
@<TRIPOS>MOLECULE
*****
 59 63 0 0 0
SMALL
GASTEIGER

@<TRIPOS>ATOM
      1 C         -26.5408   -5.0415  -14.7489 C.ar    1  UNL1        0.0601
      2 C         -26.9138   -5.1041  -13.4004 C.ar    1  UNL1        0.0082
      3 C         -26.3010   -6.0084  -12.5369 C.ar    1  UNL1        0.0390
      4 C         -25.2964   -6.8621  -12.9943 C.ar    1  UNL1        0.1602
      5 C         -24.8383   -6.7436  -14.3312 C.ar    1  UNL1        0.1046
      6 C         -25.4866   -5.8567  -15.2184 C.ar    1  UNL1        0.0520
      7 I         -24.7598   -5.6673  -17.2192 I       1  UNL1       -0.0409
      8 N         -28.6017   -4.3945  -16.0622 N.am    1  UNL1       -0.3040
      9 C         -27.2586   -4.1035  -15.6334 C.2     1  UNL1        0.2462
     10 O         -26.6989   -3.0226  -15.9597 O.2     1  UNL1       -0.2701
     11 H         -29.0635   -5.2229  -15.6206 H       1  UNL1        0.1496
     12 C         -30.2899   -4.5788  -17.8377 C.3     1  UNL1        0.0196
     13 C         -29.3563   -3.6218  -17.0683 C.3     1  UNL1        0.0572
     14 C         -30.2176   -2.5469  -16.3779 C.3     1  UNL1        0.0196
     15 C         -28.3898   -2.9682  -18.0756 C.3     1  UNL1        0.0196
     16 N         -23.7109   -7.4995  -14.7891 N.pl3   1  UNL1       -0.2116
     17 H         -22.7645   -7.0586  -14.7695 H       1  UNL1        0.1739
     18 S         -23.7832   -9.2250  -14.9370 S.O2    1  UNL1        0.0745
     19 O         -23.2006   -9.6223  -16.2644 O.2     1  UNL1       -0.1499
     20 O         -25.2092   -9.6982  -14.8940 O.2     1  UNL1       -0.1499
     21 C         -22.8524   -9.9684  -13.6325 C.ar    1  UNL1        0.1356
     22 C         -23.2600  -11.2146  -13.1407 C.ar    1  UNL1        0.0207
     23 C         -22.5272  -11.8645  -12.1468 C.ar    1  UNL1       -0.0028
     24 C         -21.3586  -11.2779  -11.6208 C.ar    1  UNL1       -0.0216
     25 C         -20.9582  -10.0248  -12.1095 C.ar    1  UNL1        0.0085
     26 C         -21.6913   -9.3676  -13.1047 C.ar    1  UNL1        0.0762
     27 CL        -21.1005   -7.8073  -13.6676 Cl      1  UNL1       -0.0809
     28 C         -20.4934  -11.9305  -10.5557 C.3     1  UNL1        0.0224
     29 C         -19.0197  -11.5476  -10.5341 C.3     1  UNL1        0.0047
     30 C         -19.4414  -12.9302  -11.0168 C.3     1  UNL1        0.0047
     31 O         -24.7834   -7.8042  -12.0860 O.3     1  UNL1       -0.4513
     32 C         -23.8091   -7.5470  -11.1115 C.ar    1  UNL1        0.1580
     33 C         -23.0857   -6.3530  -11.2014 C.ar    1  UNL1        0.0677
     34 C         -22.0035   -6.1128  -10.3520 C.ar    1  UNL1        0.1398
     35 F         -21.2578   -4.9928  -10.5296 F       1  UNL1       -0.2044
     36 C         -21.6589   -7.0535   -9.3673 C.ar    1  UNL1        0.0175
     37 C         -22.4471   -8.2045   -9.2104 C.ar    1  UNL1        0.0130
     38 C         -23.5301   -8.4474  -10.0609 C.ar    1  UNL1        0.0919
     39 CL        -24.5208   -9.8708   -9.7632 Cl      1  UNL1       -0.0791
     40 C         -20.3839   -6.9091   -8.5828 C.3     1  UNL1        0.1382
     41 C         -19.8639   -8.2696   -8.2385 C.2     1  UNL1        0.3234
     42 O         -19.2827   -8.9621   -9.1179 O.2     1  UNL1       -0.2497
     43 O         -20.0707   -8.7706   -6.9468 O.3     1  UNL1       -0.4215
     44 C         -19.5053   -8.2063   -5.7639 C.3     1  UNL1        0.3207
     45 O         -18.1186   -8.5000   -5.7696 O.3     1  UNL1       -0.3070
     46 C         -17.4647   -7.8852   -4.6727 C.3     1  UNL1        0.2456
     47 C         -17.9815   -8.4707   -3.3389 C.3     1  UNL1        0.1781
     48 O         -17.3420   -7.8733   -2.2370 O.3     1  UNL1       -0.3790
     49 C         -19.5062   -8.2928   -3.2426 C.3     1  UNL1        0.1733
     50 O         -19.9820   -8.9884   -2.1191 O.3     1  UNL1       -0.3793
     51 C         -20.1775   -8.8278   -4.5186 C.3     1  UNL1        0.2106
     52 O         -21.5436   -8.5021   -4.4889 O.3     1  UNL1       -0.3766
     53 H         -17.5211   -6.8972   -2.2764 H       1  UNL1        0.2106
     54 H         -20.8689   -8.6024   -1.8952 H       1  UNL1        0.2105
     55 H         -22.0259   -9.2249   -4.9688 H       1  UNL1        0.2107
     56 C         -15.9866   -8.1266   -4.7992 C.2     1  UNL1        0.3439
     57 O         -15.5226   -9.2853   -4.6328 O.2     1  UNL1       -0.2475
     58 O         -15.1220   -7.0901   -5.1421 O.3     1  UNL1       -0.4785
     59 H         -15.4632   -6.1497   -5.3009 H       1  UNL1        0.2951
@<TRIPOS>BOND
     1    12    13    1
     2    13    14    1
     3    13    15    1
     4    13     8    1
     5     8     9   am
     6     9    10    2
     7     9     1    1
     8     1     2   ar
     9     2     3   ar
    10     3     4   ar
    11     4    31    1
    12    31    32    1
    13    32    33   ar
    14    33    34   ar
    15    34    35    1
    16    34    36   ar
    17    36    40    1
    18    40    41    1
    19    41    42    2
    20    41    43    1
    21    43    44    1
    22    44    45    1
    23    45    46    1
    24    46    56    1
    25    56    57    2
    26    56    58    1
    27    46    47    1
    28    47    48    1
    29    47    49    1
    30    49    50    1
    31    49    51    1
    32    51    52    1
    33    36    37   ar
    34    37    38   ar
    35    38    39    1
    36     4     5   ar
    37     5    16    1
    38    16    18    1
    39    18    19    2
    40    18    20    2
    41    18    21    1
    42    21    22   ar
    43    22    23   ar
    44    23    24   ar
    45    24    28    1
    46    28    29    1
    47    29    30    1
    48    24    25   ar
    49    25    26   ar
    50    26    27    1
    51     5     6   ar
    52     6     7    1
    53     6     1   ar
    54    38    32   ar
    55    26    21   ar
    56    51    44    1
    57    30    28    1
    58     8    11    1
    59    58    59    1
    60    48    53    1
    61    50    54    1
    62    52    55    1
    63    16    17    1
@<TRIPOS>MOLECULE
*****
 59 63 0 0 0
SMALL
GASTEIGER

@<TRIPOS>ATOM
      1 C         -19.9729   -7.9896   -8.2144 C.ar    1  UNL1        0.0601
      2 C         -20.8120   -6.9358   -8.5978 C.ar    1  UNL1        0.0082
      3 C         -21.2625   -6.8305   -9.9111 C.ar    1  UNL1        0.0390
      4 C         -20.8964   -7.7776  -10.8684 C.ar    1  UNL1        0.1602
      5 C         -20.1293   -8.9035  -10.4750 C.ar    1  UNL1        0.1046
      6 C         -19.6375   -8.9900   -9.1542 C.ar    1  UNL1        0.0520
      7 I         -18.5123  -10.7109   -8.5714 I       1  UNL1       -0.0409
      8 N         -18.1472   -7.5784   -6.5148 N.am    1  UNL1       -0.3040
      9 C         -19.4804   -8.0251   -6.8238 C.2     1  UNL1        0.2462
     10 O         -20.2620   -8.3988   -5.9088 O.2     1  UNL1       -0.2701
     11 H         -17.6142   -7.1264   -7.2934 H       1  UNL1        0.1496
     12 C         -18.4028   -7.1058   -4.1174 C.3     1  UNL1        0.0196
     13 C         -17.4902   -7.7170   -5.2004 C.3     1  UNL1        0.0572
     14 C         -17.2678   -9.2056   -4.8707 C.3     1  UNL1        0.0196
     15 C         -16.1475   -6.9600   -5.1914 C.3     1  UNL1        0.0196
     16 N         -19.8627   -9.9668  -11.3972 N.pl3   1  UNL1       -0.2116
     17 H         -18.9073  -10.0503  -11.8105 H       1  UNL1        0.1739
     18 S         -20.8983  -11.3531  -11.4977 S.O2    1  UNL1        0.0745
     19 O         -21.8901  -11.2997  -10.3695 O.2     1  UNL1       -0.1499
     20 O         -20.0997  -12.6187  -11.3559 O.2     1  UNL1       -0.1499
     21 C         -21.7539  -11.3396  -13.0431 C.ar    1  UNL1        0.1356
     22 C         -21.0440  -11.6563  -14.2080 C.ar    1  UNL1        0.0207
     23 C         -21.6881  -11.7089  -15.4447 C.ar    1  UNL1       -0.0028
     24 C         -23.0694  -11.4465  -15.5433 C.ar    1  UNL1       -0.0216
     25 C         -23.7758  -11.1206  -14.3753 C.ar    1  UNL1        0.0085
     26 C         -23.1336  -11.0640  -13.1326 C.ar    1  UNL1        0.0762
     27 CL        -24.1066  -10.6645  -11.7205 Cl      1  UNL1       -0.0809
     28 C         -23.8481  -11.5062  -16.8467 C.3     1  UNL1        0.0224
     29 C         -23.0839  -11.9486  -18.0873 C.3     1  UNL1        0.0047
     30 C         -23.4964  -10.4906  -17.9254 C.3     1  UNL1        0.0047
     31 O         -21.3209   -7.5597  -12.1906 O.3     1  UNL1       -0.4513
     32 C         -22.6538   -7.4347  -12.6063 C.ar    1  UNL1        0.1580
     33 C         -23.6092   -7.0632  -11.6545 C.ar    1  UNL1        0.0677
     34 C         -24.9690   -7.0701  -11.9731 C.ar    1  UNL1        0.1398
     35 F         -25.8785   -6.8042  -11.0015 F       1  UNL1       -0.2044
     36 C         -25.3863   -7.4097  -13.2707 C.ar    1  UNL1        0.0175
     37 C         -24.4221   -7.6837  -14.2534 C.ar    1  UNL1        0.0130
     38 C         -23.0602   -7.6787  -13.9358 C.ar    1  UNL1        0.0919
     39 CL        -21.9015   -7.9577  -15.2303 Cl      1  UNL1       -0.0791
     40 C         -26.8441   -7.6187  -13.5764 C.3     1  UNL1        0.1382
     41 C         -27.4647   -6.3026  -13.9263 C.2     1  UNL1        0.3234
     42 O         -26.7745   -5.2482  -13.8757 O.2     1  UNL1       -0.2497
     43 O         -28.8230   -6.2593  -14.2661 O.3     1  UNL1       -0.4215
     44 C         -29.3639   -5.4675  -15.3235 C.3     1  UNL1        0.3207
     45 O         -28.3335   -4.6127  -15.7889 O.3     1  UNL1       -0.3070
     46 C         -28.7649   -3.8613  -16.9105 C.3     1  UNL1        0.2456
     47 C         -29.9128   -2.9063  -16.5114 C.3     1  UNL1        0.1781
     48 O         -30.3539   -2.1496  -17.6127 O.3     1  UNL1       -0.3790
     49 C         -31.0763   -3.7082  -15.9040 C.3     1  UNL1        0.1733
     50 O         -32.0277   -2.8171  -15.3812 O.3     1  UNL1       -0.3793
     51 C         -30.5513   -4.6325  -14.7926 C.3     1  UNL1        0.2106
     52 O         -31.5908   -5.4775  -14.3701 O.3     1  UNL1       -0.3766
     53 H         -30.6620   -2.7844  -18.3116 H       1  UNL1        0.2106
     54 H         -32.8806   -3.3191  -15.3030 H       1  UNL1        0.2105
     55 H         -31.4404   -5.6653  -13.4071 H       1  UNL1        0.2107
     56 C         -27.5994   -3.0698  -17.4344 C.2     1  UNL1        0.3439
     57 O         -27.6442   -2.5769  -18.5922 O.2     1  UNL1       -0.2475
     58 O         -26.4814   -2.8355  -16.6378 O.3     1  UNL1       -0.4785
     59 H         -26.4195   -3.2016  -15.6953 H       1  UNL1        0.2951
@<TRIPOS>BOND
     1    12    13    1
     2    13    14    1
     3    13    15    1
     4    13     8    1
     5     8     9   am
     6     9    10    2
     7     9     1    1
     8     1     2   ar
     9     2     3   ar
    10     3     4   ar
    11     4    31    1
    12    31    32    1
    13    32    33   ar
    14    33    34   ar
    15    34    35    1
    16    34    36   ar
    17    36    40    1
    18    40    41    1
    19    41    42    2
    20    41    43    1
    21    43    44    1
    22    44    45    1
    23    45    46    1
    24    46    56    1
    25    56    57    2
    26    56    58    1
    27    46    47    1
    28    47    48    1
    29    47    49    1
    30    49    50    1
    31    49    51    1
    32    51    52    1
    33    36    37   ar
    34    37    38   ar
    35    38    39    1
    36     4     5   ar
    37     5    16    1
    38    16    18    1
    39    18    19    2
    40    18    20    2
    41    18    21    1
    42    21    22   ar
    43    22    23   ar
    44    23    24   ar
    45    24    28    1
    46    28    29    1
    47    29    30    1
    48    24    25   ar
    49    25    26   ar
    50    26    27    1
    51     5     6   ar
    52     6     7    1
    53     6     1   ar
    54    38    32   ar
    55    26    21   ar
    56    51    44    1
    57    30    28    1
    58     8    11    1
    59    58    59    1
    60    48    53    1
    61    50    54    1
    62    52    55    1
    63    16    17    1
@<TRIPOS>MOLECULE
*****
 59 63 0 0 0
SMALL
GASTEIGER

@<TRIPOS>ATOM
      1 C         -27.4023   -5.8333  -14.6049 C.ar    1  UNL1        0.0601
      2 C         -27.7280   -6.7635  -13.6098 C.ar    1  UNL1        0.0082
      3 C         -26.7880   -7.6941  -13.1747 C.ar    1  UNL1        0.0390
      4 C         -25.5005   -7.7119  -13.7127 C.ar    1  UNL1        0.1602
      5 C         -25.1240   -6.7152  -14.6486 C.ar    1  UNL1        0.1046
      6 C         -26.0875   -5.7974  -15.1212 C.ar    1  UNL1        0.0520
      7 I         -25.4925   -4.2817  -16.5053 I       1  UNL1       -0.0409
      8 N         -29.7847   -4.9908  -14.5335 N.am    1  UNL1       -0.3040
      9 C         -28.4509   -4.9042  -15.0682 C.2     1  UNL1        0.2462
     10 O         -28.1461   -4.0027  -15.8943 O.2     1  UNL1       -0.2701
     11 H         -29.9247   -5.6497  -13.7330 H       1  UNL1        0.1496
     12 C         -32.2358   -5.0149  -14.7010 C.3     1  UNL1        0.0196
     13 C         -30.9485   -4.2320  -15.0318 C.3     1  UNL1        0.0572
     14 C         -31.0214   -2.8558  -14.3428 C.3     1  UNL1        0.0196
     15 C         -30.8604   -4.0613  -16.5613 C.3     1  UNL1        0.0196
     16 N         -23.7706   -6.6147  -15.1072 N.pl3   1  UNL1       -0.2116
     17 H         -23.0265   -6.3349  -14.4302 H       1  UNL1        0.1739
     18 S         -23.2623   -7.3641  -16.5852 S.O2    1  UNL1        0.0745
     19 O         -22.0365   -6.6561  -17.0907 O.2     1  UNL1       -0.1499
     20 O         -24.3340   -7.2447  -17.6323 O.2     1  UNL1       -0.1499
     21 C         -22.8863   -9.0640  -16.2857 C.ar    1  UNL1        0.1356
     22 C         -23.5190  -10.0404  -17.0652 C.ar    1  UNL1        0.0207
     23 C         -23.2159  -11.3925  -16.9004 C.ar    1  UNL1       -0.0028
     24 C         -22.2625  -11.8005  -15.9459 C.ar    1  UNL1       -0.0216
     25 C         -21.6371  -10.8201  -15.1604 C.ar    1  UNL1        0.0085
     26 C         -21.9397   -9.4626  -15.3201 C.ar    1  UNL1        0.0762
     27 CL        -21.0902   -8.3045  -14.3014 Cl      1  UNL1       -0.0809
     28 C         -21.8599  -13.2485  -15.7218 C.3     1  UNL1        0.0224
     29 C         -22.5228  -13.9769  -14.5604 C.3     1  UNL1        0.0047
     30 C         -21.0567  -13.5712  -14.4690 C.3     1  UNL1        0.0047
     31 O         -24.6336   -8.7321  -13.2847 O.3     1  UNL1       -0.4513
     32 C         -23.7052   -8.6248  -12.2398 C.ar    1  UNL1        0.1580
     33 C         -23.4558   -7.3556  -11.7072 C.ar    1  UNL1        0.0677
     34 C         -22.4352   -7.1656  -10.7729 C.ar    1  UNL1        0.1398
     35 F         -22.1492   -5.9079  -10.3507 F       1  UNL1       -0.2044
     36 C         -21.6768   -8.2604  -10.3263 C.ar    1  UNL1        0.0175
     37 C         -21.9939   -9.5490  -10.7842 C.ar    1  UNL1        0.0130
     38 C         -23.0143   -9.7409  -11.7207 C.ar    1  UNL1        0.0919
     39 CL        -23.4096  -11.3881  -12.1969 Cl      1  UNL1       -0.0791
     40 C         -20.4508   -8.0491   -9.4810 C.3     1  UNL1        0.1382
     41 C         -20.7461   -8.4707   -8.0758 C.2     1  UNL1        0.3234
     42 O         -21.9269   -8.4126   -7.6364 O.2     1  UNL1       -0.2497
     43 O         -19.6908   -8.8861   -7.2536 O.3     1  UNL1       -0.4215
     44 C         -19.3438   -8.2681   -6.0145 C.3     1  UNL1        0.3207
     45 O         -17.9481   -8.4325   -5.8299 O.3     1  UNL1       -0.3070
     46 C         -17.5069   -7.7564   -4.6649 C.3     1  UNL1        0.2456
     47 C         -18.1432   -8.3830   -3.4034 C.3     1  UNL1        0.1781
     48 O         -17.7152   -7.7255   -2.2353 O.3     1  UNL1       -0.3790
     49 C         -19.6768   -8.3464   -3.5150 C.3     1  UNL1        0.1733
     50 O         -20.2343   -9.0794   -2.4546 O.3     1  UNL1       -0.3793
     51 C         -20.1183   -8.9452   -4.8610 C.3     1  UNL1        0.2106
     52 O         -21.4999   -8.7470   -5.0195 O.3     1  UNL1       -0.3766
     53 H         -17.9756   -6.7703   -2.3135 H       1  UNL1        0.2106
     54 H         -21.1747   -8.7763   -2.3576 H       1  UNL1        0.2105
     55 H         -21.8452   -9.5128   -5.5484 H       1  UNL1        0.2107
     56 C         -16.0093   -7.8606   -4.5885 C.2     1  UNL1        0.3439
     57 O         -15.4770   -8.7523   -3.8764 O.2     1  UNL1       -0.2475
     58 O         -15.1968   -7.0080   -5.3317 O.3     1  UNL1       -0.4785
     59 H         -15.5914   -6.2913   -5.9288 H       1  UNL1        0.2951
@<TRIPOS>BOND
     1    12    13    1
     2    13    14    1
     3    13    15    1
     4    13     8    1
     5     8     9   am
     6     9    10    2
     7     9     1    1
     8     1     2   ar
     9     2     3   ar
    10     3     4   ar
    11     4    31    1
    12    31    32    1
    13    32    33   ar
    14    33    34   ar
    15    34    35    1
    16    34    36   ar
    17    36    40    1
    18    40    41    1
    19    41    42    2
    20    41    43    1
    21    43    44    1
    22    44    45    1
    23    45    46    1
    24    46    56    1
    25    56    57    2
    26    56    58    1
    27    46    47    1
    28    47    48    1
    29    47    49    1
    30    49    50    1
    31    49    51    1
    32    51    52    1
    33    36    37   ar
    34    37    38   ar
    35    38    39    1
    36     4     5   ar
    37     5    16    1
    38    16    18    1
    39    18    19    2
    40    18    20    2
    41    18    21    1
    42    21    22   ar
    43    22    23   ar
    44    23    24   ar
    45    24    28    1
    46    28    29    1
    47    29    30    1
    48    24    25   ar
    49    25    26   ar
    50    26    27    1
    51     5     6   ar
    52     6     7    1
    53     6     1   ar
    54    38    32   ar
    55    26    21   ar
    56    51    44    1
    57    30    28    1
    58     8    11    1
    59    58    59    1
    60    48    53    1
    61    50    54    1
    62    52    55    1
    63    16    17    1
@<TRIPOS>MOLECULE
*****
 59 63 0 0 0
SMALL
GASTEIGER

@<TRIPOS>ATOM
      1 C         -25.2373   -6.2736  -14.6810 C.ar    1  UNL1        0.0601
      2 C         -24.3978   -6.7240  -15.7076 C.ar    1  UNL1        0.0082
      3 C         -23.3063   -7.5406  -15.4236 C.ar    1  UNL1        0.0390
      4 C         -23.0332   -7.9353  -14.1133 C.ar    1  UNL1        0.1602
      5 C         -23.9286   -7.5702  -13.0759 C.ar    1  UNL1        0.1046
      6 C         -25.0117   -6.7085  -13.3557 C.ar    1  UNL1        0.0520
      7 I         -26.3693   -6.1974  -11.7863 I       1  UNL1       -0.0409
      8 N         -26.4502   -4.8209  -16.3571 N.am    1  UNL1       -0.3040
      9 C         -26.3482   -5.3668  -15.0289 C.2     1  UNL1        0.2462
     10 O         -27.2320   -5.1244  -14.1640 O.2     1  UNL1       -0.2701
     11 H         -25.7800   -5.1949  -17.0681 H       1  UNL1        0.1496
     12 C         -26.9519   -2.4193  -16.2255 C.3     1  UNL1        0.0196
     13 C         -27.4139   -3.7843  -16.7757 C.3     1  UNL1        0.0572
     14 C         -27.4700   -3.6993  -18.3131 C.3     1  UNL1        0.0196
     15 C         -28.8122   -4.0927  -16.2049 C.3     1  UNL1        0.0196
     16 N         -23.7594   -8.0813  -11.7484 N.pl3   1  UNL1       -0.2116
     17 H         -23.4778   -7.4256  -10.9860 H       1  UNL1        0.1739
     18 S         -24.4318   -9.6081  -11.2784 S.O2    1  UNL1        0.0745
     19 O         -25.8604   -9.4000  -10.8597 O.2     1  UNL1       -0.1499
     20 O         -23.6812  -10.1760  -10.1064 O.2     1  UNL1       -0.1499
     21 C         -24.3693  -10.7261  -12.6448 C.ar    1  UNL1        0.1356
     22 C         -23.3913  -11.7284  -12.6498 C.ar    1  UNL1        0.0207
     23 C         -23.3351  -12.6660  -13.6817 C.ar    1  UNL1       -0.0028
     24 C         -24.2662  -12.6227  -14.7388 C.ar    1  UNL1       -0.0216
     25 C         -25.2392  -11.6114  -14.7352 C.ar    1  UNL1        0.0085
     26 C         -25.2982  -10.6669  -13.7036 C.ar    1  UNL1        0.0762
     27 CL        -26.5657   -9.4468  -13.7760 Cl      1  UNL1       -0.0809
     28 C         -24.2869  -13.6193  -15.8857 C.3     1  UNL1        0.0224
     29 C         -25.1585  -14.8555  -15.7096 C.3     1  UNL1        0.0047
     30 C         -23.6406  -14.9779  -15.6510 C.3     1  UNL1        0.0047
     31 O         -21.8679   -8.6900  -13.8936 O.3     1  UNL1       -0.4513
     32 C         -21.1768   -8.7830  -12.6774 C.ar    1  UNL1        0.1580
     33 C         -20.8438  -10.0565  -12.2040 C.ar    1  UNL1        0.0677
     34 C         -20.2924  -10.2191  -10.9312 C.ar    1  UNL1        0.1398
     35 F         -20.0746  -11.4726  -10.4588 F       1  UNL1       -0.2044
     36 C         -20.0263   -9.0961  -10.1305 C.ar    1  UNL1        0.0175
     37 C         -20.2659   -7.8123  -10.6453 C.ar    1  UNL1        0.0130
     38 C         -20.8194   -7.6475  -11.9188 C.ar    1  UNL1        0.0919
     39 CL        -21.0255   -6.0115  -12.5329 Cl      1  UNL1       -0.0791
     40 C         -19.6250   -9.2599   -8.6902 C.3     1  UNL1        0.1382
     41 C         -20.3747   -8.2683   -7.8571 C.2     1  UNL1        0.3234
     42 O         -21.5673   -7.9772   -8.1464 O.2     1  UNL1       -0.2497
     43 O         -19.7199   -7.6447   -6.7872 O.3     1  UNL1       -0.4215
     44 C         -19.2711   -8.3210   -5.6130 C.3     1  UNL1        0.3207
     45 O         -20.2718   -8.1671   -4.6211 O.3     1  UNL1       -0.3070
     46 C         -19.9445   -8.8981   -3.4518 C.3     1  UNL1        0.2456
     47 C         -18.6616   -8.3313   -2.8022 C.3     1  UNL1        0.1781
     48 O         -18.3211   -9.0439   -1.6376 O.3     1  UNL1       -0.3790
     49 C         -17.5032   -8.3609   -3.8137 C.3     1  UNL1        0.1733
     50 O         -16.4011   -7.6784   -3.2734 O.3     1  UNL1       -0.3793
     51 C         -17.9411   -7.6985   -5.1308 C.3     1  UNL1        0.2106
     52 O         -16.9370   -7.8875   -6.0947 O.3     1  UNL1       -0.3766
     53 H         -18.1863   -9.9940   -1.8932 H       1  UNL1        0.2106
     54 H         -15.5993   -7.9847   -3.7723 H       1  UNL1        0.2105
     55 H         -16.9570   -7.0971   -6.6950 H       1  UNL1        0.2107
     56 C         -21.0932   -8.7993   -2.4874 C.2     1  UNL1        0.3439
     57 O         -21.7916   -9.8163   -2.2359 O.2     1  UNL1       -0.2475
     58 O         -21.3717   -7.6031   -1.8310 O.3     1  UNL1       -0.4785
     59 H         -20.8192   -6.7703   -1.9957 H       1  UNL1        0.2951
@<TRIPOS>BOND
     1    12    13    1
     2    13    14    1
     3    13    15    1
     4    13     8    1
     5     8     9   am
     6     9    10    2
     7     9     1    1
     8     1     2   ar
     9     2     3   ar
    10     3     4   ar
    11     4    31    1
    12    31    32    1
    13    32    33   ar
    14    33    34   ar
    15    34    35    1
    16    34    36   ar
    17    36    40    1
    18    40    41    1
    19    41    42    2
    20    41    43    1
    21    43    44    1
    22    44    45    1
    23    45    46    1
    24    46    56    1
    25    56    57    2
    26    56    58    1
    27    46    47    1
    28    47    48    1
    29    47    49    1
    30    49    50    1
    31    49    51    1
    32    51    52    1
    33    36    37   ar
    34    37    38   ar
    35    38    39    1
    36     4     5   ar
    37     5    16    1
    38    16    18    1
    39    18    19    2
    40    18    20    2
    41    18    21    1
    42    21    22   ar
    43    22    23   ar
    44    23    24   ar
    45    24    28    1
    46    28    29    1
    47    29    30    1
    48    24    25   ar
    49    25    26   ar
    50    26    27    1
    51     5     6   ar
    52     6     7    1
    53     6     1   ar
    54    38    32   ar
    55    26    21   ar
    56    51    44    1
    57    30    28    1
    58     8    11    1
    59    58    59    1
    60    48    53    1
    61    50    54    1
    62    52    55    1
    63    16    17    1
@<TRIPOS>MOLECULE
*****
 59 63 0 0 0
SMALL
GASTEIGER

@<TRIPOS>ATOM
      1 C         -27.3736   -5.9159  -14.5182 C.ar    1  UNL1        0.0601
      2 C         -27.6974   -6.8933  -13.5687 C.ar    1  UNL1        0.0082
      3 C         -26.7634   -7.8567  -13.1967 C.ar    1  UNL1        0.0390
      4 C         -25.4838   -7.8615  -13.7535 C.ar    1  UNL1        0.1602
      5 C         -25.1076   -6.8215  -14.6410 C.ar    1  UNL1        0.1046
      6 C         -26.0657   -5.8686  -15.0508 C.ar    1  UNL1        0.0520
      7 I         -25.4707   -4.2893  -16.3618 I       1  UNL1       -0.0409
      8 N         -29.7931   -5.1848  -14.5661 N.am    1  UNL1       -0.3040
      9 C         -28.4166   -4.9511  -14.9169 C.2     1  UNL1        0.2462
     10 O         -28.0757   -3.8973  -15.5178 O.2     1  UNL1       -0.2701
     11 H         -29.9812   -5.9902  -13.9254 H       1  UNL1        0.1496
     12 C         -30.8338   -4.2274  -16.5753 C.3     1  UNL1        0.0196
     13 C         -30.9372   -4.3842  -15.0442 C.3     1  UNL1        0.0572
     14 C         -32.2619   -5.0981  -14.7132 C.3     1  UNL1        0.0196
     15 C         -30.9112   -2.9809  -14.4069 C.3     1  UNL1        0.0196
     16 N         -23.7595   -6.7131  -15.1133 N.pl3   1  UNL1       -0.2116
     17 H         -23.0084   -6.4401  -14.4411 H       1  UNL1        0.1739
     18 S         -23.2662   -7.4439  -16.6056 S.O2    1  UNL1        0.0745
     19 O         -22.0750   -6.6987  -17.1395 O.2     1  UNL1       -0.1499
     20 O         -24.3669   -7.3542  -17.6253 O.2     1  UNL1       -0.1499
     21 C         -22.8326   -9.1326  -16.3205 C.ar    1  UNL1        0.1356
     22 C         -23.4618  -10.1263  -17.0806 C.ar    1  UNL1        0.0207
     23 C         -23.1151  -11.4692  -16.9273 C.ar    1  UNL1       -0.0028
     24 C         -22.1205  -11.8503  -16.0043 C.ar    1  UNL1       -0.0216
     25 C         -21.4985  -10.8527  -15.2379 C.ar    1  UNL1        0.0085
     26 C         -21.8445   -9.5043  -15.3861 C.ar    1  UNL1        0.0762
     27 CL        -20.9963   -8.3228  -14.3936 Cl      1  UNL1       -0.0809
     28 C         -21.6699  -13.2862  -15.7950 C.3     1  UNL1        0.0224
     29 C         -22.5950  -14.1892  -14.9903 C.3     1  UNL1        0.0047
     30 C         -21.2838  -13.7054  -14.3829 C.3     1  UNL1        0.0047
     31 O         -24.6241   -8.9132  -13.3922 O.3     1  UNL1       -0.4513
     32 C         -23.7179   -8.8916  -12.3228 C.ar    1  UNL1        0.1580
     33 C         -23.4154   -7.6565  -11.7398 C.ar    1  UNL1        0.0677
     34 C         -22.4102   -7.5536  -10.7758 C.ar    1  UNL1        0.1398
     35 F         -22.0690   -6.3281  -10.3027 F       1  UNL1       -0.2044
     36 C         -21.7220   -8.7020  -10.3507 C.ar    1  UNL1        0.0175
     37 C         -22.0950   -9.9554  -10.8613 C.ar    1  UNL1        0.0130
     38 C         -23.1002  -10.0602  -11.8277 C.ar    1  UNL1        0.0919
     39 CL        -23.5697  -11.6666  -12.3711 Cl      1  UNL1       -0.0791
     40 C         -20.5083   -8.5858   -9.4701 C.3     1  UNL1        0.1382
     41 C         -20.9458   -8.2929   -8.0692 C.2     1  UNL1        0.3234
     42 O         -22.1099   -8.6029   -7.6958 O.2     1  UNL1       -0.2497
     43 O         -20.0619   -7.6365   -7.2032 O.3     1  UNL1       -0.4215
     44 C         -19.4393   -8.2470   -6.0730 C.3     1  UNL1        0.3207
     45 O         -20.4103   -8.3341   -5.0441 O.3     1  UNL1       -0.3070
     46 C         -19.8956   -9.0227   -3.9172 C.3     1  UNL1        0.2456
     47 C         -18.7291   -8.2292   -3.2860 C.3     1  UNL1        0.1781
     48 O         -18.2056   -8.8969   -2.1634 O.3     1  UNL1       -0.3790
     49 C         -17.6298   -7.9877   -4.3343 C.3     1  UNL1        0.1733
     50 O         -16.6679   -7.1140   -3.8016 O.3     1  UNL1       -0.3793
     51 C         -18.2446   -7.3837   -5.6081 C.3     1  UNL1        0.2106
     52 O         -17.2621   -7.3312   -6.6107 O.3     1  UNL1       -0.3766
     53 H         -17.8917   -9.7904   -2.4625 H       1  UNL1        0.2106
     54 H         -15.8412   -7.2334   -4.3382 H       1  UNL1        0.2105
     55 H         -17.4653   -6.5414   -7.1766 H       1  UNL1        0.2107
     56 C         -21.0013   -9.1928   -2.9133 C.2     1  UNL1        0.3439
     57 O         -21.9876   -9.9277   -3.1834 O.2     1  UNL1       -0.2475
     58 O         -20.9305   -8.5808   -1.6645 O.3     1  UNL1       -0.4785
     59 H         -20.1432   -7.9978   -1.4070 H       1  UNL1        0.2951
@<TRIPOS>BOND
     1    12    13    1
     2    13    14    1
     3    13    15    1
     4    13     8    1
     5     8     9   am
     6     9    10    2
     7     9     1    1
     8     1     2   ar
     9     2     3   ar
    10     3     4   ar
    11     4    31    1
    12    31    32    1
    13    32    33   ar
    14    33    34   ar
    15    34    35    1
    16    34    36   ar
    17    36    40    1
    18    40    41    1
    19    41    42    2
    20    41    43    1
    21    43    44    1
    22    44    45    1
    23    45    46    1
    24    46    56    1
    25    56    57    2
    26    56    58    1
    27    46    47    1
    28    47    48    1
    29    47    49    1
    30    49    50    1
    31    49    51    1
    32    51    52    1
    33    36    37   ar
    34    37    38   ar
    35    38    39    1
    36     4     5   ar
    37     5    16    1
    38    16    18    1
    39    18    19    2
    40    18    20    2
    41    18    21    1
    42    21    22   ar
    43    22    23   ar
    44    23    24   ar
    45    24    28    1
    46    28    29    1
    47    29    30    1
    48    24    25   ar
    49    25    26   ar
    50    26    27    1
    51     5     6   ar
    52     6     7    1
    53     6     1   ar
    54    38    32   ar
    55    26    21   ar
    56    51    44    1
    57    30    28    1
    58     8    11    1
    59    58    59    1
    60    48    53    1
    61    50    54    1
    62    52    55    1
    63    16    17    1
