@<TRIPOS>MOLECULE
*****
 46 51 0 0 0
SMALL
GASTEIGER

@<TRIPOS>ATOM
      1 C          11.8072   81.4448   25.5124 C.ar    1  UNL1        0.0702
      2 C          12.7656   82.1055   26.2897 C.ar    1  UNL1        0.0191
      3 C          13.5479   83.1184   25.7330 C.ar    1  UNL1        0.0356
      4 C          13.3599   83.4821   24.3884 C.ar    1  UNL1        0.1318
      5 N          12.4011   82.8431   23.6604 N.ar    1  UNL1       -0.2279
      6 C          11.6302   81.8520   24.1806 C.ar    1  UNL1        0.1149
      7 N          14.1486   84.5256   23.7749 N.pl3   1  UNL1       -0.2932
      8 C          13.9772   85.9204   24.2096 C.3     1  UNL1        0.0923
      9 C          15.3085   86.6715   24.1083 C.3     1  UNL1        0.0252
     10 C          15.9215   86.6213   22.6821 C.3     1  UNL1        0.0472
     11 C          15.3400   85.4765   21.8181 C.3     1  UNL1        0.0252
     12 C          15.0474   84.2220   22.6481 C.3     1  UNL1        0.0923
     13 C          15.7622   87.9729   21.9662 C.3     1  UNL1        0.2054
     14 O          14.3941   88.3763   21.9843 O.3     1  UNL1       -0.4755
     15 C          13.5519   88.3781   20.8628 C.ar    1  UNL1        0.1388
     16 C          12.1495   88.3450   20.9728 C.ar    1  UNL1        0.0369
     17 C          11.3553   88.3476   19.8244 C.ar    1  UNL1        0.0033
     18 C          11.9469   88.3831   18.5595 C.ar    1  UNL1        0.0066
     19 C          13.3464   88.4166   18.4303 C.ar    1  UNL1        0.0785
     20 C          14.1393   88.4138   19.5918 C.ar    1  UNL1        0.0433
     21 C          13.9799   88.4541   17.0935 C.2     1  UNL1        0.3381
     22 O          14.5359   89.5074   16.6795 O.2     1  UNL1       -0.2451
     23 O          13.9680   87.3247   16.2789 O.3     1  UNL1       -0.4771
     24 H          14.3987   87.3397   15.3622 H       1  UNL1        0.2954
     25 C          10.7691   79.1316   25.5108 C.2     1  UNL1        0.2839
     26 O          11.6059   78.6592   24.6953 O.2     1  UNL1       -0.2665
     27 N          10.9923   80.4191   26.1053 N.am    1  UNL1       -0.2766
     28 H          10.6231   80.5800   27.0696 H       1  UNL1        0.1553
     29 C           7.5148   76.1083   27.8278 C.ar    1  UNL1        0.1413
     30 C           6.2648   75.6040   27.3727 C.ar    1  UNL1        0.0342
     31 C           5.8034   75.9479   26.0754 C.ar    1  UNL1        0.0061
     32 C           6.5536   76.7942   25.2439 C.ar    1  UNL1        0.0377
     33 C           7.7568   77.2905   25.7307 C.ar    1  UNL1        0.1481
     34 O           8.5944   78.0825   25.1084 O.2     1  UNL1       -0.4491
     35 C           9.6206   78.2998   25.9097 C.ar    1  UNL1        0.1947
     36 C           9.4266   77.6367   27.1279 C.ar    1  UNL1        0.0231
     37 C          10.3123   77.6492   28.3388 C.3     1  UNL1        0.0346
     38 C           8.2197   76.9730   26.9810 C.ar    1  UNL1        0.0676
     39 C           5.4124   74.7577   28.2410 C.ar    1  UNL1        0.0029
     40 C           4.7808   75.3087   29.3701 C.ar    1  UNL1        0.0001
     41 C           3.9768   74.5101   30.1893 C.ar    1  UNL1        0.0000
     42 C           3.8007   73.1562   29.8927 C.ar    1  UNL1        0.0000
     43 C           4.4305   72.5974   28.7777 C.ar    1  UNL1        0.0000
     44 C           5.2354   73.3919   27.9557 C.ar    1  UNL1        0.0001
     45 C           8.6709   74.4929   29.2885 C.3     1  UNL1        0.2525
     46 O           8.0479   75.7529   29.0696 O.3     1  UNL1       -0.4713
@<TRIPOS>BOND
     1    45    46    1
     2    46    29    1
     3    29    30   ar
     4    30    39    1
     5    39    40   ar
     6    40    41   ar
     7    41    42   ar
     8    42    43   ar
     9    43    44   ar
    10    30    31   ar
    11    31    32   ar
    12    32    33   ar
    13    33    34   ar
    14    34    35   ar
    15    35    25    1
    16    25    26    2
    17    25    27   am
    18    27     1    1
    19     1     2   ar
    20     2     3   ar
    21     3     4   ar
    22     4     7    1
    23     7     8    1
    24     8     9    1
    25     9    10    1
    26    10    13    1
    27    13    14    1
    28    14    15    1
    29    15    16   ar
    30    16    17   ar
    31    17    18   ar
    32    18    19   ar
    33    19    21    1
    34    21    22    2
    35    21    23    1
    36    19    20   ar
    37    10    11    1
    38    11    12    1
    39     4     5   ar
    40     5     6   ar
    41    35    36   ar
    42    36    37    1
    43    36    38   ar
    44    38    29   ar
    45    44    39   ar
    46    38    33   ar
    47     6     1   ar
    48    12     7    1
    49    20    15   ar
    50    27    28    1
    51    23    24    1
@<TRIPOS>MOLECULE
*****
 46 51 0 0 0
SMALL
GASTEIGER

@<TRIPOS>ATOM
      1 C          12.4621   80.6500   25.5227 C.ar    1  UNL1        0.0702
      2 C          11.5946   81.6803   25.1418 C.ar    1  UNL1        0.0191
      3 C          12.0926   82.8289   24.5250 C.ar    1  UNL1        0.0356
      4 C          13.4714   82.9416   24.2757 C.ar    1  UNL1        0.1318
      5 N          14.2918   81.9128   24.6306 N.ar    1  UNL1       -0.2279
      6 C          13.8294   80.7867   25.2350 C.ar    1  UNL1        0.1149
      7 N          14.0264   84.1136   23.6390 N.pl3   1  UNL1       -0.2932
      8 C          13.5283   85.4481   24.0064 C.3     1  UNL1        0.0923
      9 C          14.6583   86.4777   23.9094 C.3     1  UNL1        0.0252
     10 C          15.3200   86.5157   22.5048 C.3     1  UNL1        0.0472
     11 C          15.0450   85.2376   21.6763 C.3     1  UNL1        0.0252
     12 C          15.0123   83.9809   22.5526 C.3     1  UNL1        0.0923
     13 C          14.8866   87.7683   21.7253 C.3     1  UNL1        0.2054
     14 O          13.5346   87.6299   21.2919 O.3     1  UNL1       -0.4755
     15 C          13.0389   88.1105   20.0711 C.ar    1  UNL1        0.1388
     16 C          11.7762   88.7208   19.9577 C.ar    1  UNL1        0.0369
     17 C          11.3286   89.1821   18.7182 C.ar    1  UNL1        0.0033
     18 C          12.1305   89.0412   17.5833 C.ar    1  UNL1        0.0066
     19 C          13.3951   88.4341   17.6775 C.ar    1  UNL1        0.0785
     20 C          13.8386   87.9722   18.9296 C.ar    1  UNL1        0.0433
     21 C          14.2497   88.2814   16.4793 C.2     1  UNL1        0.3381
     22 O          14.9821   89.2319   16.0917 O.2     1  UNL1       -0.2451
     23 O          14.2535   87.0846   15.7674 O.3     1  UNL1       -0.4771
     24 H          14.8348   86.9695   14.9458 H       1  UNL1        0.2954
     25 C          11.1322   78.4928   25.4430 C.2     1  UNL1        0.2839
     26 O          11.2217   78.3794   24.1910 O.2     1  UNL1       -0.2665
     27 N          11.9324   79.4622   26.1363 N.am    1  UNL1       -0.2766
     28 H          12.2287   79.2391   27.1132 H       1  UNL1        0.1553
     29 C           7.3637   75.7288   27.2482 C.ar    1  UNL1        0.1413
     30 C           7.3548   74.8062   28.3311 C.ar    1  UNL1        0.0342
     31 C           8.5450   74.5884   29.0727 C.ar    1  UNL1        0.0061
     32 C           9.7346   75.2552   28.7400 C.ar    1  UNL1        0.0377
     33 C           9.7142   76.1287   27.6595 C.ar    1  UNL1        0.1481
     34 O          10.7127   76.8425   27.2016 O.2     1  UNL1       -0.4491
     35 C          10.2706   77.5523   26.1803 C.ar    1  UNL1        0.1947
     36 C           8.9208   77.2637   25.9441 C.ar    1  UNL1        0.0231
     37 C           8.0365   77.8014   24.8579 C.3     1  UNL1        0.0346
     38 C           8.5766   76.3520   26.9284 C.ar    1  UNL1        0.0676
     39 C           6.1373   74.0354   28.6775 C.ar    1  UNL1        0.0029
     40 C           5.3434   74.4168   29.7737 C.ar    1  UNL1        0.0001
     41 C           4.1948   73.6893   30.1006 C.ar    1  UNL1        0.0000
     42 C           3.8321   72.5739   29.3413 C.ar    1  UNL1        0.0000
     43 C           4.6188   72.1821   28.2553 C.ar    1  UNL1        0.0000
     44 C           5.7681   72.9062   27.9246 C.ar    1  UNL1        0.0001
     45 C           5.2243   76.9323   27.0156 C.3     1  UNL1        0.2525
     46 O           6.2075   76.0297   26.5234 O.3     1  UNL1       -0.4713
@<TRIPOS>BOND
     1    45    46    1
     2    46    29    1
     3    29    30   ar
     4    30    39    1
     5    39    40   ar
     6    40    41   ar
     7    41    42   ar
     8    42    43   ar
     9    43    44   ar
    10    30    31   ar
    11    31    32   ar
    12    32    33   ar
    13    33    34   ar
    14    34    35   ar
    15    35    25    1
    16    25    26    2
    17    25    27   am
    18    27     1    1
    19     1     2   ar
    20     2     3   ar
    21     3     4   ar
    22     4     7    1
    23     7     8    1
    24     8     9    1
    25     9    10    1
    26    10    13    1
    27    13    14    1
    28    14    15    1
    29    15    16   ar
    30    16    17   ar
    31    17    18   ar
    32    18    19   ar
    33    19    21    1
    34    21    22    2
    35    21    23    1
    36    19    20   ar
    37    10    11    1
    38    11    12    1
    39     4     5   ar
    40     5     6   ar
    41    35    36   ar
    42    36    37    1
    43    36    38   ar
    44    38    29   ar
    45    44    39   ar
    46    38    33   ar
    47     6     1   ar
    48    12     7    1
    49    20    15   ar
    50    27    28    1
    51    23    24    1
@<TRIPOS>MOLECULE
*****
 46 51 0 0 0
SMALL
GASTEIGER

@<TRIPOS>ATOM
      1 C          12.4173   80.6115   25.6083 C.ar    1  UNL1        0.0702
      2 C          11.5510   81.6451   25.2338 C.ar    1  UNL1        0.0191
      3 C          12.0464   82.7837   24.5967 C.ar    1  UNL1        0.0356
      4 C          13.4210   82.8828   24.3205 C.ar    1  UNL1        0.1318
      5 N          14.2398   81.8508   24.6699 N.ar    1  UNL1       -0.2279
      6 C          13.7800   80.7343   25.2937 C.ar    1  UNL1        0.1149
      7 N          13.9733   84.0442   23.6622 N.pl3   1  UNL1       -0.2932
      8 C          13.3046   85.3473   23.7995 C.3     1  UNL1        0.0923
      9 C          14.3402   86.4759   23.7796 C.3     1  UNL1        0.0252
     10 C          15.2288   86.4559   22.5059 C.3     1  UNL1        0.0472
     11 C          15.2137   85.0869   21.7841 C.3     1  UNL1        0.0252
     12 C          15.1399   83.9176   22.7717 C.3     1  UNL1        0.0923
     13 C          14.8289   87.5815   21.5375 C.3     1  UNL1        0.2054
     14 O          13.8626   87.1019   20.6042 O.3     1  UNL1       -0.4755
     15 C          14.0352   87.1010   19.2123 C.ar    1  UNL1        0.1388
     16 C          13.8942   88.2649   18.4342 C.ar    1  UNL1        0.0369
     17 C          14.0760   88.2103   17.0509 C.ar    1  UNL1        0.0033
     18 C          14.3990   87.0013   16.4305 C.ar    1  UNL1        0.0066
     19 C          14.5442   85.8284   17.1919 C.ar    1  UNL1        0.0785
     20 C          14.3595   85.8917   18.5847 C.ar    1  UNL1        0.0433
     21 C          14.8860   84.5441   16.5413 C.2     1  UNL1        0.3381
     22 O          15.7856   83.8035   17.0232 O.2     1  UNL1       -0.2451
     23 O          14.2163   84.1406   15.3890 O.3     1  UNL1       -0.4771
     24 H          14.4425   83.2633   14.9358 H       1  UNL1        0.2954
     25 C          11.1689   78.4055   25.5480 C.2     1  UNL1        0.2839
     26 O          11.3423   78.2390   24.3108 O.2     1  UNL1       -0.2665
     27 N          11.8898   79.4340   26.2432 N.am    1  UNL1       -0.2766
     28 H          12.1302   79.2662   27.2462 H       1  UNL1        0.1553
     29 C           7.3633   75.6673   27.3143 C.ar    1  UNL1        0.1413
     30 C           7.3399   74.7358   28.3893 C.ar    1  UNL1        0.0342
     31 C           8.5246   74.4989   29.1339 C.ar    1  UNL1        0.0061
     32 C           9.7227   75.1555   28.8116 C.ar    1  UNL1        0.0377
     33 C           9.7162   76.0383   27.7386 C.ar    1  UNL1        0.1481
     34 O          10.7243   76.7450   27.2908 O.2     1  UNL1       -0.4491
     35 C          10.2942   77.4682   26.2737 C.ar    1  UNL1        0.1947
     36 C           8.9423   77.1963   26.0297 C.ar    1  UNL1        0.0231
     37 C           8.0684   77.7526   24.9444 C.3     1  UNL1        0.0346
     38 C           8.5841   76.2800   27.0048 C.ar    1  UNL1        0.0676
     39 C           6.1127   73.9754   28.7242 C.ar    1  UNL1        0.0029
     40 C           5.7411   72.8548   27.9603 C.ar    1  UNL1        0.0001
     41 C           4.5831   72.1375   28.2763 C.ar    1  UNL1        0.0000
     42 C           3.7845   72.5345   29.3518 C.ar    1  UNL1        0.0000
     43 C           4.1408   73.6513   30.1119 C.ar    1  UNL1        0.0000
     44 C           5.2977   74.3717   29.7998 C.ar    1  UNL1        0.0001
     45 C           5.2476   76.9107   27.0745 C.3     1  UNL1        0.2525
     46 O           6.2135   75.9869   26.5873 O.3     1  UNL1       -0.4713
@<TRIPOS>BOND
     1    45    46    1
     2    46    29    1
     3    29    30   ar
     4    30    39    1
     5    39    40   ar
     6    40    41   ar
     7    41    42   ar
     8    42    43   ar
     9    43    44   ar
    10    30    31   ar
    11    31    32   ar
    12    32    33   ar
    13    33    34   ar
    14    34    35   ar
    15    35    25    1
    16    25    26    2
    17    25    27   am
    18    27     1    1
    19     1     2   ar
    20     2     3   ar
    21     3     4   ar
    22     4     7    1
    23     7     8    1
    24     8     9    1
    25     9    10    1
    26    10    13    1
    27    13    14    1
    28    14    15    1
    29    15    16   ar
    30    16    17   ar
    31    17    18   ar
    32    18    19   ar
    33    19    21    1
    34    21    22    2
    35    21    23    1
    36    19    20   ar
    37    10    11    1
    38    11    12    1
    39     4     5   ar
    40     5     6   ar
    41    35    36   ar
    42    36    37    1
    43    36    38   ar
    44    38    29   ar
    45    44    39   ar
    46    38    33   ar
    47     6     1   ar
    48    12     7    1
    49    20    15   ar
    50    27    28    1
    51    23    24    1
@<TRIPOS>MOLECULE
*****
 46 51 0 0 0
SMALL
GASTEIGER

@<TRIPOS>ATOM
      1 C          11.7770   80.7803   25.2945 C.ar    1  UNL1        0.0702
      2 C          13.1744   80.7052   25.2651 C.ar    1  UNL1        0.0191
      3 C          13.9287   81.7869   24.8085 C.ar    1  UNL1        0.0356
      4 C          13.2781   82.9601   24.3890 C.ar    1  UNL1        0.1318
      5 N          11.9180   83.0188   24.4535 N.ar    1  UNL1       -0.2279
      6 C          11.1632   81.9768   24.8915 C.ar    1  UNL1        0.1149
      7 N          14.0224   84.1020   23.9103 N.pl3   1  UNL1       -0.2932
      8 C          13.4928   85.4582   24.1205 C.3     1  UNL1        0.0923
      9 C          14.6443   86.4495   24.3153 C.3     1  UNL1        0.0252
     10 C          15.6534   86.4404   23.1348 C.3     1  UNL1        0.0472
     11 C          15.5612   85.1566   22.2753 C.3     1  UNL1        0.0252
     12 C          15.2543   83.9180   23.1238 C.3     1  UNL1        0.0923
     13 C          15.4853   87.6916   22.2567 C.3     1  UNL1        0.2054
     14 O          15.6615   87.3507   20.8828 O.3     1  UNL1       -0.4755
     15 C          14.7216   86.6518   20.1113 C.ar    1  UNL1        0.1388
     16 C          13.3457   86.9433   20.1525 C.ar    1  UNL1        0.0369
     17 C          12.4506   86.2169   19.3646 C.ar    1  UNL1        0.0033
     18 C          12.9145   85.1968   18.5307 C.ar    1  UNL1        0.0066
     19 C          14.2858   84.8917   18.4763 C.ar    1  UNL1        0.0785
     20 C          15.1808   85.6280   19.2730 C.ar    1  UNL1        0.0433
     21 C          14.7841   83.8123   17.5953 C.2     1  UNL1        0.3381
     22 O          15.8604   83.9567   16.9544 O.2     1  UNL1       -0.2451
     23 O          14.0681   82.6250   17.4657 O.3     1  UNL1       -0.4771
     24 H          14.4003   81.8798   16.8653 H       1  UNL1        0.2954
     25 C          10.4166   78.6691   24.9469 C.2     1  UNL1        0.2839
     26 O          10.8881   78.4474   23.7993 O.2     1  UNL1       -0.2665
     27 N          11.0134   79.6667   25.7891 N.am    1  UNL1       -0.2766
     28 H          10.9744   79.5172   26.8226 H       1  UNL1        0.1553
     29 C           7.3120   75.7612   27.5936 C.ar    1  UNL1        0.1413
     30 C           6.1036   75.1261   27.1931 C.ar    1  UNL1        0.0342
     31 C           5.6456   75.2750   25.8582 C.ar    1  UNL1        0.0061
     32 C           6.3575   76.0560   24.9341 C.ar    1  UNL1        0.0377
     33 C           7.5190   76.6841   25.3667 C.ar    1  UNL1        0.1481
     34 O           8.3177   77.4430   24.6580 O.2     1  UNL1       -0.4491
     35 C           9.3141   77.8232   25.4359 C.ar    1  UNL1        0.1947
     36 C           9.1391   77.3071   26.7259 C.ar    1  UNL1        0.0231
     37 C          10.0003   77.5271   27.9345 C.3     1  UNL1        0.0346
     38 C           7.9779   76.5556   26.6517 C.ar    1  UNL1        0.0676
     39 C           5.2891   74.3434   28.1525 C.ar    1  UNL1        0.0029
     40 C           4.6955   74.9743   29.2603 C.ar    1  UNL1        0.0001
     41 C           3.9272   74.2356   30.1654 C.ar    1  UNL1        0.0000
     42 C           3.7494   72.8627   29.9766 C.ar    1  UNL1        0.0000
     43 C           4.3417   72.2252   28.8836 C.ar    1  UNL1        0.0000
     44 C           5.1108   72.9594   27.9759 C.ar    1  UNL1        0.0001
     45 C           8.5372   74.4172   29.2587 C.3     1  UNL1        0.2525
     46 O           7.8433   75.5986   28.8758 O.3     1  UNL1       -0.4713
@<TRIPOS>BOND
     1    45    46    1
     2    46    29    1
     3    29    30   ar
     4    30    39    1
     5    39    40   ar
     6    40    41   ar
     7    41    42   ar
     8    42    43   ar
     9    43    44   ar
    10    30    31   ar
    11    31    32   ar
    12    32    33   ar
    13    33    34   ar
    14    34    35   ar
    15    35    25    1
    16    25    26    2
    17    25    27   am
    18    27     1    1
    19     1     2   ar
    20     2     3   ar
    21     3     4   ar
    22     4     7    1
    23     7     8    1
    24     8     9    1
    25     9    10    1
    26    10    13    1
    27    13    14    1
    28    14    15    1
    29    15    16   ar
    30    16    17   ar
    31    17    18   ar
    32    18    19   ar
    33    19    21    1
    34    21    22    2
    35    21    23    1
    36    19    20   ar
    37    10    11    1
    38    11    12    1
    39     4     5   ar
    40     5     6   ar
    41    35    36   ar
    42    36    37    1
    43    36    38   ar
    44    38    29   ar
    45    44    39   ar
    46    38    33   ar
    47     6     1   ar
    48    12     7    1
    49    20    15   ar
    50    27    28    1
    51    23    24    1
@<TRIPOS>MOLECULE
*****
 46 51 0 0 0
SMALL
GASTEIGER

@<TRIPOS>ATOM
      1 C          13.0044   82.9329   25.2833 C.ar    1  UNL1        0.0702
      2 C          13.5347   83.9702   26.0593 C.ar    1  UNL1        0.0191
      3 C          14.1077   85.0859   25.4474 C.ar    1  UNL1        0.0356
      4 C          14.1388   85.1698   24.0446 C.ar    1  UNL1        0.1318
      5 N          13.5909   84.1600   23.3114 N.ar    1  UNL1       -0.2279
      6 C          13.0306   83.0629   23.8857 C.ar    1  UNL1        0.1149
      7 N          14.7222   86.3079   23.3727 N.pl3   1  UNL1       -0.2932
      8 C          13.8492   87.3550   22.8200 C.3     1  UNL1        0.0923
      9 C          14.5405   88.7191   22.9093 C.3     1  UNL1        0.0252
     10 C          15.9239   88.7408   22.2037 C.3     1  UNL1        0.0472
     11 C          16.5093   87.3249   21.9852 C.3     1  UNL1        0.0252
     12 C          16.1757   86.3801   23.1446 C.3     1  UNL1        0.0923
     13 C          15.8513   89.5067   20.8723 C.3     1  UNL1        0.2054
     14 O          14.5993   89.2595   20.2348 O.3     1  UNL1       -0.4755
     15 C          14.4378   88.4893   19.0738 C.ar    1  UNL1        0.1388
     16 C          14.3305   89.0664   17.7950 C.ar    1  UNL1        0.0369
     17 C          14.1702   88.2548   16.6702 C.ar    1  UNL1        0.0033
     18 C          14.1152   86.8658   16.8065 C.ar    1  UNL1        0.0066
     19 C          14.2210   86.2716   18.0763 C.ar    1  UNL1        0.0785
     20 C          14.3824   87.0960   19.2042 C.ar    1  UNL1        0.0433
     21 C          14.1634   84.8008   18.2280 C.2     1  UNL1        0.3381
     22 O          14.4505   84.0469   17.2589 O.2     1  UNL1       -0.2451
     23 O          13.7913   84.2344   19.4446 O.3     1  UNL1       -0.4771
     24 H          13.7487   83.2288   19.5592 H       1  UNL1        0.2954
     25 C          11.0787   81.3189   25.6221 C.2     1  UNL1        0.2839
     26 O          10.5655   81.5551   24.4955 O.2     1  UNL1       -0.2665
     27 N          12.3963   81.8000   25.9272 N.am    1  UNL1       -0.2766
     28 H          12.9816   81.2331   26.5814 H       1  UNL1        0.1553
     29 C           8.1954   77.8910   27.8662 C.ar    1  UNL1        0.1413
     30 C           7.8987   77.7207   29.2471 C.ar    1  UNL1        0.0342
     31 C           8.4486   78.6215   30.1959 C.ar    1  UNL1        0.0061
     32 C           9.2966   79.6650   29.7927 C.ar    1  UNL1        0.0377
     33 C           9.5870   79.7855   28.4392 C.ar    1  UNL1        0.1481
     34 O          10.3459   80.6899   27.8714 O.2     1  UNL1       -0.4491
     35 C          10.3437   80.4645   26.5708 C.ar    1  UNL1        0.1947
     36 C           9.5649   79.3373   26.2808 C.ar    1  UNL1        0.0231
     37 C           9.3275   78.6961   24.9453 C.3     1  UNL1        0.0346
     38 C           9.0686   78.9253   27.5065 C.ar    1  UNL1        0.0676
     39 C           7.0582   76.5963   29.7223 C.ar    1  UNL1        0.0029
     40 C           5.7359   76.8262   30.1420 C.ar    1  UNL1        0.0001
     41 C           4.9431   75.7652   30.5905 C.ar    1  UNL1        0.0000
     42 C           5.4635   74.4691   30.6293 C.ar    1  UNL1        0.0000
     43 C           6.7787   74.2318   30.2222 C.ar    1  UNL1        0.0000
     44 C           7.5753   75.2893   29.7730 C.ar    1  UNL1        0.0001
     45 C           6.2982   77.2565   26.4249 C.3     1  UNL1        0.2525
     46 O           7.6326   77.0736   26.8825 O.3     1  UNL1       -0.4713
@<TRIPOS>BOND
     1    45    46    1
     2    46    29    1
     3    29    30   ar
     4    30    39    1
     5    39    40   ar
     6    40    41   ar
     7    41    42   ar
     8    42    43   ar
     9    43    44   ar
    10    30    31   ar
    11    31    32   ar
    12    32    33   ar
    13    33    34   ar
    14    34    35   ar
    15    35    25    1
    16    25    26    2
    17    25    27   am
    18    27     1    1
    19     1     2   ar
    20     2     3   ar
    21     3     4   ar
    22     4     7    1
    23     7     8    1
    24     8     9    1
    25     9    10    1
    26    10    13    1
    27    13    14    1
    28    14    15    1
    29    15    16   ar
    30    16    17   ar
    31    17    18   ar
    32    18    19   ar
    33    19    21    1
    34    21    22    2
    35    21    23    1
    36    19    20   ar
    37    10    11    1
    38    11    12    1
    39     4     5   ar
    40     5     6   ar
    41    35    36   ar
    42    36    37    1
    43    36    38   ar
    44    38    29   ar
    45    44    39   ar
    46    38    33   ar
    47     6     1   ar
    48    12     7    1
    49    20    15   ar
    50    27    28    1
    51    23    24    1
@<TRIPOS>MOLECULE
*****
 46 51 0 0 0
SMALL
GASTEIGER

@<TRIPOS>ATOM
      1 C           9.6989   79.9752   25.3110 C.ar    1  UNL1        0.0702
      2 C           9.4207   79.7939   26.6707 C.ar    1  UNL1        0.0191
      3 C           8.7035   78.6764   27.1003 C.ar    1  UNL1        0.0356
      4 C           8.2715   77.7245   26.1606 C.ar    1  UNL1        0.1318
      5 N           8.5790   77.9094   24.8458 N.ar    1  UNL1       -0.2279
      6 C           9.2733   78.9913   24.4045 C.ar    1  UNL1        0.1149
      7 N           7.5273   76.5540   26.5645 N.pl3   1  UNL1       -0.2932
      8 C           6.0646   76.6309   26.7010 C.3     1  UNL1        0.0923
      9 C           5.4292   75.2873   26.3301 C.3     1  UNL1        0.0252
     10 C           5.9886   74.1047   27.1672 C.3     1  UNL1        0.0472
     11 C           7.3481   74.4292   27.8319 C.3     1  UNL1        0.0252
     12 C           8.2268   75.3135   26.9407 C.3     1  UNL1        0.0923
     13 C           4.9680   73.6447   28.2214 C.3     1  UNL1        0.2054
     14 O           5.3437   74.1306   29.5089 O.3     1  UNL1       -0.4755
     15 C           5.2461   75.4707   29.9113 C.ar    1  UNL1        0.1388
     16 C           4.0089   76.1204   30.0761 C.ar    1  UNL1        0.0369
     17 C           3.9663   77.4568   30.4782 C.ar    1  UNL1        0.0033
     18 C           5.1504   78.1574   30.7194 C.ar    1  UNL1        0.0066
     19 C           6.3956   77.5245   30.5602 C.ar    1  UNL1        0.0785
     20 C           6.4300   76.1782   30.1550 C.ar    1  UNL1        0.0433
     21 C           7.6539   78.2607   30.8139 C.2     1  UNL1        0.3381
     22 O           7.6479   79.3181   31.5008 O.2     1  UNL1       -0.2451
     23 O           8.8584   77.7918   30.2958 O.3     1  UNL1       -0.4771
     24 H           9.7255   78.2881   30.4635 H       1  UNL1        0.2954
     25 C          11.8909   81.1368   24.7871 C.2     1  UNL1        0.2839
     26 O          12.5259   80.0601   24.6262 O.2     1  UNL1       -0.2665
     27 N          10.4588   81.1193   24.8851 N.am    1  UNL1       -0.2766
     28 H           9.9369   81.9524   24.5306 H       1  UNL1        0.1553
     29 C          14.5674   85.2267   25.8864 C.ar    1  UNL1        0.1413
     30 C          14.9202   86.3281   25.0580 C.ar    1  UNL1        0.0342
     31 C          14.4762   86.3588   23.7104 C.ar    1  UNL1        0.0061
     32 C          13.7113   85.3087   23.1788 C.ar    1  UNL1        0.0377
     33 C          13.4079   84.2359   24.0082 C.ar    1  UNL1        0.1481
     34 O          12.7064   83.1731   23.7006 O.2     1  UNL1       -0.4491
     35 C          12.6356   82.4078   24.7738 C.ar    1  UNL1        0.1947
     36 C          13.3526   82.9903   25.8263 C.ar    1  UNL1        0.0231
     37 C          13.5789   82.4436   27.2050 C.3     1  UNL1        0.0346
     38 C          13.8286   84.1849   25.3116 C.ar    1  UNL1        0.0676
     39 C          15.7774   87.4277   25.5607 C.ar    1  UNL1        0.0029
     40 C          17.0185   87.6939   24.9556 C.ar    1  UNL1        0.0001
     41 C          17.8272   88.7314   25.4301 C.ar    1  UNL1        0.0000
     42 C          17.4078   89.5071   26.5138 C.ar    1  UNL1        0.0000
     43 C          16.1800   89.2454   27.1269 C.ar    1  UNL1        0.0000
     44 C          15.3680   88.2092   26.6561 C.ar    1  UNL1        0.0001
     45 C          14.0878   85.7073   28.2568 C.3     1  UNL1        0.2525
     46 O          14.9231   85.1730   27.2367 O.3     1  UNL1       -0.4713
@<TRIPOS>BOND
     1    45    46    1
     2    46    29    1
     3    29    30   ar
     4    30    39    1
     5    39    40   ar
     6    40    41   ar
     7    41    42   ar
     8    42    43   ar
     9    43    44   ar
    10    30    31   ar
    11    31    32   ar
    12    32    33   ar
    13    33    34   ar
    14    34    35   ar
    15    35    25    1
    16    25    26    2
    17    25    27   am
    18    27     1    1
    19     1     2   ar
    20     2     3   ar
    21     3     4   ar
    22     4     7    1
    23     7     8    1
    24     8     9    1
    25     9    10    1
    26    10    13    1
    27    13    14    1
    28    14    15    1
    29    15    16   ar
    30    16    17   ar
    31    17    18   ar
    32    18    19   ar
    33    19    21    1
    34    21    22    2
    35    21    23    1
    36    19    20   ar
    37    10    11    1
    38    11    12    1
    39     4     5   ar
    40     5     6   ar
    41    35    36   ar
    42    36    37    1
    43    36    38   ar
    44    38    29   ar
    45    44    39   ar
    46    38    33   ar
    47     6     1   ar
    48    12     7    1
    49    20    15   ar
    50    27    28    1
    51    23    24    1
@<TRIPOS>MOLECULE
*****
 46 51 0 0 0
SMALL
GASTEIGER

@<TRIPOS>ATOM
      1 C          11.9233   80.8327   25.0215 C.ar    1  UNL1        0.0702
      2 C          13.3211   80.9033   25.0350 C.ar    1  UNL1        0.0191
      3 C          13.9674   82.1203   24.8141 C.ar    1  UNL1        0.0356
      4 C          13.2063   83.2806   24.5900 C.ar    1  UNL1        0.1318
      5 N          11.8465   83.1912   24.6095 N.ar    1  UNL1       -0.2279
      6 C          11.1960   82.0165   24.8194 C.ar    1  UNL1        0.1149
      7 N          13.8369   84.5596   24.3580 N.pl3   1  UNL1       -0.2932
      8 C          13.9930   85.5085   25.4712 C.3     1  UNL1        0.0923
      9 C          15.2763   86.3255   25.2914 C.3     1  UNL1        0.0252
     10 C          15.3282   87.0743   23.9317 C.3     1  UNL1        0.0472
     11 C          14.3493   86.4890   22.8855 C.3     1  UNL1        0.0252
     12 C          14.2319   84.9653   22.9981 C.3     1  UNL1        0.0923
     13 C          15.0787   88.5797   24.1219 C.3     1  UNL1        0.2054
     14 O          13.6821   88.8573   24.0377 O.3     1  UNL1       -0.4755
     15 C          12.8476   89.0745   25.1439 C.ar    1  UNL1        0.1388
     16 C          11.4636   89.2925   25.0132 C.ar    1  UNL1        0.0369
     17 C          10.6766   89.5045   26.1469 C.ar    1  UNL1        0.0033
     18 C          11.2570   89.5017   27.4173 C.ar    1  UNL1        0.0066
     19 C          12.6381   89.2854   27.5672 C.ar    1  UNL1        0.0785
     20 C          13.4238   89.0725   26.4204 C.ar    1  UNL1        0.0433
     21 C          13.2596   89.2812   28.9100 C.2     1  UNL1        0.3381
     22 O          12.5462   89.3865   29.9444 O.2     1  UNL1       -0.2451
     23 O          14.6405   89.1606   29.0442 O.3     1  UNL1       -0.4771
     24 H          15.0761   89.1566   29.9588 H       1  UNL1        0.2954
     25 C          10.1920   79.0619   24.4780 C.2     1  UNL1        0.2839
     26 O          10.0566   79.4341   23.2815 O.2     1  UNL1       -0.2665
     27 N          11.2703   79.5765   25.2736 N.am    1  UNL1       -0.2766
     28 H          11.6673   78.9557   26.0145 H       1  UNL1        0.1553
     29 C           7.1710   76.1824   27.2496 C.ar    1  UNL1        0.1413
     30 C           6.5570   74.9403   26.9273 C.ar    1  UNL1        0.0342
     31 C           6.7949   74.3523   25.6578 C.ar    1  UNL1        0.0061
     32 C           7.6110   74.9888   24.7095 C.ar    1  UNL1        0.0377
     33 C           8.1728   76.2139   25.0475 C.ar    1  UNL1        0.1481
     34 O           8.9605   76.9533   24.3066 O.2     1  UNL1       -0.4491
     35 C           9.2876   78.0250   25.0044 C.ar    1  UNL1        0.1947
     36 C           8.6566   77.9944   26.2542 C.ar    1  UNL1        0.0231
     37 C           8.7066   79.0277   27.3408 C.3     1  UNL1        0.0346
     38 C           7.9542   76.8006   26.2667 C.ar    1  UNL1        0.0676
     39 C           5.6397   74.2645   27.8751 C.ar    1  UNL1        0.0029
     40 C           4.9586   75.0073   28.8558 C.ar    1  UNL1        0.0001
     41 C           4.0932   74.3695   29.7501 C.ar    1  UNL1        0.0000
     42 C           3.9045   72.9871   29.6774 C.ar    1  UNL1        0.0000
     43 C           4.5828   72.2391   28.7118 C.ar    1  UNL1        0.0000
     44 C           5.4491   72.8723   27.8155 C.ar    1  UNL1        0.0001
     45 C           6.0794   77.8147   28.7408 C.3     1  UNL1        0.2525
     46 O           7.0232   76.7767   28.5057 O.3     1  UNL1       -0.4713
@<TRIPOS>BOND
     1    45    46    1
     2    46    29    1
     3    29    30   ar
     4    30    39    1
     5    39    40   ar
     6    40    41   ar
     7    41    42   ar
     8    42    43   ar
     9    43    44   ar
    10    30    31   ar
    11    31    32   ar
    12    32    33   ar
    13    33    34   ar
    14    34    35   ar
    15    35    25    1
    16    25    26    2
    17    25    27   am
    18    27     1    1
    19     1     2   ar
    20     2     3   ar
    21     3     4   ar
    22     4     7    1
    23     7     8    1
    24     8     9    1
    25     9    10    1
    26    10    13    1
    27    13    14    1
    28    14    15    1
    29    15    16   ar
    30    16    17   ar
    31    17    18   ar
    32    18    19   ar
    33    19    21    1
    34    21    22    2
    35    21    23    1
    36    19    20   ar
    37    10    11    1
    38    11    12    1
    39     4     5   ar
    40     5     6   ar
    41    35    36   ar
    42    36    37    1
    43    36    38   ar
    44    38    29   ar
    45    44    39   ar
    46    38    33   ar
    47     6     1   ar
    48    12     7    1
    49    20    15   ar
    50    27    28    1
    51    23    24    1
@<TRIPOS>MOLECULE
*****
 46 51 0 0 0
SMALL
GASTEIGER

@<TRIPOS>ATOM
      1 C          10.9363   79.3533   23.9328 C.ar    1  UNL1        0.0702
      2 C          11.1582   78.0433   24.3730 C.ar    1  UNL1        0.0191
      3 C          10.2401   77.0351   24.0758 C.ar    1  UNL1        0.0356
      4 C           9.0949   77.3388   23.3196 C.ar    1  UNL1        0.1318
      5 N           8.9155   78.6159   22.8787 N.ar    1  UNL1       -0.2279
      6 C           9.7944   79.6141   23.1587 C.ar    1  UNL1        0.1149
      7 N           8.1210   76.3239   22.9902 N.pl3   1  UNL1       -0.2932
      8 C           7.9478   75.9062   21.5904 C.3     1  UNL1        0.0923
      9 C           7.5682   74.4235   21.5258 C.3     1  UNL1        0.0252
     10 C           6.2948   74.0911   22.3504 C.3     1  UNL1        0.0472
     11 C           5.9634   75.1728   23.4066 C.3     1  UNL1        0.0252
     12 C           7.2280   75.7770   24.0263 C.3     1  UNL1        0.0923
     13 C           5.0885   73.8495   21.4278 C.3     1  UNL1        0.2054
     14 O           4.2413   74.9972   21.4217 O.3     1  UNL1       -0.4755
     15 C           3.9235   75.7434   20.2775 C.ar    1  UNL1        0.1388
     16 C           2.8473   75.4099   19.4346 C.ar    1  UNL1        0.0369
     17 C           2.5732   76.1856   18.3064 C.ar    1  UNL1        0.0033
     18 C           3.3645   77.2970   18.0071 C.ar    1  UNL1        0.0066
     19 C           4.4438   77.6454   18.8379 C.ar    1  UNL1        0.0785
     20 C           4.7133   76.8591   19.9723 C.ar    1  UNL1        0.0433
     21 C           5.2864   78.8213   18.5267 C.2     1  UNL1        0.3381
     22 O           4.8660   79.7206   17.7492 O.2     1  UNL1       -0.2451
     23 O           6.5536   78.9462   19.0906 O.3     1  UNL1       -0.4771
     24 H           7.1384   79.7471   18.8842 H       1  UNL1        0.2954
     25 C          11.6315   81.5179   25.0552 C.2     1  UNL1        0.2839
     26 O          10.7181   81.4660   25.9220 O.2     1  UNL1       -0.2665
     27 N          11.9021   80.3774   24.2265 N.am    1  UNL1       -0.2766
     28 H          12.8852   80.2339   23.9026 H       1  UNL1        0.1553
     29 C          14.6262   85.4332   25.9510 C.ar    1  UNL1        0.1413
     30 C          15.0477   86.4706   25.0735 C.ar    1  UNL1        0.0342
     31 C          14.5858   86.4811   23.7317 C.ar    1  UNL1        0.0061
     32 C          13.7354   85.4718   23.2536 C.ar    1  UNL1        0.0377
     33 C          13.3654   84.4591   24.1301 C.ar    1  UNL1        0.1481
     34 O          12.5809   83.4413   23.8756 O.2     1  UNL1       -0.4491
     35 C          12.4697   82.7270   24.9801 C.ar    1  UNL1        0.1947
     36 C          13.2453   83.2949   25.9985 C.ar    1  UNL1        0.0231
     37 C          13.4518   82.7881   27.3954 C.3     1  UNL1        0.0346
     38 C          13.8017   84.4284   25.4290 C.ar    1  UNL1        0.0676
     39 C          15.9933   87.5211   25.5195 C.ar    1  UNL1        0.0029
     40 C          17.2386   87.6719   24.8839 C.ar    1  UNL1        0.0001
     41 C          18.1306   88.6630   25.3049 C.ar    1  UNL1        0.0000
     42 C          17.7910   89.5070   26.3653 C.ar    1  UNL1        0.0000
     43 C          16.5595   89.3599   27.0086 C.ar    1  UNL1        0.0000
     44 C          15.6643   88.3704   26.5913 C.ar    1  UNL1        0.0001
     45 C          14.2311   86.0572   28.3035 C.3     1  UNL1        0.2525
     46 O          14.9984   85.4066   27.2976 O.3     1  UNL1       -0.4713
@<TRIPOS>BOND
     1    45    46    1
     2    46    29    1
     3    29    30   ar
     4    30    39    1
     5    39    40   ar
     6    40    41   ar
     7    41    42   ar
     8    42    43   ar
     9    43    44   ar
    10    30    31   ar
    11    31    32   ar
    12    32    33   ar
    13    33    34   ar
    14    34    35   ar
    15    35    25    1
    16    25    26    2
    17    25    27   am
    18    27     1    1
    19     1     2   ar
    20     2     3   ar
    21     3     4   ar
    22     4     7    1
    23     7     8    1
    24     8     9    1
    25     9    10    1
    26    10    13    1
    27    13    14    1
    28    14    15    1
    29    15    16   ar
    30    16    17   ar
    31    17    18   ar
    32    18    19   ar
    33    19    21    1
    34    21    22    2
    35    21    23    1
    36    19    20   ar
    37    10    11    1
    38    11    12    1
    39     4     5   ar
    40     5     6   ar
    41    35    36   ar
    42    36    37    1
    43    36    38   ar
    44    38    29   ar
    45    44    39   ar
    46    38    33   ar
    47     6     1   ar
    48    12     7    1
    49    20    15   ar
    50    27    28    1
    51    23    24    1
