@<TRIPOS>MOLECULE
*****
 47 52 0 0 0
SMALL
GASTEIGER

@<TRIPOS>ATOM
      1 C         -28.1707   51.4410  -10.1478 C.2     1  UNL1        0.2483
      2 O         -28.8440   52.3334  -10.7303 O.2     1  UNL1       -0.2701
      3 N         -28.8256   50.2949   -9.5712 N.am    1  UNL1       -0.2945
      4 H         -28.2288   49.5042   -9.2392 H       1  UNL1        0.1501
      5 C         -23.8853   51.7826  -10.0626 C.ar    1  UNL1        0.0502
      6 C         -24.5385   51.2161  -11.1683 C.ar    1  UNL1        0.0148
      7 C         -25.9316   51.1135  -11.1902 C.ar    1  UNL1        0.0080
      8 C         -26.6980   51.5682  -10.1044 C.ar    1  UNL1        0.0808
      9 C         -26.0444   52.1544   -9.0034 C.ar    1  UNL1        0.1457
     10 F         -26.7505   52.6770   -7.9689 F       1  UNL1       -0.2040
     11 C         -24.6498   52.2557   -8.9857 C.ar    1  UNL1        0.0443
     12 N         -19.7827   52.6269   -9.9688 N.pl3   1  UNL1       -0.3043
     13 C         -20.4866   52.7413  -11.2483 C.3     1  UNL1        0.1122
     14 C         -21.6709   51.7727  -11.2749 C.3     1  UNL1        0.1122
     15 N         -22.4498   51.8942  -10.0345 N.pl3   1  UNL1       -0.3040
     16 C         -21.7341   51.7985   -8.7543 C.3     1  UNL1        0.1122
     17 C         -20.5593   52.7765   -8.7361 C.3     1  UNL1        0.1122
     18 C         -18.2770   52.2561  -12.4632 C.3     1  UNL1        0.0323
     19 C         -17.6542   52.0525  -11.1090 C.ar    1  UNL1       -0.0085
     20 C         -16.2956   51.7058  -11.0198 C.ar    1  UNL1       -0.0022
     21 C         -15.6958   51.5042   -9.7745 C.ar    1  UNL1        0.0112
     22 C         -16.4430   51.6539   -8.6041 C.ar    1  UNL1        0.0589
     23 CL        -15.6875   51.3989   -7.0418 Cl      1  UNL1       -0.0822
     24 C         -17.7906   52.0157   -8.6780 C.ar    1  UNL1        0.0256
     25 C         -18.4026   52.2290   -9.9228 C.ar    1  UNL1        0.0447
     26 C         -30.2818   50.0919   -9.5035 C.3     1  UNL1        0.1535
     27 C         -30.7451   49.0509  -10.4914 C.2     1  UNL1        0.2443
     28 O         -31.5451   48.1457  -10.1303 O.2     1  UNL1       -0.2730
     29 N         -30.3453   49.1544  -11.8675 N.am    1  UNL1       -0.2825
     30 H         -29.9581   50.0688  -12.1944 H       1  UNL1        0.1549
     31 C         -30.5442   48.1186  -12.8447 C.ar    1  UNL1        0.0535
     32 C         -31.3372   48.3774  -13.9711 C.ar    1  UNL1        0.0353
     33 C         -31.5155   47.3822  -14.9351 C.ar    1  UNL1        0.1002
     34 N         -30.9092   46.1746  -14.7888 N.ar    1  UNL1       -0.2422
     35 C         -30.1187   45.9003  -13.7176 C.ar    1  UNL1        0.1002
     36 C         -29.9147   46.8673  -12.7299 C.ar    1  UNL1        0.0353
     37 C         -30.7668   49.7610   -8.0791 C.3     1  UNL1        0.0569
     38 C         -30.0599   50.5966   -7.0513 C.ar    1  UNL1       -0.0017
     39 C         -30.6121   51.6274   -6.2960 C.ar    1  UNL1        0.0681
     40 N         -29.7048   52.1036   -5.4131 N.ar    1  UNL1       -0.3523
     41 C         -28.5894   51.3761   -5.5976 C.ar    1  UNL1        0.0563
     42 C         -27.3848   51.4853   -4.9041 C.ar    1  UNL1        0.0170
     43 C         -26.3449   50.6028   -5.2496 C.ar    1  UNL1        0.0015
     44 C         -26.5311   49.6401   -6.2666 C.ar    1  UNL1        0.0001
     45 C         -27.7585   49.5515   -6.9484 C.ar    1  UNL1        0.0012
     46 C         -28.7689   50.4428   -6.5864 C.ar    1  UNL1        0.0131
     47 H         -29.8505   52.8709   -4.7201 H       1  UNL1        0.1660
@<TRIPOS>BOND
     1    18    19    1
     2    19    20   ar
     3    20    21   ar
     4    21    22   ar
     5    22    23    1
     6    22    24   ar
     7    24    25   ar
     8    25    12    1
     9    12    13    1
    10    13    14    1
    11    14    15    1
    12    15     5    1
    13     5     6   ar
    14     6     7   ar
    15     7     8   ar
    16     8     1    1
    17     1     2    2
    18     1     3   am
    19     3    26    1
    20    26    37    1
    21    37    38    1
    22    38    39   ar
    23    39    40   ar
    24    40    41   ar
    25    41    42   ar
    26    42    43   ar
    27    43    44   ar
    28    44    45   ar
    29    45    46   ar
    30    26    27    1
    31    27    28    2
    32    27    29   am
    33    29    31    1
    34    31    32   ar
    35    32    33   ar
    36    33    34   ar
    37    34    35   ar
    38    35    36   ar
    39     8     9   ar
    40     9    10    1
    41     9    11   ar
    42    15    16    1
    43    16    17    1
    44    25    19   ar
    45    17    12    1
    46    11     5   ar
    47    46    38   ar
    48    36    31   ar
    49    46    41   ar
    50     3     4    1
    51    40    47    1
    52    29    30    1
@<TRIPOS>MOLECULE
*****
 47 52 0 0 0
SMALL
GASTEIGER

@<TRIPOS>ATOM
      1 C         -28.3332   51.2714  -10.6482 C.2     1  UNL1        0.2483
      2 O         -29.0273   52.2752  -10.9637 O.2     1  UNL1       -0.2701
      3 N         -28.9470   49.9751  -10.5137 N.am    1  UNL1       -0.2945
      4 H         -28.3217   49.1447  -10.4082 H       1  UNL1        0.1501
      5 C         -24.0872   51.7281  -10.1468 C.ar    1  UNL1        0.0502
      6 C         -24.6152   51.1635  -11.3184 C.ar    1  UNL1        0.0148
      7 C         -25.9963   51.0234  -11.4755 C.ar    1  UNL1        0.0080
      8 C         -26.8757   51.4379  -10.4617 C.ar    1  UNL1        0.0808
      9 C         -26.3475   52.0223   -9.2945 C.ar    1  UNL1        0.1457
     10 F         -27.1640   52.5072   -8.3249 F       1  UNL1       -0.2040
     11 C         -24.9644   52.1612   -9.1414 C.ar    1  UNL1        0.0443
     12 N         -20.0392   52.6818   -9.6398 N.pl3   1  UNL1       -0.3043
     13 C         -20.6228   52.8169  -10.9765 C.3     1  UNL1        0.1122
     14 C         -21.7693   51.8174  -11.1432 C.3     1  UNL1        0.1122
     15 N         -22.6648   51.8783   -9.9794 N.pl3   1  UNL1       -0.3040
     16 C         -22.0701   51.7622   -8.6403 C.3     1  UNL1        0.1122
     17 C         -20.9326   52.7711   -8.4825 C.3     1  UNL1        0.1122
     18 C         -18.8595   52.5804   -6.9519 C.3     1  UNL1        0.0323
     19 C         -18.0696   52.2565   -8.1905 C.ar    1  UNL1       -0.0085
     20 C         -16.7283   51.8569   -8.0682 C.ar    1  UNL1       -0.0022
     21 C         -15.9714   51.5578   -9.2035 C.ar    1  UNL1        0.0112
     22 C         -16.5469   51.6465  -10.4730 C.ar    1  UNL1        0.0589
     23 CL        -15.5938   51.2714  -11.8969 Cl      1  UNL1       -0.0822
     24 C         -17.8850   52.0257  -10.6076 C.ar    1  UNL1        0.0256
     25 C         -18.6582   52.3209   -9.4743 C.ar    1  UNL1        0.0447
     26 C         -30.3895   49.7020  -10.6179 C.3     1  UNL1        0.1535
     27 C         -30.6885   48.6970  -11.7018 C.2     1  UNL1        0.2443
     28 O         -31.4053   47.6901  -11.4527 O.2     1  UNL1       -0.2730
     29 N         -30.2321   48.9447  -13.0414 N.am    1  UNL1       -0.2825
     30 H         -29.9280   49.9160  -13.2802 H       1  UNL1        0.1549
     31 C         -30.2698   47.9710  -14.0988 C.ar    1  UNL1        0.0535
     32 C         -30.2316   48.4005  -15.4324 C.ar    1  UNL1        0.0353
     33 C         -30.2452   47.4581  -16.4634 C.ar    1  UNL1        0.1002
     34 N         -30.2786   46.1306  -16.1735 N.ar    1  UNL1       -0.2422
     35 C         -30.2965   45.6827  -14.8903 C.ar    1  UNL1        0.1002
     36 C         -30.2850   46.5917  -13.8293 C.ar    1  UNL1        0.0353
     37 C         -31.0080   49.2708   -9.2744 C.3     1  UNL1        0.0569
     38 C         -29.9490   49.0012   -8.2448 C.ar    1  UNL1       -0.0017
     39 C         -29.1820   47.8457   -8.1247 C.ar    1  UNL1        0.0681
     40 N         -28.2718   47.9845   -7.1340 N.ar    1  UNL1       -0.3523
     41 C         -28.4508   49.2200   -6.6351 C.ar    1  UNL1        0.0563
     42 C         -27.7323   49.8286   -5.6069 C.ar    1  UNL1        0.0170
     43 C         -28.0771   51.1463   -5.2544 C.ar    1  UNL1        0.0015
     44 C         -29.1183   51.8195   -5.9316 C.ar    1  UNL1        0.0001
     45 C         -29.8251   51.1809   -6.9669 C.ar    1  UNL1        0.0012
     46 C         -29.4630   49.8731   -7.2907 C.ar    1  UNL1        0.0131
     47 H         -27.5650   47.2779   -6.8313 H       1  UNL1        0.1660
@<TRIPOS>BOND
     1    18    19    1
     2    19    20   ar
     3    20    21   ar
     4    21    22   ar
     5    22    23    1
     6    22    24   ar
     7    24    25   ar
     8    25    12    1
     9    12    13    1
    10    13    14    1
    11    14    15    1
    12    15     5    1
    13     5     6   ar
    14     6     7   ar
    15     7     8   ar
    16     8     1    1
    17     1     2    2
    18     1     3   am
    19     3    26    1
    20    26    37    1
    21    37    38    1
    22    38    39   ar
    23    39    40   ar
    24    40    41   ar
    25    41    42   ar
    26    42    43   ar
    27    43    44   ar
    28    44    45   ar
    29    45    46   ar
    30    26    27    1
    31    27    28    2
    32    27    29   am
    33    29    31    1
    34    31    32   ar
    35    32    33   ar
    36    33    34   ar
    37    34    35   ar
    38    35    36   ar
    39     8     9   ar
    40     9    10    1
    41     9    11   ar
    42    15    16    1
    43    16    17    1
    44    25    19   ar
    45    17    12    1
    46    11     5   ar
    47    46    38   ar
    48    36    31   ar
    49    46    41   ar
    50     3     4    1
    51    40    47    1
    52    29    30    1
@<TRIPOS>MOLECULE
*****
 47 52 0 0 0
SMALL
GASTEIGER

@<TRIPOS>ATOM
      1 C         -23.7158   51.9194  -10.2534 C.2     1  UNL1        0.2483
      2 O         -24.1774   51.9368  -11.4263 O.2     1  UNL1       -0.2701
      3 N         -22.3933   52.4227   -9.9839 N.am    1  UNL1       -0.2945
      4 H         -22.1063   52.5388   -8.9860 H       1  UNL1        0.1501
      5 C         -26.1602   50.4213   -7.0489 C.ar    1  UNL1        0.0502
      6 C         -24.8267   50.0062   -7.1890 C.ar    1  UNL1        0.0148
      7 C         -24.0377   50.5018   -8.2300 C.ar    1  UNL1        0.0080
      8 C         -24.5685   51.4157   -9.1552 C.ar    1  UNL1        0.0808
      9 C         -25.9004   51.8472   -9.0035 C.ar    1  UNL1        0.1457
     10 F         -26.4283   52.7873   -9.8278 F       1  UNL1       -0.2040
     11 C         -26.6866   51.3492   -7.9598 C.ar    1  UNL1        0.0443
     12 N         -28.1920   48.5626   -3.8912 N.pl3   1  UNL1       -0.3043
     13 C         -28.3705   48.0276   -5.2430 C.3     1  UNL1        0.1122
     14 C         -28.1967   49.1488   -6.2697 C.3     1  UNL1        0.1122
     15 N         -26.9783   49.9168   -5.9765 N.pl3   1  UNL1       -0.3040
     16 C         -26.7961   50.4336   -4.6126 C.3     1  UNL1        0.1122
     17 C         -26.9631   49.3033   -3.5970 C.3     1  UNL1        0.1122
     18 C         -30.5390   50.3063   -4.1698 C.3     1  UNL1        0.0323
     19 C         -30.3999   49.3171   -3.0449 C.ar    1  UNL1       -0.0085
     20 C         -31.4380   49.1890   -2.1069 C.ar    1  UNL1       -0.0022
     21 C         -31.3298   48.2830   -1.0493 C.ar    1  UNL1        0.0112
     22 C         -30.1879   47.4892   -0.9203 C.ar    1  UNL1        0.0589
     23 CL        -30.0542   46.3532    0.4095 Cl      1  UNL1       -0.0822
     24 C         -29.1558   47.5941   -1.8563 C.ar    1  UNL1        0.0256
     25 C         -29.2560   48.4946   -2.9279 C.ar    1  UNL1        0.0447
     26 C         -21.4380   52.8917  -11.0007 C.3     1  UNL1        0.1535
     27 C         -20.5917   54.0289  -10.4865 C.2     1  UNL1        0.2443
     28 O         -19.7316   54.5679  -11.2345 O.2     1  UNL1       -0.2730
     29 N         -20.8386   54.5566   -9.1732 N.am    1  UNL1       -0.2825
     30 H         -21.7449   54.3121   -8.7129 H       1  UNL1        0.1549
     31 C         -19.9692   55.4834   -8.5003 C.ar    1  UNL1        0.0535
     32 C         -20.0978   56.8561   -8.7530 C.ar    1  UNL1        0.0353
     33 C         -19.2711   57.7628   -8.0852 C.ar    1  UNL1        0.1002
     34 N         -18.3580   57.3164   -7.1827 N.ar    1  UNL1       -0.2422
     35 C         -18.2231   55.9933   -6.9019 C.ar    1  UNL1        0.1002
     36 C         -19.0293   55.0528   -7.5482 C.ar    1  UNL1        0.0353
     37 C         -20.5610   51.7538  -11.5571 C.3     1  UNL1        0.0569
     38 C         -19.1497   51.8534  -11.0542 C.ar    1  UNL1       -0.0017
     39 C         -18.0172   52.1446  -11.8095 C.ar    1  UNL1        0.0681
     40 N         -16.9280   52.2312  -11.0124 N.ar    1  UNL1       -0.3523
     41 C         -17.3647   52.0075   -9.7607 C.ar    1  UNL1        0.0563
     42 C         -16.6095   52.0121   -8.5887 C.ar    1  UNL1        0.0170
     43 C         -17.2784   51.7708   -7.3746 C.ar    1  UNL1        0.0015
     44 C         -18.6715   51.5362   -7.3591 C.ar    1  UNL1        0.0001
     45 C         -19.4085   51.5395   -8.5574 C.ar    1  UNL1        0.0012
     46 C         -18.7166   51.7775   -9.7453 C.ar    1  UNL1        0.0131
     47 H         -15.9503   52.4439  -11.3112 H       1  UNL1        0.1660
@<TRIPOS>BOND
     1    18    19    1
     2    19    20   ar
     3    20    21   ar
     4    21    22   ar
     5    22    23    1
     6    22    24   ar
     7    24    25   ar
     8    25    12    1
     9    12    13    1
    10    13    14    1
    11    14    15    1
    12    15     5    1
    13     5     6   ar
    14     6     7   ar
    15     7     8   ar
    16     8     1    1
    17     1     2    2
    18     1     3   am
    19     3    26    1
    20    26    37    1
    21    37    38    1
    22    38    39   ar
    23    39    40   ar
    24    40    41   ar
    25    41    42   ar
    26    42    43   ar
    27    43    44   ar
    28    44    45   ar
    29    45    46   ar
    30    26    27    1
    31    27    28    2
    32    27    29   am
    33    29    31    1
    34    31    32   ar
    35    32    33   ar
    36    33    34   ar
    37    34    35   ar
    38    35    36   ar
    39     8     9   ar
    40     9    10    1
    41     9    11   ar
    42    15    16    1
    43    16    17    1
    44    25    19   ar
    45    17    12    1
    46    11     5   ar
    47    46    38   ar
    48    36    31   ar
    49    46    41   ar
    50     3     4    1
    51    40    47    1
    52    29    30    1
@<TRIPOS>MOLECULE
*****
 47 52 0 0 0
SMALL
GASTEIGER

@<TRIPOS>ATOM
      1 C         -23.2661   51.9421  -10.7598 C.2     1  UNL1        0.2483
      2 O         -23.7865   52.3383  -11.8374 O.2     1  UNL1       -0.2701
      3 N         -21.8766   52.2025  -10.4834 N.am    1  UNL1       -0.2945
      4 H         -21.5216   52.0018   -9.5215 H       1  UNL1        0.1501
      5 C         -25.7680   49.9154   -7.9100 C.ar    1  UNL1        0.0502
      6 C         -26.1485   50.0136   -9.2574 C.ar    1  UNL1        0.0148
      7 C         -25.3274   50.6694  -10.1780 C.ar    1  UNL1        0.0080
      8 C         -24.1140   51.2460   -9.7681 C.ar    1  UNL1        0.0808
      9 C         -23.7225   51.1308   -8.4203 C.ar    1  UNL1        0.1457
     10 F         -22.5228   51.6047   -7.9983 F       1  UNL1       -0.2040
     11 C         -24.5470   50.4730   -7.5022 C.ar    1  UNL1        0.0443
     12 N         -28.6173   48.1702   -5.3824 N.pl3   1  UNL1       -0.3043
     13 C         -28.2317   49.5621   -5.1384 C.3     1  UNL1        0.1122
     14 C         -26.7926   49.7891   -5.6061 C.3     1  UNL1        0.1122
     15 N         -26.6081   49.2383   -6.9562 N.pl3   1  UNL1       -0.3040
     16 C         -27.0158   47.8472   -7.1990 C.3     1  UNL1        0.1122
     17 C         -28.4573   47.6350   -6.7364 C.3     1  UNL1        0.1122
     18 C         -31.4493   47.8805   -4.6595 C.3     1  UNL1        0.0323
     19 C         -30.3540   47.1489   -3.9327 C.ar    1  UNL1       -0.0085
     20 C         -30.6871   46.2665   -2.8915 C.ar    1  UNL1       -0.0022
     21 C         -29.6880   45.5808   -2.1966 C.ar    1  UNL1        0.0112
     22 C         -28.3460   45.7621   -2.5380 C.ar    1  UNL1        0.0589
     23 CL        -27.0935   44.9007   -1.6629 Cl      1  UNL1       -0.0822
     24 C         -28.0021   46.6234   -3.5833 C.ar    1  UNL1        0.0256
     25 C         -28.9971   47.3117   -4.2944 C.ar    1  UNL1        0.0447
     26 C         -20.9271   52.8315  -11.4158 C.3     1  UNL1        0.1535
     27 C         -20.2273   54.0099  -10.7865 C.2     1  UNL1        0.2443
     28 O         -19.3658   54.6586  -11.4398 O.2     1  UNL1       -0.2730
     29 N         -20.6180   54.4465   -9.4747 N.am    1  UNL1       -0.2825
     30 H         -21.5305   54.1016   -9.0986 H       1  UNL1        0.1549
     31 C         -19.8882   55.4094   -8.6950 C.ar    1  UNL1        0.0535
     32 C         -20.1376   56.7763   -8.8793 C.ar    1  UNL1        0.0353
     33 C         -19.4479   57.7153   -8.1087 C.ar    1  UNL1        0.1002
     34 N         -18.5516   57.3039   -7.1734 N.ar    1  UNL1       -0.2422
     35 C         -18.3026   55.9852   -6.9578 C.ar    1  UNL1        0.1002
     36 C         -18.9699   55.0132   -7.7075 C.ar    1  UNL1        0.0353
     37 C         -19.9125   51.8265  -11.9937 C.3     1  UNL1        0.0569
     38 C         -18.6110   51.8704  -11.2464 C.ar    1  UNL1       -0.0017
     39 C         -17.3534   52.1323  -11.7829 C.ar    1  UNL1        0.0681
     40 N         -16.4213   52.1705  -10.8035 N.ar    1  UNL1       -0.3523
     41 C         -17.0808   51.9453   -9.6538 C.ar    1  UNL1        0.0563
     42 C         -16.5466   51.9079   -8.3665 C.ar    1  UNL1        0.0170
     43 C         -17.4283   51.6737   -7.2954 C.ar    1  UNL1        0.0015
     44 C         -18.8086   51.4872   -7.5319 C.ar    1  UNL1        0.0001
     45 C         -19.3200   51.5322   -8.8417 C.ar    1  UNL1        0.0012
     46 C         -18.4205   51.7620   -9.8831 C.ar    1  UNL1        0.0131
     47 H         -15.3999   52.3532  -10.9199 H       1  UNL1        0.1660
@<TRIPOS>BOND
     1    18    19    1
     2    19    20   ar
     3    20    21   ar
     4    21    22   ar
     5    22    23    1
     6    22    24   ar
     7    24    25   ar
     8    25    12    1
     9    12    13    1
    10    13    14    1
    11    14    15    1
    12    15     5    1
    13     5     6   ar
    14     6     7   ar
    15     7     8   ar
    16     8     1    1
    17     1     2    2
    18     1     3   am
    19     3    26    1
    20    26    37    1
    21    37    38    1
    22    38    39   ar
    23    39    40   ar
    24    40    41   ar
    25    41    42   ar
    26    42    43   ar
    27    43    44   ar
    28    44    45   ar
    29    45    46   ar
    30    26    27    1
    31    27    28    2
    32    27    29   am
    33    29    31    1
    34    31    32   ar
    35    32    33   ar
    36    33    34   ar
    37    34    35   ar
    38    35    36   ar
    39     8     9   ar
    40     9    10    1
    41     9    11   ar
    42    15    16    1
    43    16    17    1
    44    25    19   ar
    45    17    12    1
    46    11     5   ar
    47    46    38   ar
    48    36    31   ar
    49    46    41   ar
    50     3     4    1
    51    40    47    1
    52    29    30    1
@<TRIPOS>MOLECULE
*****
 47 52 0 0 0
SMALL
GASTEIGER

@<TRIPOS>ATOM
      1 C         -23.2069   52.5209  -10.6875 C.2     1  UNL1        0.2483
      2 O         -23.2411   52.5031  -11.9474 O.2     1  UNL1       -0.2701
      3 N         -22.3701   53.4673   -9.9952 N.am    1  UNL1       -0.2945
      4 H         -22.4856   53.5598   -8.9610 H       1  UNL1        0.1501
      5 C         -25.6855   49.8052   -8.4582 C.ar    1  UNL1        0.0502
      6 C         -24.6061   50.4602   -7.8450 C.ar    1  UNL1        0.0148
      7 C         -23.8088   51.3450   -8.5751 C.ar    1  UNL1        0.0080
      8 C         -24.0703   51.5863   -9.9339 C.ar    1  UNL1        0.0808
      9 C         -25.1648   50.9444  -10.5446 C.ar    1  UNL1        0.1457
     10 F         -25.4998   51.2085  -11.8329 F       1  UNL1       -0.2040
     11 C         -25.9608   50.0599   -9.8100 C.ar    1  UNL1        0.0443
     12 N         -28.4676   47.2551   -6.6388 N.pl3   1  UNL1       -0.3043
     13 C         -28.5755   48.6940   -6.3872 C.3     1  UNL1        0.1122
     14 C         -27.1925   49.3412   -6.4867 C.3     1  UNL1        0.1122
     15 N         -26.5133   48.8940   -7.7109 N.pl3   1  UNL1       -0.3040
     16 C         -26.4262   47.4493   -7.9671 C.3     1  UNL1        0.1122
     17 C         -27.8143   46.8158   -7.8739 C.3     1  UNL1        0.1122
     18 C         -31.0418   45.8572   -6.8524 C.3     1  UNL1        0.0323
     19 C         -30.0835   45.6108   -5.7193 C.ar    1  UNL1       -0.0085
     20 C         -30.4042   44.6555   -4.7403 C.ar    1  UNL1       -0.0022
     21 C         -29.5344   44.4135   -3.6744 C.ar    1  UNL1        0.0112
     22 C         -28.3314   45.1164   -3.5778 C.ar    1  UNL1        0.0589
     23 CL        -27.2417   44.8112   -2.2376 Cl      1  UNL1       -0.0822
     24 C         -27.9922   46.0565   -4.5543 C.ar    1  UNL1        0.0256
     25 C         -28.8537   46.3028   -5.6343 C.ar    1  UNL1        0.0447
     26 C         -21.4301   54.4005  -10.6371 C.3     1  UNL1        0.1535
     27 C         -21.0325   55.5180   -9.7059 C.2     1  UNL1        0.2443
     28 O         -21.7164   56.5761   -9.6568 O.2     1  UNL1       -0.2730
     29 N         -19.9275   55.3303   -8.8071 N.am    1  UNL1       -0.2825
     30 H         -19.5914   54.3535   -8.6463 H       1  UNL1        0.1549
     31 C         -19.3282   56.3850   -8.0350 C.ar    1  UNL1        0.0535
     32 C         -18.4786   56.0607   -6.9684 C.ar    1  UNL1        0.0353
     33 C         -17.8758   57.0813   -6.2292 C.ar    1  UNL1        0.1002
     34 N         -18.0996   58.3821   -6.5538 N.ar    1  UNL1       -0.2422
     35 C         -18.9026   58.7278   -7.5946 C.ar    1  UNL1        0.1002
     36 C         -19.5258   57.7382   -8.3591 C.ar    1  UNL1        0.0353
     37 C         -20.1906   53.6887  -11.2120 C.3     1  UNL1        0.0569
     38 C         -19.4873   52.8786  -10.1615 C.ar    1  UNL1       -0.0017
     39 C         -20.0154   52.4596   -8.9436 C.ar    1  UNL1        0.0681
     40 N         -19.1258   51.6810   -8.2864 N.ar    1  UNL1       -0.3523
     41 C         -18.0460   51.5969   -9.0829 C.ar    1  UNL1        0.0563
     42 C         -16.8718   50.8847   -8.8422 C.ar    1  UNL1        0.0170
     43 C         -15.8684   50.9189   -9.8279 C.ar    1  UNL1        0.0015
     44 C         -16.0601   51.6530  -11.0196 C.ar    1  UNL1        0.0001
     45 C         -17.2566   52.3607  -11.2363 C.ar    1  UNL1        0.0012
     46 C         -18.2308   52.3112  -10.2390 C.ar    1  UNL1        0.0131
     47 H         -19.2606   51.2271   -7.3558 H       1  UNL1        0.1660
@<TRIPOS>BOND
     1    18    19    1
     2    19    20   ar
     3    20    21   ar
     4    21    22   ar
     5    22    23    1
     6    22    24   ar
     7    24    25   ar
     8    25    12    1
     9    12    13    1
    10    13    14    1
    11    14    15    1
    12    15     5    1
    13     5     6   ar
    14     6     7   ar
    15     7     8   ar
    16     8     1    1
    17     1     2    2
    18     1     3   am
    19     3    26    1
    20    26    37    1
    21    37    38    1
    22    38    39   ar
    23    39    40   ar
    24    40    41   ar
    25    41    42   ar
    26    42    43   ar
    27    43    44   ar
    28    44    45   ar
    29    45    46   ar
    30    26    27    1
    31    27    28    2
    32    27    29   am
    33    29    31    1
    34    31    32   ar
    35    32    33   ar
    36    33    34   ar
    37    34    35   ar
    38    35    36   ar
    39     8     9   ar
    40     9    10    1
    41     9    11   ar
    42    15    16    1
    43    16    17    1
    44    25    19   ar
    45    17    12    1
    46    11     5   ar
    47    46    38   ar
    48    36    31   ar
    49    46    41   ar
    50     3     4    1
    51    40    47    1
    52    29    30    1
@<TRIPOS>MOLECULE
*****
 47 52 0 0 0
SMALL
GASTEIGER

@<TRIPOS>ATOM
      1 C         -24.0230   51.7530  -10.4607 C.2     1  UNL1        0.2483
      2 O         -24.1270   51.4966  -11.6905 O.2     1  UNL1       -0.2701
      3 N         -23.1606   52.8146  -10.0087 N.am    1  UNL1       -0.2945
      4 H         -23.2195   53.1014   -9.0058 H       1  UNL1        0.1501
      5 C         -26.4129   49.4974   -7.6878 C.ar    1  UNL1        0.0502
      6 C         -26.8550   49.7197   -9.0013 C.ar    1  UNL1        0.0148
      7 C         -26.0700   50.4493   -9.8975 C.ar    1  UNL1        0.0080
      8 C         -24.8318   50.9771   -9.4960 C.ar    1  UNL1        0.0808
      9 C         -24.3790   50.7378   -8.1843 C.ar    1  UNL1        0.1457
     10 F         -23.1553   51.1624   -7.7793 F       1  UNL1       -0.2040
     11 C         -25.1675   50.0065   -7.2904 C.ar    1  UNL1        0.0443
     12 N         -28.8928   47.0140   -5.3996 N.pl3   1  UNL1       -0.3043
     13 C         -29.5128   48.0914   -6.1745 C.3     1  UNL1        0.1122
     14 C         -28.5261   49.2507   -6.3288 C.3     1  UNL1        0.1122
     15 N         -27.2155   48.7438   -6.7595 N.pl3   1  UNL1       -0.3040
     16 C         -26.6084   47.6491   -5.9893 C.3     1  UNL1        0.1122
     17 C         -27.5997   46.4938   -5.8496 C.3     1  UNL1        0.1122
     18 C         -30.2339   44.4076   -5.2140 C.3     1  UNL1        0.0323
     19 C         -30.1045   45.3322   -4.0344 C.ar    1  UNL1       -0.0085
     20 C         -30.6089   44.9318   -2.7858 C.ar    1  UNL1       -0.0022
     21 C         -30.5076   45.7752   -1.6769 C.ar    1  UNL1        0.0112
     22 C         -29.8949   47.0242   -1.7998 C.ar    1  UNL1        0.0589
     23 CL        -29.7701   48.0817   -0.4060 Cl      1  UNL1       -0.0822
     24 C         -29.3733   47.4274   -3.0319 C.ar    1  UNL1        0.0256
     25 C         -29.4616   46.5858   -4.1514 C.ar    1  UNL1        0.0447
     26 C         -22.2691   53.6105  -10.8679 C.3     1  UNL1        0.1535
     27 C         -21.9104   54.9282  -10.2283 C.2     1  UNL1        0.2443
     28 O         -22.7355   55.8816  -10.2345 O.2     1  UNL1       -0.2730
     29 N         -20.6623   55.0582   -9.5286 N.am    1  UNL1       -0.2825
     30 H         -20.1561   54.1810   -9.2691 H       1  UNL1        0.1549
     31 C         -20.1221   56.3092   -9.0694 C.ar    1  UNL1        0.0535
     32 C         -19.4746   56.3655   -7.8276 C.ar    1  UNL1        0.0353
     33 C         -18.9280   57.5731   -7.3866 C.ar    1  UNL1        0.1002
     34 N         -19.0098   58.6836   -8.1660 N.ar    1  UNL1       -0.2422
     35 C         -19.6140   58.6559   -9.3832 C.ar    1  UNL1        0.1002
     36 C         -20.1746   57.4689   -9.8616 C.ar    1  UNL1        0.0353
     37 C         -21.0061   52.8349  -11.2885 C.3     1  UNL1        0.0569
     38 C         -20.1328   52.5273  -10.1065 C.ar    1  UNL1       -0.0017
     39 C         -20.5473   52.3630   -8.7877 C.ar    1  UNL1        0.0681
     40 N         -19.5011   52.0149   -8.0043 N.ar    1  UNL1       -0.3523
     41 C         -18.4331   51.9484   -8.8183 C.ar    1  UNL1        0.0563
     42 C         -17.1264   51.6076   -8.4718 C.ar    1  UNL1        0.0170
     43 C         -16.1605   51.5818   -9.4945 C.ar    1  UNL1        0.0015
     44 C         -16.5188   51.8905  -10.8257 C.ar    1  UNL1        0.0001
     45 C         -17.8461   52.2291  -11.1465 C.ar    1  UNL1        0.0012
     46 C         -18.7801   52.2503  -10.1104 C.ar    1  UNL1        0.0131
     47 H         -19.5255   51.8231   -6.9782 H       1  UNL1        0.1660
@<TRIPOS>BOND
     1    18    19    1
     2    19    20   ar
     3    20    21   ar
     4    21    22   ar
     5    22    23    1
     6    22    24   ar
     7    24    25   ar
     8    25    12    1
     9    12    13    1
    10    13    14    1
    11    14    15    1
    12    15     5    1
    13     5     6   ar
    14     6     7   ar
    15     7     8   ar
    16     8     1    1
    17     1     2    2
    18     1     3   am
    19     3    26    1
    20    26    37    1
    21    37    38    1
    22    38    39   ar
    23    39    40   ar
    24    40    41   ar
    25    41    42   ar
    26    42    43   ar
    27    43    44   ar
    28    44    45   ar
    29    45    46   ar
    30    26    27    1
    31    27    28    2
    32    27    29   am
    33    29    31    1
    34    31    32   ar
    35    32    33   ar
    36    33    34   ar
    37    34    35   ar
    38    35    36   ar
    39     8     9   ar
    40     9    10    1
    41     9    11   ar
    42    15    16    1
    43    16    17    1
    44    25    19   ar
    45    17    12    1
    46    11     5   ar
    47    46    38   ar
    48    36    31   ar
    49    46    41   ar
    50     3     4    1
    51    40    47    1
    52    29    30    1
@<TRIPOS>MOLECULE
*****
 47 52 0 0 0
SMALL
GASTEIGER

@<TRIPOS>ATOM
      1 C         -23.2664   52.4369  -10.5948 C.2     1  UNL1        0.2483
      2 O         -23.3432   52.4041  -11.8526 O.2     1  UNL1       -0.2701
      3 N         -22.3933   53.3792   -9.9431 N.am    1  UNL1       -0.2945
      4 H         -22.4727   53.4862   -8.9068 H       1  UNL1        0.1501
      5 C         -25.7755   49.7860   -8.3221 C.ar    1  UNL1        0.0502
      6 C         -26.0964   50.1178   -9.6476 C.ar    1  UNL1        0.0148
      7 C         -25.2731   50.9758  -10.3808 C.ar    1  UNL1        0.0080
      8 C         -24.1174   51.5245   -9.8009 C.ar    1  UNL1        0.0808
      9 C         -23.7846   51.1766   -8.4776 C.ar    1  UNL1        0.1457
     10 F         -22.6371   51.6217   -7.9057 F       1  UNL1       -0.2040
     11 C         -24.6111   50.3169   -7.7474 C.ar    1  UNL1        0.0443
     12 N         -28.0295   47.4407   -5.6816 N.pl3   1  UNL1       -0.3043
     13 C         -26.6280   47.0799   -5.9082 C.3     1  UNL1        0.1122
     14 C         -26.2041   47.5116   -7.3137 C.3     1  UNL1        0.1122
     15 N         -26.6181   48.8999   -7.5614 N.pl3   1  UNL1       -0.3040
     16 C         -28.0213   49.2597   -7.3127 C.3     1  UNL1        0.1122
     17 C         -28.4304   48.8319   -5.9033 C.3     1  UNL1        0.1122
     18 C         -28.5467   46.6321   -2.9058 C.3     1  UNL1        0.0323
     19 C         -29.2846   46.0303   -4.0704 C.ar    1  UNL1       -0.0085
     20 C         -30.2831   45.0709   -3.8328 C.ar    1  UNL1       -0.0022
     21 C         -30.9776   44.4920   -4.8975 C.ar    1  UNL1        0.0112
     22 C         -30.6889   44.8696   -6.2108 C.ar    1  UNL1        0.0589
     23 CL        -31.5617   44.1401   -7.5460 Cl      1  UNL1       -0.0822
     24 C         -29.7104   45.8355   -6.4600 C.ar    1  UNL1        0.0256
     25 C         -29.0114   46.4304   -5.3985 C.ar    1  UNL1        0.0447
     26 C         -21.4621   54.2905  -10.6279 C.3     1  UNL1        0.1535
     27 C         -21.0324   55.4240   -9.7309 C.2     1  UNL1        0.2443
     28 O         -21.6755   56.5085   -9.7274 O.2     1  UNL1       -0.2730
     29 N         -19.9458   55.2259   -8.8120 N.am    1  UNL1       -0.2825
     30 H         -19.6496   54.2433   -8.6132 H       1  UNL1        0.1549
     31 C         -19.3152   56.2835   -8.0694 C.ar    1  UNL1        0.0535
     32 C         -19.5814   57.6171   -8.4088 C.ar    1  UNL1        0.0353
     33 C         -18.9892   58.6487   -7.6763 C.ar    1  UNL1        0.1002
     34 N         -18.1720   58.3598   -6.6294 N.ar    1  UNL1       -0.2422
     35 C         -17.9103   57.0770   -6.2638 C.ar    1  UNL1        0.1002
     36 C         -18.4813   56.0155   -6.9703 C.ar    1  UNL1        0.0353
     37 C         -20.2431   53.5560  -11.2179 C.3     1  UNL1        0.0569
     38 C         -19.5044   52.7844  -10.1626 C.ar    1  UNL1       -0.0017
     39 C         -20.0055   52.3728   -8.9308 C.ar    1  UNL1        0.0681
     40 N         -19.0865   51.6309   -8.2718 N.ar    1  UNL1       -0.3523
     41 C         -18.0147   51.5624   -9.0806 C.ar    1  UNL1        0.0563
     42 C         -16.8182   50.8874   -8.8427 C.ar    1  UNL1        0.0170
     43 C         -15.8285   50.9318   -9.8418 C.ar    1  UNL1        0.0015
     44 C         -16.0555   51.6390  -11.0435 C.ar    1  UNL1        0.0001
     45 C         -17.2737   52.3094  -11.2570 C.ar    1  UNL1        0.0012
     46 C         -18.2337   52.2507  -10.2464 C.ar    1  UNL1        0.0131
     47 H         -19.1970   51.1900   -7.3317 H       1  UNL1        0.1660
@<TRIPOS>BOND
     1    18    19    1
     2    19    20   ar
     3    20    21   ar
     4    21    22   ar
     5    22    23    1
     6    22    24   ar
     7    24    25   ar
     8    25    12    1
     9    12    13    1
    10    13    14    1
    11    14    15    1
    12    15     5    1
    13     5     6   ar
    14     6     7   ar
    15     7     8   ar
    16     8     1    1
    17     1     2    2
    18     1     3   am
    19     3    26    1
    20    26    37    1
    21    37    38    1
    22    38    39   ar
    23    39    40   ar
    24    40    41   ar
    25    41    42   ar
    26    42    43   ar
    27    43    44   ar
    28    44    45   ar
    29    45    46   ar
    30    26    27    1
    31    27    28    2
    32    27    29   am
    33    29    31    1
    34    31    32   ar
    35    32    33   ar
    36    33    34   ar
    37    34    35   ar
    38    35    36   ar
    39     8     9   ar
    40     9    10    1
    41     9    11   ar
    42    15    16    1
    43    16    17    1
    44    25    19   ar
    45    17    12    1
    46    11     5   ar
    47    46    38   ar
    48    36    31   ar
    49    46    41   ar
    50     3     4    1
    51    40    47    1
    52    29    30    1
@<TRIPOS>MOLECULE
*****
 47 52 0 0 0
SMALL
GASTEIGER

@<TRIPOS>ATOM
      1 C         -28.1701   51.1163   -9.1435 C.2     1  UNL1        0.2483
      2 O         -28.8971   51.2429  -10.1656 O.2     1  UNL1       -0.2701
      3 N         -28.7562   50.7865   -7.8696 N.am    1  UNL1       -0.2945
      4 H         -28.1143   50.5351   -7.0845 H       1  UNL1        0.1501
      5 C         -23.9082   51.5622   -9.4980 C.ar    1  UNL1        0.0502
      6 C         -24.5080   51.3691   -8.2438 C.ar    1  UNL1        0.0148
      7 C         -25.8930   51.2199   -8.1379 C.ar    1  UNL1        0.0080
      8 C         -26.7057   51.2684   -9.2825 C.ar    1  UNL1        0.0808
      9 C         -26.1026   51.4427  -10.5430 C.ar    1  UNL1        0.1457
     10 F         -26.8420   51.4174  -11.6807 F       1  UNL1       -0.2040
     11 C         -24.7159   51.5910  -10.6447 C.ar    1  UNL1        0.0443
     12 N         -19.8506   52.5110   -9.9325 N.pl3   1  UNL1       -0.3043
     13 C         -20.6541   52.3246  -11.1429 C.3     1  UNL1        0.1122
     14 C         -21.7941   51.3438  -10.8605 C.3     1  UNL1        0.1122
     15 N         -22.4809   51.7138   -9.6149 N.pl3   1  UNL1       -0.3040
     16 C         -21.6664   51.9189   -8.4087 C.3     1  UNL1        0.1122
     17 C         -20.5369   52.9068   -8.7006 C.3     1  UNL1        0.1122
     18 C         -18.3782   52.2349  -12.4588 C.3     1  UNL1        0.0323
     19 C         -17.7226   52.0380  -11.1192 C.ar    1  UNL1       -0.0085
     20 C         -16.3499   51.7449  -11.0597 C.ar    1  UNL1       -0.0022
     21 C         -15.7193   51.5505   -9.8285 C.ar    1  UNL1        0.0112
     22 C         -16.4499   51.6542   -8.6427 C.ar    1  UNL1        0.0589
     23 CL        -15.6558   51.4085   -7.0981 Cl      1  UNL1       -0.0822
     24 C         -17.8120   51.9627   -8.6869 C.ar    1  UNL1        0.0256
     25 C         -18.4552   52.1682   -9.9172 C.ar    1  UNL1        0.0447
     26 C         -30.1987   50.6692   -7.6017 C.3     1  UNL1        0.1535
     27 C         -30.7527   49.3588   -8.1017 C.2     1  UNL1        0.2443
     28 O         -31.5383   48.6861   -7.3806 O.2     1  UNL1       -0.2730
     29 N         -30.4562   48.9305   -9.4407 N.am    1  UNL1       -0.2825
     30 H         -30.0795   49.6424  -10.1072 H       1  UNL1        0.1549
     31 C         -30.7459   47.6173   -9.9497 C.ar    1  UNL1        0.0535
     32 C         -31.2149   47.4755  -11.2629 C.ar    1  UNL1        0.0353
     33 C         -31.4764   46.2004  -11.7701 C.ar    1  UNL1        0.1002
     34 N         -31.2612   45.1022  -10.9987 N.ar    1  UNL1       -0.2422
     35 C         -30.7885   45.2063   -9.7286 C.ar    1  UNL1        0.1002
     36 C         -30.5149   46.4627   -9.1822 C.ar    1  UNL1        0.0353
     37 C         -30.5435   50.8876   -6.1161 C.3     1  UNL1        0.0569
     38 C         -29.6049   50.1337   -5.2189 C.ar    1  UNL1       -0.0017
     39 C         -29.8139   48.8713   -4.6707 C.ar    1  UNL1        0.0681
     40 N         -28.7227   48.4707   -3.9792 N.ar    1  UNL1       -0.3523
     41 C         -27.8241   49.4640   -4.0947 C.ar    1  UNL1        0.0563
     42 C         -26.5349   49.5031   -3.5654 C.ar    1  UNL1        0.0170
     43 C         -25.7511   50.6419   -3.8269 C.ar    1  UNL1        0.0015
     44 C         -26.2663   51.7023   -4.6053 C.ar    1  UNL1        0.0001
     45 C         -27.5705   51.6345   -5.1284 C.ar    1  UNL1        0.0012
     46 C         -28.3247   50.4948   -4.8483 C.ar    1  UNL1        0.0131
     47 H         -28.6016   47.5658   -3.4723 H       1  UNL1        0.1660
@<TRIPOS>BOND
     1    18    19    1
     2    19    20   ar
     3    20    21   ar
     4    21    22   ar
     5    22    23    1
     6    22    24   ar
     7    24    25   ar
     8    25    12    1
     9    12    13    1
    10    13    14    1
    11    14    15    1
    12    15     5    1
    13     5     6   ar
    14     6     7   ar
    15     7     8   ar
    16     8     1    1
    17     1     2    2
    18     1     3   am
    19     3    26    1
    20    26    37    1
    21    37    38    1
    22    38    39   ar
    23    39    40   ar
    24    40    41   ar
    25    41    42   ar
    26    42    43   ar
    27    43    44   ar
    28    44    45   ar
    29    45    46   ar
    30    26    27    1
    31    27    28    2
    32    27    29   am
    33    29    31    1
    34    31    32   ar
    35    32    33   ar
    36    33    34   ar
    37    34    35   ar
    38    35    36   ar
    39     8     9   ar
    40     9    10    1
    41     9    11   ar
    42    15    16    1
    43    16    17    1
    44    25    19   ar
    45    17    12    1
    46    11     5   ar
    47    46    38   ar
    48    36    31   ar
    49    46    41   ar
    50     3     4    1
    51    40    47    1
    52    29    30    1
