@<TRIPOS>MOLECULE
*****
 45 50 0 0 0
SMALL
GASTEIGER

@<TRIPOS>ATOM
      1 C          60.9839   89.7739    9.2550 C.ar    1  UNL1        0.0702
      2 C          60.7719   90.5561   10.4006 C.ar    1  UNL1        0.0191
      3 C          60.6910   89.9514   11.6562 C.ar    1  UNL1        0.0356
      4 C          60.7966   88.5554   11.7616 C.ar    1  UNL1        0.1318
      5 N          60.9940   87.8172   10.6340 N.ar    1  UNL1       -0.2279
      6 C          61.0762   88.3845    9.4017 C.ar    1  UNL1        0.1149
      7 N          60.7405   87.8979   13.0416 N.pl3   1  UNL1       -0.2932
      8 C          61.3313   88.5038   14.2433 C.3     1  UNL1        0.0923
      9 C          62.2218   87.4918   14.9846 C.3     1  UNL1        0.0252
     10 C          61.7324   86.0247   14.8509 C.3     1  UNL1        0.0472
     11 C          60.2298   85.9590   14.5136 C.3     1  UNL1        0.0252
     12 C          59.9595   86.6590   13.1729 C.3     1  UNL1        0.0923
     13 C          62.0520   85.2234   16.1279 C.3     1  UNL1        0.2054
     14 O          62.7476   84.0138   15.8203 O.3     1  UNL1       -0.4754
     15 C          62.5792   83.2477   14.6550 C.ar    1  UNL1        0.1392
     16 C          63.3749   83.4227   13.5070 C.ar    1  UNL1        0.0427
     17 C          63.1584   82.6344   12.3743 C.ar    1  UNL1        0.0333
     18 I          64.3514   82.9124   10.6570 I       1  UNL1       -0.0424
     19 C          62.1542   81.6629   12.3759 C.ar    1  UNL1        0.0124
     20 C          61.3546   81.4689   13.5153 C.ar    1  UNL1        0.0789
     21 C          61.5787   82.2679   14.6502 C.ar    1  UNL1        0.0434
     22 C          60.2905   80.4406   13.5242 C.2     1  UNL1        0.3381
     23 O          60.3071   79.4971   12.6879 O.2     1  UNL1       -0.2451
     24 O          59.2592   80.5054   14.4577 O.3     1  UNL1       -0.4771
     25 H          58.5258   79.8067   14.4722 H       1  UNL1        0.2954
     26 C          60.0766   90.1152    6.9069 C.2     1  UNL1        0.2839
     27 O          59.1315   89.3028    7.0925 O.2     1  UNL1       -0.2665
     28 N          61.0476   90.3532    7.9414 N.am    1  UNL1       -0.2766
     29 H          61.8210   91.0288    7.7587 H       1  UNL1        0.1553
     30 C          57.6469   91.1772    5.0485 C.3     1  UNL1        0.0345
     31 C          59.1228   91.2687    4.8055 C.ar    1  UNL1        0.0202
     32 C          60.1715   90.7912    5.6015 C.ar    1  UNL1        0.1946
     33 O          61.3290   91.0120    5.0035 O.2     1  UNL1       -0.4492
     34 C          61.0872   91.6299    3.8731 C.ar    1  UNL1        0.1452
     35 C          62.0132   92.0614    2.9298 C.ar    1  UNL1        0.0375
     36 C          61.5300   92.7082    1.7787 C.ar    1  UNL1        0.0031
     37 C          60.1362   92.9121    1.5881 C.ar    1  UNL1        0.0002
     38 C          59.2275   92.4550    2.5727 C.ar    1  UNL1        0.0028
     39 C          59.7430   91.8197    3.7023 C.ar    1  UNL1        0.0337
     40 C          59.6371   93.5965    0.3684 C.ar    1  UNL1        0.0000
     41 C          58.2557   93.7732    0.1611 C.ar    1  UNL1        0.0000
     42 C          57.7888   94.4171   -0.9889 C.ar    1  UNL1        0.0000
     43 C          58.6920   94.8916   -1.9425 C.ar    1  UNL1        0.0000
     44 C          60.0647   94.7227   -1.7485 C.ar    1  UNL1        0.0000
     45 C          60.5374   94.0787   -0.6008 C.ar    1  UNL1        0.0000
@<TRIPOS>BOND
     1    30    31    1
     2    31    32   ar
     3    32    26    1
     4    26    27    2
     5    26    28   am
     6    28     1    1
     7     1     2   ar
     8     2     3   ar
     9     3     4   ar
    10     4     7    1
    11     7     8    1
    12     8     9    1
    13     9    10    1
    14    10    13    1
    15    13    14    1
    16    14    15    1
    17    15    16   ar
    18    16    17   ar
    19    17    18    1
    20    17    19   ar
    21    19    20   ar
    22    20    22    1
    23    22    23    2
    24    22    24    1
    25    20    21   ar
    26    10    11    1
    27    11    12    1
    28     4     5   ar
    29     5     6   ar
    30    32    33   ar
    31    33    34   ar
    32    34    35   ar
    33    35    36   ar
    34    36    37   ar
    35    37    40    1
    36    40    41   ar
    37    41    42   ar
    38    42    43   ar
    39    43    44   ar
    40    44    45   ar
    41    37    38   ar
    42    38    39   ar
    43    39    31   ar
    44     6     1   ar
    45    39    34   ar
    46    12     7    1
    47    45    40   ar
    48    21    15   ar
    49    28    29    1
    50    24    25    1
@<TRIPOS>MOLECULE
*****
 45 50 0 0 0
SMALL
GASTEIGER

@<TRIPOS>ATOM
      1 C          62.0313   87.4071   10.2235 C.ar    1  UNL1        0.0702
      2 C          60.9476   87.8195    9.4329 C.ar    1  UNL1        0.0191
      3 C          60.0686   86.8741    8.9017 C.ar    1  UNL1        0.0356
      4 C          60.2909   85.5088    9.1417 C.ar    1  UNL1        0.1318
      5 N          61.3544   85.1332    9.9054 N.ar    1  UNL1       -0.2279
      6 C          62.2226   86.0361   10.4328 C.ar    1  UNL1        0.1149
      7 N          59.3934   84.5058    8.6294 N.pl3   1  UNL1       -0.2932
      8 C          57.9893   84.4397    9.0587 C.3     1  UNL1        0.0923
      9 C          57.6110   83.0071    9.4725 C.3     1  UNL1        0.0252
     10 C          58.3727   81.9131    8.6771 C.3     1  UNL1        0.0472
     11 C          58.8834   82.4499    7.3255 C.3     1  UNL1        0.0252
     12 C          59.8579   83.6152    7.5555 C.3     1  UNL1        0.0923
     13 C          57.4906   80.6644    8.4829 C.3     1  UNL1        0.2054
     14 O          57.7032   79.7122    9.5268 O.3     1  UNL1       -0.4754
     15 C          58.6456   79.8305   10.5617 C.ar    1  UNL1        0.1392
     16 C          59.9553   80.3006   10.3489 C.ar    1  UNL1        0.0427
     17 C          60.8518   80.3925   11.4163 C.ar    1  UNL1        0.0333
     18 I          62.8145   81.0900   11.0830 I       1  UNL1       -0.0424
     19 C          60.4521   80.0236   12.7033 C.ar    1  UNL1        0.0124
     20 C          59.1463   79.5587   12.9362 C.ar    1  UNL1        0.0789
     21 C          58.2513   79.4683   11.8557 C.ar    1  UNL1        0.0434
     22 C          58.7160   79.1680   14.2970 C.2     1  UNL1        0.3381
     23 O          58.4112   80.0474   15.1477 O.2     1  UNL1       -0.2451
     24 O          58.6435   77.8233   14.6516 O.3     1  UNL1       -0.4771
     25 H          58.3503   77.5452   15.5805 H       1  UNL1        0.2954
     26 C          62.6696   89.2754   11.8220 C.2     1  UNL1        0.2839
     27 O          61.4996   89.3587   12.2822 O.2     1  UNL1       -0.2665
     28 N          62.9742   88.3452   10.7678 N.am    1  UNL1       -0.2766
     29 H          63.9508   88.3002   10.4041 H       1  UNL1        0.1553
     30 C          64.4699   88.8145   14.4737 C.3     1  UNL1        0.0345
     31 C          64.4966   89.9615   13.5095 C.ar    1  UNL1        0.0202
     32 C          63.7033   90.1681   12.3740 C.ar    1  UNL1        0.1946
     33 O          63.9910   91.3369   11.8287 O.2     1  UNL1       -0.4492
     34 C          64.9465   91.8877   12.5369 C.ar    1  UNL1        0.1452
     35 C          65.5612   93.1156   12.3185 C.ar    1  UNL1        0.0375
     36 C          66.5726   93.5151   13.2098 C.ar    1  UNL1        0.0031
     37 C          66.9517   92.6864   14.3008 C.ar    1  UNL1        0.0002
     38 C          66.2985   91.4445   14.4879 C.ar    1  UNL1        0.0028
     39 C          65.3017   91.0802   13.5829 C.ar    1  UNL1        0.0337
     40 C          68.0212   93.1185   15.2360 C.ar    1  UNL1        0.0000
     41 C          68.2683   94.4867   15.4581 C.ar    1  UNL1        0.0000
     42 C          69.2768   94.8904   16.3385 C.ar    1  UNL1        0.0000
     43 C          70.0479   93.9366   17.0063 C.ar    1  UNL1        0.0000
     44 C          69.8125   92.5764   16.7947 C.ar    1  UNL1        0.0000
     45 C          68.8060   92.1667   15.9148 C.ar    1  UNL1        0.0000
@<TRIPOS>BOND
     1    30    31    1
     2    31    32   ar
     3    32    26    1
     4    26    27    2
     5    26    28   am
     6    28     1    1
     7     1     2   ar
     8     2     3   ar
     9     3     4   ar
    10     4     7    1
    11     7     8    1
    12     8     9    1
    13     9    10    1
    14    10    13    1
    15    13    14    1
    16    14    15    1
    17    15    16   ar
    18    16    17   ar
    19    17    18    1
    20    17    19   ar
    21    19    20   ar
    22    20    22    1
    23    22    23    2
    24    22    24    1
    25    20    21   ar
    26    10    11    1
    27    11    12    1
    28     4     5   ar
    29     5     6   ar
    30    32    33   ar
    31    33    34   ar
    32    34    35   ar
    33    35    36   ar
    34    36    37   ar
    35    37    40    1
    36    40    41   ar
    37    41    42   ar
    38    42    43   ar
    39    43    44   ar
    40    44    45   ar
    41    37    38   ar
    42    38    39   ar
    43    39    31   ar
    44     6     1   ar
    45    39    34   ar
    46    12     7    1
    47    45    40   ar
    48    21    15   ar
    49    28    29    1
    50    24    25    1
