@<TRIPOS>MOLECULE
*****
 45 50 0 0 0
SMALL
GASTEIGER

@<TRIPOS>ATOM
      1 C         -62.2146  -52.2827  -22.9616 C.3     1  UNL1        0.0325
      2 C         -63.5872  -52.7280  -23.3874 C.ar    1  UNL1       -0.0041
      3 C         -64.2410  -53.7442  -22.6743 C.ar    1  UNL1        0.0313
      4 C         -65.5202  -54.1643  -23.0682 C.ar    1  UNL1        0.1315
      5 N         -66.1190  -53.5657  -24.1330 N.ar    1  UNL1       -0.2279
      6 C         -65.5140  -52.5809  -24.8453 C.ar    1  UNL1        0.1146
      7 C         -64.2337  -52.1300  -24.4888 C.ar    1  UNL1        0.0661
      8 N         -66.2233  -55.1883  -22.3399 N.pl3   1  UNL1       -0.2933
      9 C         -67.3920  -55.8305  -22.9597 C.3     1  UNL1        0.0923
     10 C         -68.1956  -56.6504  -21.9375 C.3     1  UNL1        0.0252
     11 C         -68.2292  -55.9171  -20.5837 C.3     1  UNL1        0.0472
     12 C         -66.7997  -55.7818  -19.9986 C.3     1  UNL1        0.0252
     13 C         -65.6996  -55.7235  -21.0753 C.3     1  UNL1        0.0923
     14 C         -69.1960  -56.6114  -19.6047 C.3     1  UNL1        0.2054
     15 O         -69.5166  -55.7494  -18.5096 O.3     1  UNL1       -0.4755
     16 C         -69.0648  -55.8767  -17.1856 C.ar    1  UNL1        0.1388
     17 C         -69.8692  -56.3792  -16.1454 C.ar    1  UNL1        0.0369
     18 C         -69.3586  -56.4825  -14.8499 C.ar    1  UNL1        0.0033
     19 C         -68.0507  -56.0799  -14.5738 C.ar    1  UNL1        0.0066
     20 C         -67.2373  -55.5609  -15.5954 C.ar    1  UNL1        0.0785
     21 C         -67.7588  -55.4600  -16.8973 C.ar    1  UNL1        0.0433
     22 C         -65.8519  -55.1265  -15.3096 C.2     1  UNL1        0.3381
     23 O         -65.6360  -54.0866  -14.6300 O.2     1  UNL1       -0.2451
     24 O         -64.7719  -55.8634  -15.7891 O.3     1  UNL1       -0.4771
     25 H         -63.8197  -55.5748  -15.5991 H       1  UNL1        0.2954
     26 N         -63.5716  -51.1167  -25.2660 N.am    1  UNL1       -0.2769
     27 C         -63.9270  -49.7242  -25.2218 C.2     1  UNL1        0.2839
     28 O         -64.8891  -49.3360  -24.5063 O.2     1  UNL1       -0.2665
     29 H         -62.7918  -51.4193  -25.8883 H       1  UNL1        0.1553
     30 C         -63.2037  -48.7242  -26.0265 C.ar    1  UNL1        0.1946
     31 O         -62.3759  -47.8482  -25.4846 O.2     1  UNL1       -0.4492
     32 C         -61.8979  -47.0967  -26.4462 C.ar    1  UNL1        0.1452
     33 C         -60.9988  -46.0425  -26.3284 C.ar    1  UNL1        0.0375
     34 C         -60.6171  -45.3668  -27.5007 C.ar    1  UNL1        0.0031
     35 C         -61.1359  -45.7531  -28.7664 C.ar    1  UNL1        0.0002
     36 C         -62.0475  -46.8335  -28.8417 C.ar    1  UNL1        0.0028
     37 C         -62.4050  -47.4792  -27.6580 C.ar    1  UNL1        0.0337
     38 C         -63.2456  -48.5468  -27.4153 C.ar    1  UNL1        0.0202
     39 C         -63.9905  -49.3490  -28.4389 C.3     1  UNL1        0.0345
     40 C         -60.7257  -45.0322  -29.9982 C.ar    1  UNL1        0.0000
     41 C         -59.4378  -45.2124  -30.5379 C.ar    1  UNL1        0.0000
     42 C         -59.0540  -44.5314  -31.6972 C.ar    1  UNL1        0.0000
     43 C         -59.9485  -43.6655  -32.3302 C.ar    1  UNL1        0.0000
     44 C         -61.2288  -43.4783  -31.8050 C.ar    1  UNL1        0.0000
     45 C         -61.6178  -44.1560  -30.6454 C.ar    1  UNL1        0.0000
@<TRIPOS>BOND
     1     1     2    1
     2     2     3   ar
     3     3     4   ar
     4     4     8    1
     5     8     9    1
     6     9    10    1
     7    10    11    1
     8    11    14    1
     9    14    15    1
    10    15    16    1
    11    16    17   ar
    12    17    18   ar
    13    18    19   ar
    14    19    20   ar
    15    20    22    1
    16    22    23    2
    17    22    24    1
    18    20    21   ar
    19    11    12    1
    20    12    13    1
    21     4     5   ar
    22     5     6   ar
    23     6     7   ar
    24     7    26    1
    25    26    27   am
    26    27    28    2
    27    27    30    1
    28    30    31   ar
    29    31    32   ar
    30    32    33   ar
    31    33    34   ar
    32    34    35   ar
    33    35    40    1
    34    40    41   ar
    35    41    42   ar
    36    42    43   ar
    37    43    44   ar
    38    44    45   ar
    39    35    36   ar
    40    36    37   ar
    41    37    38   ar
    42    38    39    1
    43     7     2   ar
    44    38    30   ar
    45    13     8    1
    46    37    32   ar
    47    21    16   ar
    48    45    40   ar
    49    24    25    1
    50    26    29    1
@<TRIPOS>MOLECULE
*****
 45 50 0 0 0
SMALL
GASTEIGER

@<TRIPOS>ATOM
      1 C         -73.6849  -56.1420  -22.0198 C.3     1  UNL1        0.0325
      2 C         -72.3256  -55.7615  -22.5404 C.ar    1  UNL1       -0.0041
      3 C         -72.0569  -55.8519  -23.9146 C.ar    1  UNL1        0.0313
      4 C         -70.7906  -55.4999  -24.4050 C.ar    1  UNL1        0.1315
      5 N         -69.8401  -55.0579  -23.5379 N.ar    1  UNL1       -0.2279
      6 C         -70.0666  -54.9597  -22.2028 C.ar    1  UNL1        0.1146
      7 C         -71.3176  -55.3028  -21.6673 C.ar    1  UNL1        0.0661
      8 N         -70.4956  -55.5606  -25.8131 N.pl3   1  UNL1       -0.2933
      9 C         -70.8573  -54.4201  -26.6680 C.3     1  UNL1        0.0923
     10 C         -70.7665  -54.7798  -28.1597 C.3     1  UNL1        0.0252
     11 C         -71.2622  -56.2203  -28.3852 C.3     1  UNL1        0.0472
     12 C         -70.3549  -57.2344  -27.6419 C.3     1  UNL1        0.0252
     13 C         -69.6914  -56.6525  -26.3794 C.3     1  UNL1        0.0923
     14 C         -71.3765  -56.5346  -29.8896 C.3     1  UNL1        0.2054
     15 O         -72.7398  -56.4804  -30.3183 O.3     1  UNL1       -0.4755
     16 C         -73.4622  -55.3261  -30.6634 C.ar    1  UNL1        0.1388
     17 C         -74.2436  -54.6056  -29.7405 C.ar    1  UNL1        0.0369
     18 C         -74.9364  -53.4636  -30.1474 C.ar    1  UNL1        0.0033
     19 C         -74.8676  -53.0327  -31.4735 C.ar    1  UNL1        0.0066
     20 C         -74.1056  -53.7474  -32.4133 C.ar    1  UNL1        0.0785
     21 C         -73.4109  -54.8964  -31.9957 C.ar    1  UNL1        0.0433
     22 C         -74.0323  -53.3005  -33.8220 C.2     1  UNL1        0.3381
     23 O         -74.5501  -53.9931  -34.7395 O.2     1  UNL1       -0.2451
     24 O         -73.3898  -52.1088  -34.1481 O.3     1  UNL1       -0.4771
     25 H         -73.3341  -51.7938  -35.1093 H       1  UNL1        0.2954
     26 N         -71.5488  -55.2409  -20.2489 N.am    1  UNL1       -0.2769
     27 C         -71.4600  -54.0274  -19.4827 C.2     1  UNL1        0.2839
     28 O         -71.1268  -52.9470  -20.0394 O.2     1  UNL1       -0.2665
     29 H         -71.7965  -56.1286  -19.7617 H       1  UNL1        0.1553
     30 C         -71.7238  -54.0168  -18.0333 C.ar    1  UNL1        0.1946
     31 O         -71.1227  -54.8491  -17.2012 O.2     1  UNL1       -0.4492
     32 C         -71.5667  -54.6021  -15.9930 C.ar    1  UNL1        0.1452
     33 C         -71.2104  -55.2456  -14.8129 C.ar    1  UNL1        0.0375
     34 C         -71.8151  -54.8159  -13.6186 C.ar    1  UNL1        0.0031
     35 C         -72.7609  -53.7548  -13.6212 C.ar    1  UNL1        0.0002
     36 C         -73.0937  -53.1256  -14.8448 C.ar    1  UNL1        0.0028
     37 C         -72.4754  -53.5795  -16.0100 C.ar    1  UNL1        0.0337
     38 C         -72.5844  -53.1696  -17.3236 C.ar    1  UNL1        0.0202
     39 C         -73.4153  -52.0343  -17.8399 C.3     1  UNL1        0.0345
     40 C         -73.3934  -53.3092  -12.3537 C.ar    1  UNL1        0.0000
     41 C         -72.6392  -53.2266  -11.1677 C.ar    1  UNL1        0.0000
     42 C         -73.2377  -52.8077   -9.9754 C.ar    1  UNL1        0.0000
     43 C         -74.5919  -52.4668   -9.9528 C.ar    1  UNL1        0.0000
     44 C         -75.3509  -52.5444  -11.1225 C.ar    1  UNL1        0.0000
     45 C         -74.7578  -52.9634  -12.3175 C.ar    1  UNL1        0.0000
@<TRIPOS>BOND
     1     1     2    1
     2     2     3   ar
     3     3     4   ar
     4     4     8    1
     5     8     9    1
     6     9    10    1
     7    10    11    1
     8    11    14    1
     9    14    15    1
    10    15    16    1
    11    16    17   ar
    12    17    18   ar
    13    18    19   ar
    14    19    20   ar
    15    20    22    1
    16    22    23    2
    17    22    24    1
    18    20    21   ar
    19    11    12    1
    20    12    13    1
    21     4     5   ar
    22     5     6   ar
    23     6     7   ar
    24     7    26    1
    25    26    27   am
    26    27    28    2
    27    27    30    1
    28    30    31   ar
    29    31    32   ar
    30    32    33   ar
    31    33    34   ar
    32    34    35   ar
    33    35    40    1
    34    40    41   ar
    35    41    42   ar
    36    42    43   ar
    37    43    44   ar
    38    44    45   ar
    39    35    36   ar
    40    36    37   ar
    41    37    38   ar
    42    38    39    1
    43     7     2   ar
    44    38    30   ar
    45    13     8    1
    46    37    32   ar
    47    21    16   ar
    48    45    40   ar
    49    24    25    1
    50    26    29    1
@<TRIPOS>MOLECULE
*****
 45 50 0 0 0
SMALL
GASTEIGER

@<TRIPOS>ATOM
      1 C         -62.0880  -52.1726  -22.9128 C.3     1  UNL1        0.0325
      2 C         -63.4627  -52.6343  -23.3135 C.ar    1  UNL1       -0.0041
      3 C         -64.0986  -53.6456  -22.5776 C.ar    1  UNL1        0.0313
      4 C         -65.3798  -54.0810  -22.9481 C.ar    1  UNL1        0.1315
      5 N         -65.9979  -53.5017  -24.0125 N.ar    1  UNL1       -0.2279
      6 C         -65.4106  -52.5220  -24.7464 C.ar    1  UNL1        0.1146
      7 C         -64.1291  -52.0564  -24.4138 C.ar    1  UNL1        0.0661
      8 N         -66.0647  -55.1003  -22.1963 N.pl3   1  UNL1       -0.2933
      9 C         -66.3347  -56.3976  -22.8339 C.3     1  UNL1        0.0923
     10 C         -67.3354  -57.2317  -22.0180 C.3     1  UNL1        0.0252
     11 C         -68.4233  -56.3172  -21.4250 C.3     1  UNL1        0.0472
     12 C         -67.8025  -55.2993  -20.4337 C.3     1  UNL1        0.0252
     13 C         -66.3420  -54.9364  -20.7623 C.3     1  UNL1        0.0923
     14 C         -69.5490  -57.1477  -20.7783 C.3     1  UNL1        0.2054
     15 O         -70.8326  -56.6177  -21.1202 O.3     1  UNL1       -0.4755
     16 C         -71.2634  -56.2313  -22.4002 C.ar    1  UNL1        0.1388
     17 C         -72.5021  -56.6218  -22.9431 C.ar    1  UNL1        0.0369
     18 C         -72.8723  -56.2012  -24.2220 C.ar    1  UNL1        0.0033
     19 C         -72.0141  -55.3987  -24.9759 C.ar    1  UNL1        0.0066
     20 C         -70.7666  -55.0115  -24.4577 C.ar    1  UNL1        0.0785
     21 C         -70.4011  -55.4391  -23.1691 C.ar    1  UNL1        0.0433
     22 C         -69.8488  -54.1658  -25.2528 C.2     1  UNL1        0.3381
     23 O         -70.3019  -53.2436  -25.9835 O.2     1  UNL1       -0.2451
     24 O         -68.4739  -54.3808  -25.2012 O.3     1  UNL1       -0.4771
     25 H         -67.8370  -53.8076  -25.7415 H       1  UNL1        0.2954
     26 N         -63.4858  -51.0488  -25.2137 N.am    1  UNL1       -0.2769
     27 C         -63.8612  -49.6609  -25.1944 C.2     1  UNL1        0.2839
     28 O         -64.8253  -49.2731  -24.4814 O.2     1  UNL1       -0.2665
     29 H         -62.7047  -51.3519  -25.8342 H       1  UNL1        0.1553
     30 C         -63.1567  -48.6662  -26.0219 C.ar    1  UNL1        0.1946
     31 O         -62.3176  -47.7860  -25.5046 O.2     1  UNL1       -0.4492
     32 C         -61.8617  -47.0410  -26.4818 C.ar    1  UNL1        0.1452
     33 C         -60.9609  -45.9855  -26.3914 C.ar    1  UNL1        0.0375
     34 C         -60.6057  -45.3178  -27.5766 C.ar    1  UNL1        0.0031
     35 C         -61.1523  -45.7133  -28.8278 C.ar    1  UNL1        0.0002
     36 C         -62.0646  -46.7946  -28.8752 C.ar    1  UNL1        0.0028
     37 C         -62.3953  -47.4322  -27.6794 C.ar    1  UNL1        0.0337
     38 C         -63.2295  -48.4986  -27.4107 C.ar    1  UNL1        0.0202
     39 C         -63.9964  -49.3082  -28.4118 C.3     1  UNL1        0.0345
     40 C         -60.7700  -45.0007  -30.0733 C.ar    1  UNL1        0.0000
     41 C         -59.4768  -45.1432  -30.6115 C.ar    1  UNL1        0.0000
     42 C         -59.1194  -44.4702  -31.7839 C.ar    1  UNL1        0.0000
     43 C         -60.0458  -43.6499  -32.4315 C.ar    1  UNL1        0.0000
     44 C         -61.3318  -43.5004  -31.9080 C.ar    1  UNL1        0.0000
     45 C         -61.6945  -44.1704  -30.7354 C.ar    1  UNL1        0.0000
@<TRIPOS>BOND
     1     1     2    1
     2     2     3   ar
     3     3     4   ar
     4     4     8    1
     5     8     9    1
     6     9    10    1
     7    10    11    1
     8    11    14    1
     9    14    15    1
    10    15    16    1
    11    16    17   ar
    12    17    18   ar
    13    18    19   ar
    14    19    20   ar
    15    20    22    1
    16    22    23    2
    17    22    24    1
    18    20    21   ar
    19    11    12    1
    20    12    13    1
    21     4     5   ar
    22     5     6   ar
    23     6     7   ar
    24     7    26    1
    25    26    27   am
    26    27    28    2
    27    27    30    1
    28    30    31   ar
    29    31    32   ar
    30    32    33   ar
    31    33    34   ar
    32    34    35   ar
    33    35    40    1
    34    40    41   ar
    35    41    42   ar
    36    42    43   ar
    37    43    44   ar
    38    44    45   ar
    39    35    36   ar
    40    36    37   ar
    41    37    38   ar
    42    38    39    1
    43     7     2   ar
    44    38    30   ar
    45    13     8    1
    46    37    32   ar
    47    21    16   ar
    48    45    40   ar
    49    24    25    1
    50    26    29    1
@<TRIPOS>MOLECULE
*****
 45 50 0 0 0
SMALL
GASTEIGER

@<TRIPOS>ATOM
      1 C         -62.1056  -52.2049  -22.8811 C.3     1  UNL1        0.0325
      2 C         -63.4552  -52.7153  -23.3074 C.ar    1  UNL1       -0.0041
      3 C         -64.0666  -53.7515  -22.5855 C.ar    1  UNL1        0.0313
      4 C         -65.3242  -54.2323  -22.9799 C.ar    1  UNL1        0.1315
      5 N         -65.9441  -53.6726  -24.0537 N.ar    1  UNL1       -0.2279
      6 C         -65.3801  -52.6698  -24.7746 C.ar    1  UNL1        0.1146
      7 C         -64.1226  -52.1587  -24.4181 C.ar    1  UNL1        0.0661
      8 N         -65.9845  -55.2783  -22.2429 N.pl3   1  UNL1       -0.2933
      9 C         -66.6448  -56.3647  -22.9819 C.3     1  UNL1        0.0923
     10 C         -67.5543  -57.2003  -22.0667 C.3     1  UNL1        0.0252
     11 C         -68.2685  -56.2843  -21.0555 C.3     1  UNL1        0.0472
     12 C         -67.2411  -55.5908  -20.1241 C.3     1  UNL1        0.0252
     13 C         -65.8646  -55.3768  -20.7815 C.3     1  UNL1        0.0923
     14 C         -69.3378  -57.0638  -20.2654 C.3     1  UNL1        0.2054
     15 O         -69.2012  -56.8326  -18.8607 O.3     1  UNL1       -0.4755
     16 C         -70.0752  -56.0936  -18.0463 C.ar    1  UNL1        0.1388
     17 C         -70.1926  -56.3026  -16.6592 C.ar    1  UNL1        0.0369
     18 C         -71.0797  -55.5316  -15.9053 C.ar    1  UNL1        0.0033
     19 C         -71.8636  -54.5546  -16.5217 C.ar    1  UNL1        0.0066
     20 C         -71.7723  -54.3417  -17.9077 C.ar    1  UNL1        0.0785
     21 C         -70.8767  -55.1222  -18.6599 C.ar    1  UNL1        0.0433
     22 C         -72.6041  -53.3121  -18.5694 C.2     1  UNL1        0.3381
     23 O         -73.8621  -53.3739  -18.5124 O.2     1  UNL1       -0.2451
     24 O         -72.0042  -52.2636  -19.2622 O.3     1  UNL1       -0.4771
     25 H         -72.5644  -51.5536  -19.7186 H       1  UNL1        0.2954
     26 N         -63.5025  -51.1258  -25.2039 N.am    1  UNL1       -0.2769
     27 C         -63.9091  -49.7471  -25.1650 C.2     1  UNL1        0.2839
     28 O         -64.8812  -49.3911  -24.4464 O.2     1  UNL1       -0.2665
     29 H         -62.7151  -51.4025  -25.8287 H       1  UNL1        0.1553
     30 C         -63.2275  -48.7253  -25.9786 C.ar    1  UNL1        0.1946
     31 O         -62.4214  -47.8232  -25.4469 O.2     1  UNL1       -0.4492
     32 C         -61.9790  -47.0576  -26.4144 C.ar    1  UNL1        0.1452
     33 C         -61.1123  -45.9754  -26.3077 C.ar    1  UNL1        0.0375
     34 C         -60.7662  -45.2888  -27.4847 C.ar    1  UNL1        0.0031
     35 C         -61.2877  -45.6922  -28.7441 C.ar    1  UNL1        0.0002
     36 C         -62.1655  -46.8009  -28.8080 C.ar    1  UNL1        0.0028
     37 C         -62.4881  -47.4568  -27.6199 C.ar    1  UNL1        0.0337
     38 C         -63.2915  -48.5503  -27.3669 C.ar    1  UNL1        0.0202
     39 C         -64.0228  -49.3764  -28.3812 C.3     1  UNL1        0.0345
     40 C         -60.9152  -44.9595  -29.9809 C.ar    1  UNL1        0.0000
     41 C         -61.8411  -44.1098  -30.6158 C.ar    1  UNL1        0.0000
     42 C         -61.4880  -43.4220  -31.7809 C.ar    1  UNL1        0.0000
     43 C         -60.2102  -43.5730  -32.3241 C.ar    1  UNL1        0.0000
     44 C         -59.2827  -44.4126  -31.7036 C.ar    1  UNL1        0.0000
     45 C         -59.6306  -45.1036  -30.5389 C.ar    1  UNL1        0.0000
@<TRIPOS>BOND
     1     1     2    1
     2     2     3   ar
     3     3     4   ar
     4     4     8    1
     5     8     9    1
     6     9    10    1
     7    10    11    1
     8    11    14    1
     9    14    15    1
    10    15    16    1
    11    16    17   ar
    12    17    18   ar
    13    18    19   ar
    14    19    20   ar
    15    20    22    1
    16    22    23    2
    17    22    24    1
    18    20    21   ar
    19    11    12    1
    20    12    13    1
    21     4     5   ar
    22     5     6   ar
    23     6     7   ar
    24     7    26    1
    25    26    27   am
    26    27    28    2
    27    27    30    1
    28    30    31   ar
    29    31    32   ar
    30    32    33   ar
    31    33    34   ar
    32    34    35   ar
    33    35    40    1
    34    40    41   ar
    35    41    42   ar
    36    42    43   ar
    37    43    44   ar
    38    44    45   ar
    39    35    36   ar
    40    36    37   ar
    41    37    38   ar
    42    38    39    1
    43     7     2   ar
    44    38    30   ar
    45    13     8    1
    46    37    32   ar
    47    21    16   ar
    48    45    40   ar
    49    24    25    1
    50    26    29    1
