@<TRIPOS>MOLECULE
*****
 32 35 0 0 0
SMALL
GASTEIGER

@<TRIPOS>ATOM
      1 N         -24.3077   -9.6152  -11.0839 N.ar    1  UNL1       -0.3243
      2 C         -23.3116   -9.2441  -10.2399 C.ar    1  UNL1        0.0600
      3 C         -23.3813   -8.3497   -9.1670 C.ar    1  UNL1        0.0177
      4 C         -22.2156   -8.1297   -8.4109 C.ar    1  UNL1        0.0082
      5 C         -21.0139   -8.8011   -8.7296 C.ar    1  UNL1        0.0347
      6 BR        -19.4497   -8.4999   -7.6776 Br      1  UNL1       -0.0490
      7 C         -20.9653   -9.6990   -9.8110 C.ar    1  UNL1        0.0082
      8 C         -22.1334   -9.8946  -10.5451 C.ar    1  UNL1        0.0177
      9 C         -22.4091  -10.7101  -11.6183 C.ar    1  UNL1        0.0177
     10 C         -21.6103  -11.6073  -12.3159 C.ar    1  UNL1        0.0079
     11 C         -22.1902  -12.3407  -13.3671 C.ar    1  UNL1        0.0307
     12 BR        -21.0416  -13.5723  -14.2897 Br      1  UNL1       -0.0493
     13 C         -23.5699  -12.1598  -13.7017 C.ar    1  UNL1       -0.0148
     14 C         -24.3429  -11.2288  -12.9623 C.ar    1  UNL1        0.0134
     15 C         -23.7379  -10.5189  -11.9235 C.ar    1  UNL1        0.0597
     16 C         -24.2363  -12.9520  -14.8189 C.3     1  UNL1        0.0229
     17 C         -25.3162  -13.8880  -14.2608 C.3     1  UNL1        0.0047
     18 C         -24.8157  -12.0193  -15.8900 C.3     1  UNL1        0.0047
     19 C         -25.7121   -9.1900  -11.0327 C.3     1  UNL1        0.1429
     20 C         -26.0338   -8.2031  -12.1645 C.3     1  UNL1        0.2027
     21 F         -27.2626   -8.5337  -12.7104 F       1  UNL1       -0.2334
     22 C         -26.0817   -6.7525  -11.6660 C.3     1  UNL1        0.1259
     23 N         -25.0864   -5.9387  -12.3612 N.pl3   1  UNL1       -0.3157
     24 H         -25.4119   -5.0810  -12.8625 H       1  UNL1        0.1483
     25 C         -21.8018   -7.4640  -13.0841 C.ar    1  UNL1        0.2261
     26 C         -20.9672   -6.8156  -12.1703 C.ar    1  UNL1        0.0578
     27 C         -21.5063   -5.8558  -11.3118 C.ar    1  UNL1        0.0077
     28 C         -22.8685   -5.5549  -11.3713 C.ar    1  UNL1        0.0343
     29 C         -23.6808   -6.2227  -12.2970 C.ar    1  UNL1        0.1317
     30 N         -23.1281   -7.1541  -13.1239 N.ar    1  UNL1       -0.1969
     31 C         -21.9619   -8.8962  -15.0937 C.3     1  UNL1        0.2542
     32 O         -21.2660   -8.4246  -13.9464 O.3     1  UNL1       -0.4561
@<TRIPOS>BOND
     1    31    32    1
     2    32    25    1
     3    25    26   ar
     4    26    27   ar
     5    27    28   ar
     6    28    29   ar
     7    29    23    1
     8    23    22    1
     9    22    20    1
    10    20    21    1
    11    20    19    1
    12    19     1    1
    13     1     2   ar
    14     2     3   ar
    15     3     4   ar
    16     4     5   ar
    17     5     6    1
    18     5     7   ar
    19     7     8   ar
    20     8     9   ar
    21     9    10   ar
    22    10    11   ar
    23    11    12    1
    24    11    13   ar
    25    13    16    1
    26    16    17    1
    27    16    18    1
    28    13    14   ar
    29    14    15   ar
    30    29    30   ar
    31    30    25   ar
    32    15     1   ar
    33     8     2   ar
    34    15     9   ar
    35    23    24    1
@<TRIPOS>MOLECULE
*****
 32 35 0 0 0
SMALL
GASTEIGER

@<TRIPOS>ATOM
      1 N         -25.1960   -8.3523  -12.7124 N.ar    1  UNL1       -0.3243
      2 C         -24.2941   -7.4027  -12.3555 C.ar    1  UNL1        0.0600
      3 C         -24.5462   -6.1061  -11.8961 C.ar    1  UNL1        0.0177
      4 C         -23.4458   -5.2951  -11.5641 C.ar    1  UNL1        0.0082
      5 C         -22.1266   -5.7857  -11.6892 C.ar    1  UNL1        0.0347
      6 BR        -20.6501   -4.6725  -11.2153 Br      1  UNL1       -0.0490
      7 C         -21.8945   -7.0939  -12.1505 C.ar    1  UNL1        0.0082
      8 C         -23.0026   -7.8736  -12.4759 C.ar    1  UNL1        0.0177
      9 C         -23.1044   -9.1723  -12.9185 C.ar    1  UNL1        0.0177
     10 C         -22.1324  -10.1294  -13.1809 C.ar    1  UNL1        0.0079
     11 C         -22.5483  -11.4074  -13.5965 C.ar    1  UNL1        0.0307
     12 BR        -21.1624  -12.6925  -13.9359 Br      1  UNL1       -0.0493
     13 C         -23.9407  -11.7044  -13.7422 C.ar    1  UNL1       -0.0148
     14 C         -24.8947  -10.6921  -13.4662 C.ar    1  UNL1        0.0134
     15 C         -24.4491   -9.4351  -13.0532 C.ar    1  UNL1        0.0597
     16 C         -24.4280  -13.0828  -14.1691 C.3     1  UNL1        0.0229
     17 C         -25.6535  -13.5105  -13.3513 C.3     1  UNL1        0.0047
     18 C         -24.7277  -13.1234  -15.6730 C.3     1  UNL1        0.0047
     19 C         -26.6591   -8.2464  -12.6535 C.3     1  UNL1        0.1429
     20 C         -27.1287   -7.8311  -11.2516 C.3     1  UNL1        0.2027
     21 F         -28.4772   -7.5215  -11.3048 F       1  UNL1       -0.2334
     22 C         -26.9115   -8.9455  -10.2191 C.3     1  UNL1        0.1259
     23 N         -25.9802   -8.5080   -9.1811 N.pl3   1  UNL1       -0.3157
     24 H         -26.3627   -7.9778   -8.3654 H       1  UNL1        0.1483
     25 C         -22.3142   -8.2566   -8.8142 C.ar    1  UNL1        0.2261
     26 C         -21.8865   -9.5131   -9.2507 C.ar    1  UNL1        0.0578
     27 C         -22.8324  -10.4533   -9.6631 C.ar    1  UNL1        0.0077
     28 C         -24.1908  -10.1314   -9.6386 C.ar    1  UNL1        0.0343
     29 C         -24.5894   -8.8627   -9.1974 C.ar    1  UNL1        0.1317
     30 N         -23.6451   -7.9647   -8.7992 N.ar    1  UNL1       -0.1969
     31 C         -19.9747   -7.5842   -8.3780 C.3     1  UNL1        0.2542
     32 O         -21.3707   -7.3127   -8.3990 O.3     1  UNL1       -0.4561
@<TRIPOS>BOND
     1    31    32    1
     2    32    25    1
     3    25    26   ar
     4    26    27   ar
     5    27    28   ar
     6    28    29   ar
     7    29    23    1
     8    23    22    1
     9    22    20    1
    10    20    21    1
    11    20    19    1
    12    19     1    1
    13     1     2   ar
    14     2     3   ar
    15     3     4   ar
    16     4     5   ar
    17     5     6    1
    18     5     7   ar
    19     7     8   ar
    20     8     9   ar
    21     9    10   ar
    22    10    11   ar
    23    11    12    1
    24    11    13   ar
    25    13    16    1
    26    16    17    1
    27    16    18    1
    28    13    14   ar
    29    14    15   ar
    30    29    30   ar
    31    30    25   ar
    32    15     1   ar
    33     8     2   ar
    34    15     9   ar
    35    23    24    1
@<TRIPOS>MOLECULE
*****
 32 35 0 0 0
SMALL
GASTEIGER

@<TRIPOS>ATOM
      1 N         -23.2553  -10.0417  -11.0821 N.ar    1  UNL1       -0.3243
      2 C         -22.0087  -10.0491  -10.5451 C.ar    1  UNL1        0.0600
      3 C         -21.5337   -9.3015   -9.4628 C.ar    1  UNL1        0.0177
      4 C         -20.1974   -9.4879   -9.0643 C.ar    1  UNL1        0.0082
      5 C         -19.3670  -10.4098   -9.7403 C.ar    1  UNL1        0.0347
      6 BR        -17.5624  -10.6585   -9.1697 Br      1  UNL1       -0.0490
      7 C         -19.8648  -11.1540  -10.8249 C.ar    1  UNL1        0.0082
      8 C         -21.1904  -10.9464  -11.2006 C.ar    1  UNL1        0.0177
      9 C         -21.9612  -11.5273  -12.1811 C.ar    1  UNL1        0.0177
     10 C         -21.6664  -12.5142  -13.1132 C.ar    1  UNL1        0.0079
     11 C         -22.6881  -12.9388  -13.9822 C.ar    1  UNL1        0.0307
     12 BR        -22.2263  -14.3114  -15.2432 Br      1  UNL1       -0.0493
     13 C         -23.9953  -12.3623  -13.8999 C.ar    1  UNL1       -0.0148
     14 C         -24.2455  -11.3547  -12.9339 C.ar    1  UNL1        0.0134
     15 C         -23.2109  -10.9576  -12.0849 C.ar    1  UNL1        0.0597
     16 C         -25.1308  -12.8126  -14.8097 C.3     1  UNL1        0.0229
     17 C         -25.9937  -13.8803  -14.1248 C.3     1  UNL1        0.0047
     18 C         -25.9846  -11.6210  -15.2615 C.3     1  UNL1        0.0047
     19 C         -24.4135   -9.2704  -10.6139 C.3     1  UNL1        0.1429
     20 C         -25.1157   -8.5614  -11.7812 C.3     1  UNL1        0.2027
     21 F         -26.4323   -8.3169  -11.4292 F       1  UNL1       -0.2334
     22 C         -24.4377   -7.2315  -12.1374 C.3     1  UNL1        0.1259
     23 N         -24.2470   -7.1246  -13.5826 N.pl3   1  UNL1       -0.3157
     24 H         -24.7428   -6.3575  -14.0911 H       1  UNL1        0.1483
     25 C         -22.9243   -9.4720  -16.1079 C.ar    1  UNL1        0.2261
     26 C         -21.5998   -9.6359  -15.6942 C.ar    1  UNL1        0.0578
     27 C         -21.1446   -8.9498  -14.5668 C.ar    1  UNL1        0.0077
     28 C         -22.0126   -8.1117  -13.8641 C.ar    1  UNL1        0.0343
     29 C         -23.3357   -7.9686  -14.3020 C.ar    1  UNL1        0.1317
     30 N         -23.7531   -8.6490  -15.4063 N.ar    1  UNL1       -0.1969
     31 C         -22.9109  -11.4489  -17.5935 C.3     1  UNL1        0.2542
     32 O         -23.3838  -10.1558  -17.2369 O.3     1  UNL1       -0.4561
@<TRIPOS>BOND
     1    31    32    1
     2    32    25    1
     3    25    26   ar
     4    26    27   ar
     5    27    28   ar
     6    28    29   ar
     7    29    23    1
     8    23    22    1
     9    22    20    1
    10    20    21    1
    11    20    19    1
    12    19     1    1
    13     1     2   ar
    14     2     3   ar
    15     3     4   ar
    16     4     5   ar
    17     5     6    1
    18     5     7   ar
    19     7     8   ar
    20     8     9   ar
    21     9    10   ar
    22    10    11   ar
    23    11    12    1
    24    11    13   ar
    25    13    16    1
    26    16    17    1
    27    16    18    1
    28    13    14   ar
    29    14    15   ar
    30    29    30   ar
    31    30    25   ar
    32    15     1   ar
    33     8     2   ar
    34    15     9   ar
    35    23    24    1
@<TRIPOS>MOLECULE
*****
 32 35 0 0 0
SMALL
GASTEIGER

@<TRIPOS>ATOM
      1 N         -21.8689  -10.0421  -14.6142 N.ar    1  UNL1       -0.3243
      2 C         -22.4499   -9.3056  -15.5952 C.ar    1  UNL1        0.0600
      3 C         -22.8586   -9.7311  -16.8631 C.ar    1  UNL1        0.0177
      4 C         -23.4608   -8.7885  -17.7162 C.ar    1  UNL1        0.0082
      5 C         -23.6485   -7.4531  -17.2946 C.ar    1  UNL1        0.0347
      6 BR        -24.4846   -6.1965  -18.4634 Br      1  UNL1       -0.0490
      7 C         -23.2330   -7.0457  -16.0142 C.ar    1  UNL1        0.0082
      8 C         -22.6359   -7.9991  -15.1918 C.ar    1  UNL1        0.0177
      9 C         -22.1581   -7.9205  -13.9040 C.ar    1  UNL1        0.0177
     10 C         -22.1204   -6.8629  -13.0040 C.ar    1  UNL1        0.0079
     11 C         -21.5935   -7.0964  -11.7206 C.ar    1  UNL1        0.0307
     12 BR        -21.5749   -5.6012  -10.5159 Br      1  UNL1       -0.0493
     13 C         -21.1110   -8.3948  -11.3608 C.ar    1  UNL1       -0.0148
     14 C         -21.1673   -9.4411  -12.3163 C.ar    1  UNL1        0.0134
     15 C         -21.6984   -9.1771  -13.5802 C.ar    1  UNL1        0.0597
     16 C         -20.5541   -8.6892   -9.9741 C.3     1  UNL1        0.0229
     17 C         -21.6741   -9.0909   -9.0056 C.3     1  UNL1        0.0047
     18 C         -19.4634   -9.7661  -10.0321 C.3     1  UNL1        0.0047
     19 C         -21.5752  -11.4802  -14.6467 C.3     1  UNL1        0.1429
     20 C         -22.6386  -12.2804  -13.8804 C.3     1  UNL1        0.2027
     21 F         -22.4058  -12.1477  -12.5220 F       1  UNL1       -0.2334
     22 C         -24.0602  -11.7949  -14.1943 C.3     1  UNL1        0.1259
     23 N         -24.7601  -11.4297  -12.9643 N.pl3   1  UNL1       -0.3157
     24 H         -25.0330  -12.1940  -12.3054 H       1  UNL1        0.1483
     25 C         -25.7082   -7.8678  -13.1905 C.ar    1  UNL1        0.2261
     26 C         -25.4293   -7.4052  -11.9019 C.ar    1  UNL1        0.0578
     27 C         -24.9279   -8.2935  -10.9489 C.ar    1  UNL1        0.0077
     28 C         -24.7079   -9.6296  -11.2900 C.ar    1  UNL1        0.0343
     29 C         -24.9956  -10.0640  -12.5906 C.ar    1  UNL1        0.1317
     30 N         -25.4854   -9.1758  -13.5005 N.ar    1  UNL1       -0.1969
     31 C         -26.4040   -5.5980  -13.8827 C.3     1  UNL1        0.2542
     32 O         -26.2117   -6.9822  -14.1473 O.3     1  UNL1       -0.4561
@<TRIPOS>BOND
     1    31    32    1
     2    32    25    1
     3    25    26   ar
     4    26    27   ar
     5    27    28   ar
     6    28    29   ar
     7    29    23    1
     8    23    22    1
     9    22    20    1
    10    20    21    1
    11    20    19    1
    12    19     1    1
    13     1     2   ar
    14     2     3   ar
    15     3     4   ar
    16     4     5   ar
    17     5     6    1
    18     5     7   ar
    19     7     8   ar
    20     8     9   ar
    21     9    10   ar
    22    10    11   ar
    23    11    12    1
    24    11    13   ar
    25    13    16    1
    26    16    17    1
    27    16    18    1
    28    13    14   ar
    29    14    15   ar
    30    29    30   ar
    31    30    25   ar
    32    15     1   ar
    33     8     2   ar
    34    15     9   ar
    35    23    24    1
@<TRIPOS>MOLECULE
*****
 32 35 0 0 0
SMALL
GASTEIGER

@<TRIPOS>ATOM
      1 N         -23.8619   -7.7660  -12.0068 N.ar    1  UNL1       -0.3243
      2 C         -24.9986   -7.2071  -12.4944 C.ar    1  UNL1        0.0600
      3 C         -25.4486   -5.8927  -12.3340 C.ar    1  UNL1        0.0177
      4 C         -26.6588   -5.5267  -12.9509 C.ar    1  UNL1        0.0082
      5 C         -27.3903   -6.4648  -13.7133 C.ar    1  UNL1        0.0347
      6 BR        -29.0206   -5.9395  -14.5559 Br      1  UNL1       -0.0490
      7 C         -26.9191   -7.7813  -13.8648 C.ar    1  UNL1        0.0082
      8 C         -25.7200   -8.1174  -13.2397 C.ar    1  UNL1        0.0177
      9 C         -24.9990   -9.2890  -13.2219 C.ar    1  UNL1        0.0177
     10 C         -25.2328  -10.5176  -13.8267 C.ar    1  UNL1        0.0079
     11 C         -24.2812  -11.5392  -13.6538 C.ar    1  UNL1        0.0307
     12 BR        -24.6519  -13.2125  -14.5198 Br      1  UNL1       -0.0493
     13 C         -23.1045  -11.3085  -12.8726 C.ar    1  UNL1       -0.0148
     14 C         -22.9131  -10.0382  -12.2719 C.ar    1  UNL1        0.0134
     15 C         -23.8751   -9.0451  -12.4651 C.ar    1  UNL1        0.0597
     16 C         -22.0430  -12.3840  -12.6819 C.3     1  UNL1        0.0229
     17 C         -21.3738  -12.7387  -14.0161 C.3     1  UNL1        0.0047
     18 C         -21.0017  -11.9562  -11.6400 C.3     1  UNL1        0.0047
     19 C         -22.8126   -7.0961  -11.2284 C.3     1  UNL1        0.1429
     20 C         -21.7017   -6.5593  -12.1428 C.3     1  UNL1        0.2027
     21 F         -21.0441   -5.5299  -11.4909 F       1  UNL1       -0.2334
     22 C         -20.6850   -7.6480  -12.5121 C.3     1  UNL1        0.1259
     23 N         -20.4393   -7.6520  -13.9528 N.pl3   1  UNL1       -0.3157
     24 H         -19.5067   -7.3277  -14.2961 H       1  UNL1        0.1483
     25 C         -22.1117   -9.9519  -16.3089 C.ar    1  UNL1        0.2261
     26 C         -23.2013   -9.1916  -16.7411 C.ar    1  UNL1        0.0578
     27 C         -23.3815   -7.9033  -16.2345 C.ar    1  UNL1        0.0077
     28 C         -22.4748   -7.3868  -15.3067 C.ar    1  UNL1        0.0343
     29 C         -21.3909   -8.1723  -14.8932 C.ar    1  UNL1        0.1317
     30 N         -21.2399   -9.4270  -15.4029 N.ar    1  UNL1       -0.1969
     31 C         -22.8826  -11.8787  -17.6538 C.3     1  UNL1        0.2542
     32 O         -21.9284  -11.2428  -16.8124 O.3     1  UNL1       -0.4561
@<TRIPOS>BOND
     1    31    32    1
     2    32    25    1
     3    25    26   ar
     4    26    27   ar
     5    27    28   ar
     6    28    29   ar
     7    29    23    1
     8    23    22    1
     9    22    20    1
    10    20    21    1
    11    20    19    1
    12    19     1    1
    13     1     2   ar
    14     2     3   ar
    15     3     4   ar
    16     4     5   ar
    17     5     6    1
    18     5     7   ar
    19     7     8   ar
    20     8     9   ar
    21     9    10   ar
    22    10    11   ar
    23    11    12    1
    24    11    13   ar
    25    13    16    1
    26    16    17    1
    27    16    18    1
    28    13    14   ar
    29    14    15   ar
    30    29    30   ar
    31    30    25   ar
    32    15     1   ar
    33     8     2   ar
    34    15     9   ar
    35    23    24    1
@<TRIPOS>MOLECULE
*****
 32 35 0 0 0
SMALL
GASTEIGER

@<TRIPOS>ATOM
      1 N         -24.7195  -10.2980  -12.3662 N.ar    1  UNL1       -0.3243
      2 C         -24.6106  -11.3777  -13.1815 C.ar    1  UNL1        0.0600
      3 C         -25.5719  -11.8973  -14.0542 C.ar    1  UNL1        0.0177
      4 C         -25.2286  -13.0242  -14.8232 C.ar    1  UNL1        0.0082
      5 C         -23.9453  -13.6055  -14.7148 C.ar    1  UNL1        0.0347
      6 BR        -23.4968  -15.1234  -15.7820 Br      1  UNL1       -0.0490
      7 C         -22.9916  -13.0661  -13.8330 C.ar    1  UNL1        0.0082
      8 C         -23.3600  -11.9524  -13.0808 C.ar    1  UNL1        0.0177
      9 C         -22.6587  -11.1949  -12.1713 C.ar    1  UNL1        0.0177
     10 C         -21.3517  -11.2940  -11.7110 C.ar    1  UNL1        0.0079
     11 C         -20.8939  -10.3356  -10.7885 C.ar    1  UNL1        0.0307
     12 BR        -19.0769  -10.5163  -10.1942 Br      1  UNL1       -0.0493
     13 C         -21.7608   -9.2882  -10.3416 C.ar    1  UNL1       -0.0148
     14 C         -23.0881   -9.2323  -10.8377 C.ar    1  UNL1        0.0134
     15 C         -23.5105  -10.1970  -11.7542 C.ar    1  UNL1        0.0597
     16 C         -21.2926   -8.2214   -9.3606 C.3     1  UNL1        0.0229
     17 C         -21.6558   -6.8172   -9.8605 C.3     1  UNL1        0.0047
     18 C         -21.8608   -8.4708   -7.9578 C.3     1  UNL1        0.0047
     19 C         -25.8701   -9.3938  -12.2481 C.3     1  UNL1        0.1429
     20 C         -25.9357   -8.4224  -13.4357 C.3     1  UNL1        0.2027
     21 F         -27.2590   -8.0864  -13.6664 F       1  UNL1       -0.2334
     22 C         -25.1322   -7.1411  -13.1754 C.3     1  UNL1        0.1259
     23 N         -24.1573   -6.9221  -14.2421 N.pl3   1  UNL1       -0.3157
     24 H         -24.0292   -5.9492  -14.6025 H       1  UNL1        0.1483
     25 C         -23.0230   -9.8908  -16.1228 C.ar    1  UNL1        0.2261
     26 C         -21.7032  -10.0309  -15.6863 C.ar    1  UNL1        0.0578
     27 C         -21.1872   -9.1207  -14.7620 C.ar    1  UNL1        0.0077
     28 C         -21.9909   -8.0847  -14.2820 C.ar    1  UNL1        0.0343
     29 C         -23.3111   -7.9706  -14.7369 C.ar    1  UNL1        0.1317
     30 N         -23.7885   -8.8721  -15.6404 N.ar    1  UNL1       -0.1969
     31 C         -22.7394  -11.7795  -17.6938 C.3     1  UNL1        0.2542
     32 O         -23.5431  -10.7990  -17.0492 O.3     1  UNL1       -0.4561
@<TRIPOS>BOND
     1    31    32    1
     2    32    25    1
     3    25    26   ar
     4    26    27   ar
     5    27    28   ar
     6    28    29   ar
     7    29    23    1
     8    23    22    1
     9    22    20    1
    10    20    21    1
    11    20    19    1
    12    19     1    1
    13     1     2   ar
    14     2     3   ar
    15     3     4   ar
    16     4     5   ar
    17     5     6    1
    18     5     7   ar
    19     7     8   ar
    20     8     9   ar
    21     9    10   ar
    22    10    11   ar
    23    11    12    1
    24    11    13   ar
    25    13    16    1
    26    16    17    1
    27    16    18    1
    28    13    14   ar
    29    14    15   ar
    30    29    30   ar
    31    30    25   ar
    32    15     1   ar
    33     8     2   ar
    34    15     9   ar
    35    23    24    1
@<TRIPOS>MOLECULE
*****
 32 35 0 0 0
SMALL
GASTEIGER

@<TRIPOS>ATOM
      1 N         -23.5579   -9.0895  -15.6598 N.ar    1  UNL1       -0.3243
      2 C         -23.7937  -10.4144  -15.8369 C.ar    1  UNL1        0.0600
      3 C         -23.2543  -11.2618  -16.8100 C.ar    1  UNL1        0.0177
      4 C         -23.6306  -12.6172  -16.7906 C.ar    1  UNL1        0.0082
      5 C         -24.5246  -13.1018  -15.8096 C.ar    1  UNL1        0.0347
      6 BR        -25.0063  -14.9488  -15.7927 Br      1  UNL1       -0.0490
      7 C         -25.0538  -12.2336  -14.8378 C.ar    1  UNL1        0.0082
      8 C         -24.6672  -10.8957  -14.8831 C.ar    1  UNL1        0.0177
      9 C         -24.9823   -9.8285  -14.0741 C.ar    1  UNL1        0.0177
     10 C         -25.7870   -9.7411  -12.9451 C.ar    1  UNL1        0.0079
     11 C         -25.8930   -8.4981  -12.2948 C.ar    1  UNL1        0.0307
     12 BR        -27.0113   -8.4386  -10.7349 Br      1  UNL1       -0.0493
     13 C         -25.1852   -7.3579  -12.7917 C.ar    1  UNL1       -0.0148
     14 C         -24.3794   -7.4969  -13.9503 C.ar    1  UNL1        0.0134
     15 C         -24.2935   -8.7447  -14.5706 C.ar    1  UNL1        0.0597
     16 C         -25.2593   -6.0024  -12.1010 C.3     1  UNL1        0.0229
     17 C         -23.8587   -5.4076  -11.9054 C.3     1  UNL1        0.0047
     18 C         -26.1655   -5.0356  -12.8737 C.3     1  UNL1        0.0047
     19 C         -22.6373   -8.2459  -16.4321 C.3     1  UNL1        0.1429
     20 C         -21.2105   -8.3234  -15.8693 C.3     1  UNL1        0.2027
     21 F         -20.3256   -7.8601  -16.8282 F       1  UNL1       -0.2334
     22 C         -21.0496   -7.4859  -14.5935 C.3     1  UNL1        0.1259
     23 N         -20.5109   -8.3037  -13.5084 N.pl3   1  UNL1       -0.3157
     24 H         -19.4834   -8.2616  -13.3210 H       1  UNL1        0.1483
     25 C         -22.7790   -9.1901  -10.7321 C.ar    1  UNL1        0.2261
     26 C         -22.9581  -10.5625  -10.9234 C.ar    1  UNL1        0.0578
     27 C         -22.3215  -11.1937  -11.9935 C.ar    1  UNL1        0.0077
     28 C         -21.5132  -10.4528  -12.8581 C.ar    1  UNL1        0.0343
     29 C         -21.3513   -9.0784  -12.6400 C.ar    1  UNL1        0.1317
     30 N         -21.9854   -8.4876  -11.5885 N.ar    1  UNL1       -0.1969
     31 C         -23.0505   -8.7847   -8.3078 C.3     1  UNL1        0.2542
     32 O         -23.4156   -8.5538   -9.6629 O.3     1  UNL1       -0.4561
@<TRIPOS>BOND
     1    31    32    1
     2    32    25    1
     3    25    26   ar
     4    26    27   ar
     5    27    28   ar
     6    28    29   ar
     7    29    23    1
     8    23    22    1
     9    22    20    1
    10    20    21    1
    11    20    19    1
    12    19     1    1
    13     1     2   ar
    14     2     3   ar
    15     3     4   ar
    16     4     5   ar
    17     5     6    1
    18     5     7   ar
    19     7     8   ar
    20     8     9   ar
    21     9    10   ar
    22    10    11   ar
    23    11    12    1
    24    11    13   ar
    25    13    16    1
    26    16    17    1
    27    16    18    1
    28    13    14   ar
    29    14    15   ar
    30    29    30   ar
    31    30    25   ar
    32    15     1   ar
    33     8     2   ar
    34    15     9   ar
    35    23    24    1
@<TRIPOS>MOLECULE
*****
 32 35 0 0 0
SMALL
GASTEIGER

@<TRIPOS>ATOM
      1 N         -21.3831   -9.3972  -10.7066 N.ar    1  UNL1       -0.3243
      2 C         -20.2732   -9.8934  -10.1031 C.ar    1  UNL1        0.0600
      3 C         -19.5743   -9.3605   -9.0152 C.ar    1  UNL1        0.0177
      4 C         -18.4513  -10.0626   -8.5409 C.ar    1  UNL1        0.0082
      5 C         -18.0505  -11.2736   -9.1486 C.ar    1  UNL1        0.0347
      6 BR        -16.5339  -12.2176   -8.4756 Br      1  UNL1       -0.0490
      7 C         -18.7686  -11.7942  -10.2401 C.ar    1  UNL1        0.0082
      8 C         -19.8740  -11.0760  -10.6916 C.ar    1  UNL1        0.0177
      9 C         -20.7770  -11.3310  -11.6979 C.ar    1  UNL1        0.0177
     10 C         -20.8804  -12.3920  -12.5885 C.ar    1  UNL1        0.0079
     11 C         -21.9513  -12.3964  -13.5008 C.ar    1  UNL1        0.0307
     12 BR        -22.0493  -13.8918  -14.7014 Br      1  UNL1       -0.0493
     13 C         -22.9054  -11.3298  -13.5031 C.ar    1  UNL1       -0.0148
     14 C         -22.7543  -10.2668  -12.5767 C.ar    1  UNL1        0.0134
     15 C         -21.6821  -10.2937  -11.6830 C.ar    1  UNL1        0.0597
     16 C         -24.0890  -11.3125  -14.4616 C.3     1  UNL1        0.0229
     17 C         -25.2832  -10.5707  -13.8474 C.3     1  UNL1        0.0047
     18 C         -23.6981  -10.7029  -15.8139 C.3     1  UNL1        0.0047
     19 C         -22.1363   -8.1976  -10.3203 C.3     1  UNL1        0.1429
     20 C         -21.6346   -6.9602  -11.0790 C.3     1  UNL1        0.2027
     21 F         -20.9039   -7.3758  -12.1793 F       1  UNL1       -0.2334
     22 C         -22.7905   -6.0692  -11.5535 C.3     1  UNL1        0.1259
     23 N         -23.4934   -6.6942  -12.6721 N.pl3   1  UNL1       -0.3157
     24 H         -22.9360   -6.9773  -13.5100 H       1  UNL1        0.1483
     25 C         -26.7423   -7.9178  -11.4133 C.ar    1  UNL1        0.2261
     26 C         -27.5888   -7.6797  -12.4992 C.ar    1  UNL1        0.0578
     27 C         -27.0699   -7.0985  -13.6575 C.ar    1  UNL1        0.0077
     28 C         -25.7158   -6.7638  -13.7222 C.ar    1  UNL1        0.0343
     29 C         -24.8912   -7.0160  -12.6179 C.ar    1  UNL1        0.1317
     30 N         -25.4244   -7.5830  -11.4994 N.ar    1  UNL1       -0.1969
     31 C         -26.4377   -9.1665   -9.3007 C.3     1  UNL1        0.2542
     32 O         -27.2580   -8.4981  -10.2511 O.3     1  UNL1       -0.4561
@<TRIPOS>BOND
     1    31    32    1
     2    32    25    1
     3    25    26   ar
     4    26    27   ar
     5    27    28   ar
     6    28    29   ar
     7    29    23    1
     8    23    22    1
     9    22    20    1
    10    20    21    1
    11    20    19    1
    12    19     1    1
    13     1     2   ar
    14     2     3   ar
    15     3     4   ar
    16     4     5   ar
    17     5     6    1
    18     5     7   ar
    19     7     8   ar
    20     8     9   ar
    21     9    10   ar
    22    10    11   ar
    23    11    12    1
    24    11    13   ar
    25    13    16    1
    26    16    17    1
    27    16    18    1
    28    13    14   ar
    29    14    15   ar
    30    29    30   ar
    31    30    25   ar
    32    15     1   ar
    33     8     2   ar
    34    15     9   ar
    35    23    24    1
@<TRIPOS>MOLECULE
*****
 32 35 0 0 0
SMALL
GASTEIGER

@<TRIPOS>ATOM
      1 N         -24.8228  -10.0337  -11.6528 N.ar    1  UNL1       -0.3243
      2 C         -25.4138   -8.8706  -12.0275 C.ar    1  UNL1        0.0600
      3 C         -26.3928   -8.1434  -11.3430 C.ar    1  UNL1        0.0177
      4 C         -26.8501   -6.9436  -11.9178 C.ar    1  UNL1        0.0082
      5 C         -26.3264   -6.4904  -13.1494 C.ar    1  UNL1        0.0347
      6 BR        -26.9497   -4.8499  -13.9005 Br      1  UNL1       -0.0490
      7 C         -25.3401   -7.2352  -13.8207 C.ar    1  UNL1        0.0082
      8 C         -24.9087   -8.4214  -13.2306 C.ar    1  UNL1        0.0177
      9 C         -23.9586   -9.3383  -13.6173 C.ar    1  UNL1        0.0177
     10 C         -23.1175   -9.3751  -14.7222 C.ar    1  UNL1        0.0079
     11 C         -22.2076  -10.4423  -14.8339 C.ar    1  UNL1        0.0307
     12 BR        -21.0639  -10.4366  -16.3764 Br      1  UNL1       -0.0493
     13 C         -22.1573  -11.4597  -13.8287 C.ar    1  UNL1       -0.0148
     14 C         -23.0396  -11.3798  -12.7213 C.ar    1  UNL1        0.0134
     15 C         -23.9287  -10.3066  -12.6390 C.ar    1  UNL1        0.0597
     16 C         -21.1706  -12.6174  -13.9058 C.3     1  UNL1        0.0229
     17 C         -20.6536  -12.9931  -12.5111 C.3     1  UNL1        0.0047
     18 C         -21.7937  -13.8307  -14.6077 C.3     1  UNL1        0.0047
     19 C         -25.0485  -10.7770  -10.4071 C.3     1  UNL1        0.1429
     20 C         -24.9136   -9.8602   -9.1825 C.3     1  UNL1        0.2027
     21 F         -26.0038  -10.0591   -8.3524 F       1  UNL1       -0.2334
     22 C         -23.6269  -10.1395   -8.3942 C.3     1  UNL1        0.1259
     23 N         -22.7111   -9.0044   -8.4894 N.pl3   1  UNL1       -0.3157
     24 H         -22.4500   -8.5048   -7.6090 H       1  UNL1        0.1483
     25 C         -21.9205   -7.0843  -11.5431 C.ar    1  UNL1        0.2261
     26 C         -20.9274   -7.8679  -12.1363 C.ar    1  UNL1        0.0578
     27 C         -20.5142   -9.0428  -11.5056 C.ar    1  UNL1        0.0077
     28 C         -21.0955   -9.4247  -10.2948 C.ar    1  UNL1        0.0343
     29 C         -22.0903   -8.6193   -9.7250 C.ar    1  UNL1        0.1317
     30 N         -22.4735   -7.4770  -10.3614 N.ar    1  UNL1       -0.1969
     31 C         -23.1464   -4.9367  -11.5177 C.3     1  UNL1        0.2542
     32 O         -22.3361   -5.9064  -12.1704 O.3     1  UNL1       -0.4561
@<TRIPOS>BOND
     1    31    32    1
     2    32    25    1
     3    25    26   ar
     4    26    27   ar
     5    27    28   ar
     6    28    29   ar
     7    29    23    1
     8    23    22    1
     9    22    20    1
    10    20    21    1
    11    20    19    1
    12    19     1    1
    13     1     2   ar
    14     2     3   ar
    15     3     4   ar
    16     4     5   ar
    17     5     6    1
    18     5     7   ar
    19     7     8   ar
    20     8     9   ar
    21     9    10   ar
    22    10    11   ar
    23    11    12    1
    24    11    13   ar
    25    13    16    1
    26    16    17    1
    27    16    18    1
    28    13    14   ar
    29    14    15   ar
    30    29    30   ar
    31    30    25   ar
    32    15     1   ar
    33     8     2   ar
    34    15     9   ar
    35    23    24    1
