@<TRIPOS>MOLECULE
*****
 61 65 0 0 0
SMALL
GASTEIGER

@<TRIPOS>ATOM
      1 C          48.6268   12.8520  -20.2506 C.ar    1  UNL1       -0.0005
      2 C          47.6615   12.5296  -19.2511 C.ar    1  UNL1        0.0508
      3 C          46.5025   11.8236  -19.5982 C.ar    1  UNL1        0.0074
      4 C          46.2898   11.3994  -20.9028 C.ar    1  UNL1        0.0389
      5 C          47.2355   11.6704  -21.8981 C.ar    1  UNL1        0.1595
      6 C          48.4121   12.3672  -21.5738 C.ar    1  UNL1        0.0953
      7 C          47.8349   12.8784  -17.8241 C.2     1  UNL1        0.2455
      8 O          47.1094   13.7742  -17.3150 O.2     1  UNL1       -0.2702
      9 N          48.8500   12.2212  -17.0425 N.am    1  UNL1       -0.3040
     10 H          49.4032   11.4761  -17.5255 H       1  UNL1        0.1496
     11 C          49.1371   12.4984  -15.6215 C.3     1  UNL1        0.0572
     12 C          50.6652   12.5046  -15.4103 C.3     1  UNL1        0.0196
     13 C          48.5838   13.8814  -15.2261 C.3     1  UNL1        0.0196
     14 C          48.5249   11.4003  -14.7296 C.3     1  UNL1        0.0196
     15 C          50.2297   14.7629  -20.9079 C.3     1  UNL1        0.0047
     16 C          49.8736   13.6720  -19.8838 C.3     1  UNL1        0.0239
     17 C          51.0694   12.7573  -19.6048 C.3     1  UNL1        0.0047
     18 N          49.3541   12.6194  -22.6201 N.pl3   1  UNL1       -0.2123
     19 H          49.0341   13.1924  -23.4312 H       1  UNL1        0.1738
     20 S          50.7356   11.5975  -22.8491 S.O2    1  UNL1        0.0745
     21 O          50.7747   10.5481  -21.7743 O.2     1  UNL1       -0.1499
     22 O          51.9861   12.4275  -22.7513 O.2     1  UNL1       -0.1499
     23 C          50.6472   10.8270  -24.4383 C.ar    1  UNL1        0.1356
     24 C          50.9987   11.5607  -25.5823 C.ar    1  UNL1        0.0207
     25 C          50.9060   10.9853  -26.8509 C.ar    1  UNL1       -0.0028
     26 C          50.4467    9.6703  -26.9990 C.ar    1  UNL1       -0.0216
     27 C          50.1288    8.9205  -25.8580 C.ar    1  UNL1        0.0085
     28 C          50.2183    9.4908  -24.5826 C.ar    1  UNL1        0.0762
     29 CL         49.7952    8.4906  -23.1977 Cl      1  UNL1       -0.0809
     30 C          50.3831    9.0389  -28.3632 C.3     1  UNL1        0.0224
     31 C          48.9791    8.8612  -28.9273 C.3     1  UNL1        0.0047
     32 C          49.7421    7.6575  -28.4060 C.3     1  UNL1        0.0047
     33 O          47.0461   11.2415  -23.2223 O.3     1  UNL1       -0.4513
     34 C          46.7471   12.0838  -24.2993 C.ar    1  UNL1        0.1580
     35 C          47.6678   12.1860  -25.3468 C.ar    1  UNL1        0.0677
     36 C          47.4035   13.0065  -26.4466 C.ar    1  UNL1        0.1398
     37 F          48.3014   13.0611  -27.4630 F       1  UNL1       -0.2044
     38 C          46.2172   13.7594  -26.4971 C.ar    1  UNL1        0.0175
     39 C          45.2996   13.6680  -25.4382 C.ar    1  UNL1        0.0130
     40 C          45.5631   12.8455  -24.3371 C.ar    1  UNL1        0.0919
     41 CL         44.4257   12.8376  -22.9956 Cl      1  UNL1       -0.0791
     42 C          45.8989   14.6138  -27.6944 C.3     1  UNL1        0.1382
     43 C          46.2102   16.0443  -27.3952 C.2     1  UNL1        0.3234
     44 O          45.4716   16.6935  -26.6057 O.2     1  UNL1       -0.2497
     45 O          47.2855   16.6613  -28.0446 O.3     1  UNL1       -0.4215
     46 C          48.5543   16.8918  -27.4334 C.3     1  UNL1        0.3207
     47 O          48.6873   16.0010  -26.3441 O.3     1  UNL1       -0.3070
     48 C          50.0323   15.9625  -25.8881 C.3     1  UNL1        0.2456
     49 C          50.6442   17.3818  -25.6608 C.3     1  UNL1        0.1781
     50 O          51.5831   17.6445  -26.6738 O.3     1  UNL1       -0.3790
     51 C          49.5479   18.4687  -25.6645 C.3     1  UNL1        0.1733
     52 O          48.7768   18.3325  -24.4968 O.3     1  UNL1       -0.3793
     53 C          48.6362   18.3508  -26.9168 C.3     1  UNL1        0.2106
     54 O          49.0621   19.2226  -27.9347 O.3     1  UNL1       -0.3766
     55 H          52.1370   18.4091  -26.3662 H       1  UNL1        0.2106
     56 H          48.3086   19.1970  -24.3571 H       1  UNL1        0.2105
     57 H          49.9815   18.9581  -28.1970 H       1  UNL1        0.2107
     58 C          50.0709   15.1688  -24.6147 C.2     1  UNL1        0.3439
     59 O          49.0091   14.9581  -23.9691 O.2     1  UNL1       -0.2475
     60 O          51.2721   14.6248  -24.1694 O.3     1  UNL1       -0.4785
     61 H          51.3095   14.0724  -23.3212 H       1  UNL1        0.2951
@<TRIPOS>BOND
     1    15    16    1
     2    16    17    1
     3    16     1    1
     4     1     2   ar
     5     2     7    1
     6     7     8    2
     7     7     9   am
     8     9    11    1
     9    11    12    1
    10    11    13    1
    11    11    14    1
    12     2     3   ar
    13     3     4   ar
    14     4     5   ar
    15     5    33    1
    16    33    34    1
    17    34    35   ar
    18    35    36   ar
    19    36    37    1
    20    36    38   ar
    21    38    42    1
    22    42    43    1
    23    43    44    2
    24    43    45    1
    25    45    46    1
    26    46    47    1
    27    47    48    1
    28    48    58    1
    29    58    59    2
    30    58    60    1
    31    48    49    1
    32    49    50    1
    33    49    51    1
    34    51    52    1
    35    51    53    1
    36    53    54    1
    37    38    39   ar
    38    39    40   ar
    39    40    41    1
    40     5     6   ar
    41     6    18    1
    42    18    20    1
    43    20    21    2
    44    20    22    2
    45    20    23    1
    46    23    24   ar
    47    24    25   ar
    48    25    26   ar
    49    26    30    1
    50    30    31    1
    51    31    32    1
    52    26    27   ar
    53    27    28   ar
    54    28    29    1
    55     6     1   ar
    56    28    23   ar
    57    40    34   ar
    58    32    30    1
    59    53    46    1
    60     9    10    1
    61    60    61    1
    62    50    55    1
    63    52    56    1
    64    54    57    1
    65    18    19    1
@<TRIPOS>MOLECULE
*****
 61 65 0 0 0
SMALL
GASTEIGER

@<TRIPOS>ATOM
      1 C          50.1314    9.9539  -26.9089 C.ar    1  UNL1       -0.0005
      2 C          49.3932    9.4369  -28.0147 C.ar    1  UNL1        0.0508
      3 C          48.1171    9.9385  -28.3010 C.ar    1  UNL1        0.0074
      4 C          47.5660   10.9615  -27.5414 C.ar    1  UNL1        0.0389
      5 C          48.2807   11.5127  -26.4719 C.ar    1  UNL1        0.1595
      6 C          49.5677   11.0352  -26.1708 C.ar    1  UNL1        0.0953
      7 C          49.9264    8.3967  -28.9212 C.2     1  UNL1        0.2455
      8 O          49.6054    7.1924  -28.7353 O.2     1  UNL1       -0.2702
      9 N          50.8313    8.7621  -29.9798 N.am    1  UNL1       -0.3040
     10 H          51.0400    9.7817  -30.0859 H       1  UNL1        0.1496
     11 C          51.4489    7.8168  -30.9304 C.3     1  UNL1        0.0572
     12 C          52.0427    8.6102  -32.1126 C.3     1  UNL1        0.0196
     13 C          52.5878    7.0382  -30.2436 C.3     1  UNL1        0.0196
     14 C          50.3877    6.8429  -31.4794 C.3     1  UNL1        0.0196
     15 C          51.8003    9.3099  -25.0507 C.3     1  UNL1        0.0047
     16 C          51.5093    9.3698  -26.5598 C.3     1  UNL1        0.0239
     17 C          52.6228   10.1020  -27.3138 C.3     1  UNL1        0.0047
     18 N          50.2652   11.6292  -25.0724 N.pl3   1  UNL1       -0.2123
     19 H          49.9195   11.4206  -24.1103 H       1  UNL1        0.1738
     20 S          51.2412   13.0454  -25.2896 S.O2    1  UNL1        0.0745
     21 O          52.1179   12.8773  -26.4984 O.2     1  UNL1       -0.1499
     22 O          52.1212   13.2290  -24.0838 O.2     1  UNL1       -0.1499
     23 C          50.1989   14.4590  -25.4952 C.ar    1  UNL1        0.1356
     24 C          50.0956   15.0632  -26.7581 C.ar    1  UNL1        0.0207
     25 C          49.3051   16.1997  -26.9388 C.ar    1  UNL1       -0.0028
     26 C          48.6148   16.7602  -25.8563 C.ar    1  UNL1       -0.0216
     27 C          48.6850   16.1404  -24.6010 C.ar    1  UNL1        0.0085
     28 C          49.4763   15.0012  -24.4117 C.ar    1  UNL1        0.0762
     29 CL         49.5212   14.2825  -22.8058 Cl      1  UNL1       -0.0809
     30 C          47.7335   17.9625  -26.0602 C.3     1  UNL1        0.0224
     31 C          48.3391   19.2890  -25.6192 C.3     1  UNL1        0.0047
     32 C          47.2555   18.6369  -24.7806 C.3     1  UNL1        0.0047
     33 O          47.7472   12.5556  -25.6967 O.3     1  UNL1       -0.4513
     34 C          47.1364   12.3906  -24.4483 C.ar    1  UNL1        0.1580
     35 C          47.5081   11.2981  -23.6587 C.ar    1  UNL1        0.0677
     36 C          46.9314   11.1024  -22.4010 C.ar    1  UNL1        0.1398
     37 F          47.3352   10.0508  -21.6437 F       1  UNL1       -0.2044
     38 C          45.9499   11.9910  -21.9282 C.ar    1  UNL1        0.0175
     39 C          45.5661   13.0798  -22.7276 C.ar    1  UNL1        0.0130
     40 C          46.1441   13.2770  -23.9866 C.ar    1  UNL1        0.0919
     41 CL         45.5622   14.6017  -24.9866 Cl      1  UNL1       -0.0791
     42 C          45.3514   11.8178  -20.5582 C.3     1  UNL1        0.1382
     43 C          46.1868   12.5307  -19.5449 C.2     1  UNL1        0.3234
     44 O          45.7609   12.6650  -18.3655 O.2     1  UNL1       -0.2497
     45 O          47.4069   13.0932  -19.9369 O.3     1  UNL1       -0.4215
     46 C          48.6484   12.8266  -19.2857 C.3     1  UNL1        0.3207
     47 O          49.6902   13.3179  -20.1049 O.3     1  UNL1       -0.3070
     48 C          50.9151   13.3635  -19.3864 C.3     1  UNL1        0.2456
     49 C          51.2359   12.0320  -18.6351 C.3     1  UNL1        0.1781
     50 O          51.0639   12.2312  -17.2540 O.3     1  UNL1       -0.3790
     51 C          50.3231   10.8848  -19.1191 C.3     1  UNL1        0.1733
     52 O          50.6967   10.5360  -20.4288 O.3     1  UNL1       -0.3793
     53 C          48.8262   11.2996  -19.0890 C.3     1  UNL1        0.2106
     54 O          48.2073   10.8690  -17.9019 O.3     1  UNL1       -0.3766
     55 H          51.5199   11.4795  -16.7925 H       1  UNL1        0.2106
     56 H          50.3405    9.6246  -20.5979 H       1  UNL1        0.2105
     57 H          48.6652   11.3125  -17.1418 H       1  UNL1        0.2107
     58 C          52.0129   13.6919  -20.3559 C.2     1  UNL1        0.3439
     59 O          52.8046   14.6426  -20.1156 O.2     1  UNL1       -0.2475
     60 O          52.1870   12.9173  -21.4992 O.3     1  UNL1       -0.4785
     61 H          52.9345   13.1167  -22.1530 H       1  UNL1        0.2951
@<TRIPOS>BOND
     1    15    16    1
     2    16    17    1
     3    16     1    1
     4     1     2   ar
     5     2     7    1
     6     7     8    2
     7     7     9   am
     8     9    11    1
     9    11    12    1
    10    11    13    1
    11    11    14    1
    12     2     3   ar
    13     3     4   ar
    14     4     5   ar
    15     5    33    1
    16    33    34    1
    17    34    35   ar
    18    35    36   ar
    19    36    37    1
    20    36    38   ar
    21    38    42    1
    22    42    43    1
    23    43    44    2
    24    43    45    1
    25    45    46    1
    26    46    47    1
    27    47    48    1
    28    48    58    1
    29    58    59    2
    30    58    60    1
    31    48    49    1
    32    49    50    1
    33    49    51    1
    34    51    52    1
    35    51    53    1
    36    53    54    1
    37    38    39   ar
    38    39    40   ar
    39    40    41    1
    40     5     6   ar
    41     6    18    1
    42    18    20    1
    43    20    21    2
    44    20    22    2
    45    20    23    1
    46    23    24   ar
    47    24    25   ar
    48    25    26   ar
    49    26    30    1
    50    30    31    1
    51    31    32    1
    52    26    27   ar
    53    27    28   ar
    54    28    29    1
    55     6     1   ar
    56    28    23   ar
    57    40    34   ar
    58    32    30    1
    59    53    46    1
    60     9    10    1
    61    60    61    1
    62    50    55    1
    63    52    56    1
    64    54    57    1
    65    18    19    1
@<TRIPOS>MOLECULE
*****
 61 65 0 0 0
SMALL
GASTEIGER

@<TRIPOS>ATOM
      1 C          49.3557   12.1674  -18.4934 C.ar    1  UNL1       -0.0005
      2 C          50.4611   12.4358  -17.6326 C.ar    1  UNL1        0.0508
      3 C          51.7303   12.6737  -18.1755 C.ar    1  UNL1        0.0074
      4 C          51.9272   12.6856  -19.5497 C.ar    1  UNL1        0.0389
      5 C          50.8550   12.4603  -20.4202 C.ar    1  UNL1        0.1595
      6 C          49.5693   12.2304  -19.9014 C.ar    1  UNL1        0.0953
      7 C          50.3336   12.5125  -16.1609 C.2     1  UNL1        0.2455
      8 O          51.1474   11.8789  -15.4370 O.2     1  UNL1       -0.2702
      9 N          49.2648   13.2764  -15.5716 N.am    1  UNL1       -0.3040
     10 H          48.6374   13.7904  -16.2325 H       1  UNL1        0.1496
     11 C          49.0170   13.4089  -14.1226 C.3     1  UNL1        0.0572
     12 C          47.9493   14.4985  -13.8937 C.3     1  UNL1        0.0196
     13 C          48.4893   12.0796  -13.5485 C.3     1  UNL1        0.0196
     14 C          50.3098   13.8315  -13.3971 C.3     1  UNL1        0.0196
     15 C          47.5816   10.3685  -17.9745 C.3     1  UNL1        0.0047
     16 C          47.9734   11.8539  -17.8999 C.3     1  UNL1        0.0239
     17 C          46.8948   12.7469  -18.5195 C.3     1  UNL1        0.0047
     18 N          48.5008   12.0090  -20.8261 N.pl3   1  UNL1       -0.2123
     19 H          47.6837   12.6564  -20.7850 H       1  UNL1        0.1738
     20 S          48.2684   10.4629  -21.5751 S.O2    1  UNL1        0.0745
     21 O          46.8024   10.1360  -21.6207 O.2     1  UNL1       -0.1499
     22 O          48.9672    9.4091  -20.7607 O.2     1  UNL1       -0.1499
     23 C          48.9287   10.4925  -23.2153 C.ar    1  UNL1        0.1356
     24 C          49.9293    9.5756  -23.5738 C.ar    1  UNL1        0.0207
     25 C          50.4898    9.6001  -24.8522 C.ar    1  UNL1       -0.0028
     26 C          50.0690   10.5514  -25.7904 C.ar    1  UNL1       -0.0216
     27 C          49.0448   11.4461  -25.4505 C.ar    1  UNL1        0.0085
     28 C          48.4786   11.4283  -24.1702 C.ar    1  UNL1        0.0762
     29 CL         47.2026   12.5868  -23.8138 Cl      1  UNL1       -0.0809
     30 C          50.6468   10.5528  -27.1797 C.3     1  UNL1        0.0224
     31 C          50.5686    9.2195  -27.9125 C.3     1  UNL1        0.0047
     32 C          51.8971    9.7013  -27.3597 C.3     1  UNL1        0.0047
     33 O          51.0291   12.4785  -21.8140 O.3     1  UNL1       -0.4513
     34 C          50.7766   13.5828  -22.6359 C.ar    1  UNL1        0.1580
     35 C          49.8014   14.5039  -22.2410 C.ar    1  UNL1        0.0677
     36 C          49.5258   15.6263  -23.0264 C.ar    1  UNL1        0.1398
     37 F          48.5963   16.5198  -22.6017 F       1  UNL1       -0.2044
     38 C          50.2109   15.8261  -24.2378 C.ar    1  UNL1        0.0175
     39 C          51.1796   14.8932  -24.6414 C.ar    1  UNL1        0.0130
     40 C          51.4569   13.7696  -23.8548 C.ar    1  UNL1        0.0919
     41 CL         52.6119   12.5842  -24.4500 Cl      1  UNL1       -0.0791
     42 C          49.9558   17.0521  -25.0725 C.3     1  UNL1        0.1382
     43 C          50.3668   16.7987  -26.4866 C.2     1  UNL1        0.3234
     44 O          51.4337   17.3054  -26.9286 O.2     1  UNL1       -0.2497
     45 O          49.5277   16.0499  -27.3196 O.3     1  UNL1       -0.4215
     46 C          48.2082   15.6442  -26.9579 C.3     1  UNL1        0.3207
     47 O          47.9313   14.4180  -27.6040 O.3     1  UNL1       -0.3070
     48 C          46.7715   13.8104  -27.0526 C.3     1  UNL1        0.2456
     49 C          45.5589   14.7892  -26.9430 C.3     1  UNL1        0.1781
     50 O          45.3507   15.1126  -25.5907 O.3     1  UNL1       -0.3790
     51 C          45.8054   16.0758  -27.7599 C.3     1  UNL1        0.1733
     52 O          45.7531   15.7558  -29.1279 O.3     1  UNL1       -0.3793
     53 C          47.1815   16.7104  -27.4176 C.3     1  UNL1        0.2106
     54 O          47.0432   17.7253  -26.4539 O.3     1  UNL1       -0.3766
     55 H          44.4407   15.5038  -25.5217 H       1  UNL1        0.2106
     56 H          45.5924   16.6047  -29.6174 H       1  UNL1        0.2105
     57 H          46.6800   17.3131  -25.6280 H       1  UNL1        0.2107
     58 C          46.4121   12.6298  -27.9069 C.2     1  UNL1        0.3439
     59 O          46.1203   11.5272  -27.3706 O.2     1  UNL1       -0.2475
     60 O          46.3552   12.7635  -29.2912 O.3     1  UNL1       -0.4785
     61 H          46.0971   11.9799  -29.8787 H       1  UNL1        0.2951
@<TRIPOS>BOND
     1    15    16    1
     2    16    17    1
     3    16     1    1
     4     1     2   ar
     5     2     7    1
     6     7     8    2
     7     7     9   am
     8     9    11    1
     9    11    12    1
    10    11    13    1
    11    11    14    1
    12     2     3   ar
    13     3     4   ar
    14     4     5   ar
    15     5    33    1
    16    33    34    1
    17    34    35   ar
    18    35    36   ar
    19    36    37    1
    20    36    38   ar
    21    38    42    1
    22    42    43    1
    23    43    44    2
    24    43    45    1
    25    45    46    1
    26    46    47    1
    27    47    48    1
    28    48    58    1
    29    58    59    2
    30    58    60    1
    31    48    49    1
    32    49    50    1
    33    49    51    1
    34    51    52    1
    35    51    53    1
    36    53    54    1
    37    38    39   ar
    38    39    40   ar
    39    40    41    1
    40     5     6   ar
    41     6    18    1
    42    18    20    1
    43    20    21    2
    44    20    22    2
    45    20    23    1
    46    23    24   ar
    47    24    25   ar
    48    25    26   ar
    49    26    30    1
    50    30    31    1
    51    31    32    1
    52    26    27   ar
    53    27    28   ar
    54    28    29    1
    55     6     1   ar
    56    28    23   ar
    57    40    34   ar
    58    32    30    1
    59    53    46    1
    60     9    10    1
    61    60    61    1
    62    50    55    1
    63    52    56    1
    64    54    57    1
    65    18    19    1
@<TRIPOS>MOLECULE
*****
 61 65 0 0 0
SMALL
GASTEIGER

@<TRIPOS>ATOM
      1 C          49.3750   13.1329  -18.9649 C.ar    1  UNL1       -0.0005
      2 C          50.4750   12.7125  -18.1599 C.ar    1  UNL1        0.0508
      3 C          51.7857   12.8636  -18.6305 C.ar    1  UNL1        0.0074
      4 C          52.0375   13.4503  -19.8632 C.ar    1  UNL1        0.0389
      5 C          50.9805   13.9044  -20.6600 C.ar    1  UNL1        0.1595
      6 C          49.6568   13.7750  -20.2060 C.ar    1  UNL1        0.0953
      7 C          50.3079   12.1413  -16.8056 C.2     1  UNL1        0.2455
      8 O          50.1262   10.9011  -16.6770 O.2     1  UNL1       -0.2702
      9 N          50.3178   13.0070  -15.6551 N.am    1  UNL1       -0.3040
     10 H          50.4907   14.0229  -15.8352 H       1  UNL1        0.1496
     11 C          50.1364   12.5629  -14.2592 C.3     1  UNL1        0.0572
     12 C          49.7447   13.7778  -13.3930 C.3     1  UNL1        0.0196
     13 C          49.0064   11.5183  -14.1749 C.3     1  UNL1        0.0196
     14 C          51.4521   11.9757  -13.7112 C.3     1  UNL1        0.0196
     15 C          47.6024   13.6573  -17.1660 C.3     1  UNL1        0.0047
     16 C          47.9341   12.9207  -18.4748 C.3     1  UNL1        0.0239
     17 C          47.6027   11.4291  -18.3746 C.3     1  UNL1        0.0047
     18 N          48.6067   14.2560  -21.0496 N.pl3   1  UNL1       -0.2123
     19 H          48.1443   15.1524  -20.7828 H       1  UNL1        0.1738
     20 S          47.7442   13.1866  -22.1069 S.O2    1  UNL1        0.0745
     21 O          46.4514   12.7704  -21.4638 O.2     1  UNL1       -0.1499
     22 O          48.5742   11.9561  -22.3499 O.2     1  UNL1       -0.1499
     23 C          47.4165   14.0044  -23.6401 C.ar    1  UNL1        0.1356
     24 C          47.1123   15.3749  -23.6408 C.ar    1  UNL1        0.0207
     25 C          46.8178   16.0361  -24.8346 C.ar    1  UNL1       -0.0028
     26 C          46.8086   15.3352  -26.0474 C.ar    1  UNL1       -0.0216
     27 C          47.1470   13.9749  -26.0578 C.ar    1  UNL1        0.0085
     28 C          47.4426   13.3047  -24.8648 C.ar    1  UNL1        0.0762
     29 CL         47.8509   11.5952  -24.9555 Cl      1  UNL1       -0.0809
     30 C          46.5281   16.0567  -27.3376 C.3     1  UNL1        0.0224
     31 C          45.0522   16.2603  -27.6555 C.3     1  UNL1        0.0047
     32 C          45.8515   15.2164  -28.4132 C.3     1  UNL1        0.0047
     33 O          51.2126   14.5107  -21.9056 O.3     1  UNL1       -0.4513
     34 C          51.2511   13.8322  -23.1292 C.ar    1  UNL1        0.1580
     35 C          51.6653   12.4967  -23.1429 C.ar    1  UNL1        0.0677
     36 C          51.7075   11.7790  -24.3411 C.ar    1  UNL1        0.1398
     37 F          52.0832   10.4748  -24.3190 F       1  UNL1       -0.2044
     38 C          51.3577   12.4035  -25.5512 C.ar    1  UNL1        0.0175
     39 C          50.9561   13.7490  -25.5391 C.ar    1  UNL1        0.0130
     40 C          50.9124   14.4679  -24.3394 C.ar    1  UNL1        0.0919
     41 CL         50.4920   16.1750  -24.3908 Cl      1  UNL1       -0.0791
     42 C          51.3568   11.6315  -26.8430 C.3     1  UNL1        0.1382
     43 C          52.7550   11.2533  -27.2101 C.2     1  UNL1        0.3234
     44 O          53.6739   12.1146  -27.1445 O.2     1  UNL1       -0.2497
     45 O          53.0136    9.9608  -27.6804 O.3     1  UNL1       -0.4215
     46 C          52.6135    9.4904  -28.9669 C.3     1  UNL1        0.3207
     47 O          51.4960    8.6416  -28.7980 O.3     1  UNL1       -0.3070
     48 C          50.8646    8.3885  -30.0453 C.3     1  UNL1        0.2456
     49 C          51.8651    7.9508  -31.1622 C.3     1  UNL1        0.1781
     50 O          52.0126    9.0019  -32.0842 O.3     1  UNL1       -0.3790
     51 C          53.2391    7.5779  -30.5650 C.3     1  UNL1        0.1733
     52 O          53.1071    6.3727  -29.8532 O.3     1  UNL1       -0.3793
     53 C          53.7697    8.6932  -29.6226 C.3     1  UNL1        0.2106
     54 O          54.6512    9.5518  -30.3034 O.3     1  UNL1       -0.3766
     55 H          52.4252    8.6169  -32.9011 H       1  UNL1        0.2106
     56 H          54.0193    5.9923  -29.7573 H       1  UNL1        0.2105
     57 H          54.1464    9.9848  -31.0394 H       1  UNL1        0.2107
     58 C          49.8232    7.3282  -29.8344 C.2     1  UNL1        0.3439
     59 O          49.4398    7.0422  -28.6684 O.2     1  UNL1       -0.2475
     60 O          49.2456    6.6920  -30.9294 O.3     1  UNL1       -0.4785
     61 H          48.5293    5.9872  -30.8025 H       1  UNL1        0.2951
@<TRIPOS>BOND
     1    15    16    1
     2    16    17    1
     3    16     1    1
     4     1     2   ar
     5     2     7    1
     6     7     8    2
     7     7     9   am
     8     9    11    1
     9    11    12    1
    10    11    13    1
    11    11    14    1
    12     2     3   ar
    13     3     4   ar
    14     4     5   ar
    15     5    33    1
    16    33    34    1
    17    34    35   ar
    18    35    36   ar
    19    36    37    1
    20    36    38   ar
    21    38    42    1
    22    42    43    1
    23    43    44    2
    24    43    45    1
    25    45    46    1
    26    46    47    1
    27    47    48    1
    28    48    58    1
    29    58    59    2
    30    58    60    1
    31    48    49    1
    32    49    50    1
    33    49    51    1
    34    51    52    1
    35    51    53    1
    36    53    54    1
    37    38    39   ar
    38    39    40   ar
    39    40    41    1
    40     5     6   ar
    41     6    18    1
    42    18    20    1
    43    20    21    2
    44    20    22    2
    45    20    23    1
    46    23    24   ar
    47    24    25   ar
    48    25    26   ar
    49    26    30    1
    50    30    31    1
    51    31    32    1
    52    26    27   ar
    53    27    28   ar
    54    28    29    1
    55     6     1   ar
    56    28    23   ar
    57    40    34   ar
    58    32    30    1
    59    53    46    1
    60     9    10    1
    61    60    61    1
    62    50    55    1
    63    52    56    1
    64    54    57    1
    65    18    19    1
@<TRIPOS>MOLECULE
*****
 61 65 0 0 0
SMALL
GASTEIGER

@<TRIPOS>ATOM
      1 C          50.1393   11.9936  -19.7503 C.ar    1  UNL1       -0.0005
      2 C          50.9844   12.8192  -18.9509 C.ar    1  UNL1        0.0508
      3 C          51.6314   13.9218  -19.5234 C.ar    1  UNL1        0.0074
      4 C          51.4376   14.2480  -20.8588 C.ar    1  UNL1        0.0389
      5 C          50.5870   13.4772  -21.6593 C.ar    1  UNL1        0.1595
      6 C          49.9171   12.3725  -21.1064 C.ar    1  UNL1        0.0953
      7 C          51.1959   12.5911  -17.5047 C.2     1  UNL1        0.2455
      8 O          52.2842   12.0926  -17.1112 O.2     1  UNL1       -0.2702
      9 N          50.1486   12.9048  -16.5677 N.am    1  UNL1       -0.3040
     10 H          49.2792   13.3316  -16.9632 H       1  UNL1        0.1496
     11 C          50.2283   12.6996  -15.1082 C.3     1  UNL1        0.0572
     12 C          49.1474   13.5593  -14.4209 C.3     1  UNL1        0.0196
     13 C          49.9681   11.2203  -14.7631 C.3     1  UNL1        0.0196
     14 C          51.6092   13.1386  -14.5825 C.3     1  UNL1        0.0196
     15 C          49.5407    9.5001  -20.0283 C.3     1  UNL1        0.0047
     16 C          49.4698   10.7529  -19.1388 C.3     1  UNL1        0.0239
     17 C          48.0292   11.0576  -18.7187 C.3     1  UNL1        0.0047
     18 N          49.0538   11.6144  -21.9583 N.pl3   1  UNL1       -0.2123
     19 H          49.4970   11.0396  -22.7078 H       1  UNL1        0.1738
     20 S          47.3827   12.0360  -22.1465 S.O2    1  UNL1        0.0745
     21 O          46.9747   12.9914  -21.0608 O.2     1  UNL1       -0.1499
     22 O          46.5433   10.7935  -22.0291 O.2     1  UNL1       -0.1499
     23 C          47.1337   12.7835  -23.7296 C.ar    1  UNL1        0.1356
     24 C          46.3583   13.9495  -23.8286 C.ar    1  UNL1        0.0207
     25 C          46.1198   14.5402  -25.0709 C.ar    1  UNL1       -0.0028
     26 C          46.6412   13.9671  -26.2379 C.ar    1  UNL1       -0.0216
     27 C          47.4463   12.8237  -26.1419 C.ar    1  UNL1        0.0085
     28 C          47.6892   12.2251  -24.8999 C.ar    1  UNL1        0.0762
     29 CL         48.7033   10.7873  -24.8586 Cl      1  UNL1       -0.0809
     30 C          46.4151   14.6255  -27.5718 C.3     1  UNL1        0.0224
     31 C          46.9081   16.0633  -27.6738 C.3     1  UNL1        0.0047
     32 C          45.4215   15.7802  -27.5617 C.3     1  UNL1        0.0047
     33 O          50.3679   13.7951  -23.0099 O.3     1  UNL1       -0.4513
     34 C          51.0497   13.2172  -24.0870 C.ar    1  UNL1        0.1580
     35 C          51.8745   12.1142  -23.8450 C.ar    1  UNL1        0.0677
     36 C          52.5642   11.5001  -24.8935 C.ar    1  UNL1        0.1398
     37 F          53.3324   10.4117  -24.6332 F       1  UNL1       -0.2044
     38 C          52.4550   12.0039  -26.2016 C.ar    1  UNL1        0.0175
     39 C          51.6384   13.1206  -26.4420 C.ar    1  UNL1        0.0130
     40 C          50.9464   13.7354  -25.3925 C.ar    1  UNL1        0.0919
     41 CL         50.0111   15.1859  -25.7308 Cl      1  UNL1       -0.0791
     42 C          53.1574   11.3270  -27.3476 C.3     1  UNL1        0.1382
     43 C          52.2362   10.3491  -28.0019 C.2     1  UNL1        0.3234
     44 O          51.1743   10.0019  -27.4171 O.2     1  UNL1       -0.2497
     45 O          52.5970    9.7857  -29.2312 O.3     1  UNL1       -0.4215
     46 C          53.3425    8.5757  -29.3605 C.3     1  UNL1        0.3207
     47 O          54.6844    8.9134  -29.6487 O.3     1  UNL1       -0.3070
     48 C          55.5323    7.7851  -29.4862 C.3     1  UNL1        0.2456
     49 C          55.0007    6.5082  -30.2123 C.3     1  UNL1        0.1781
     50 O          54.5333    5.5946  -29.2513 O.3     1  UNL1       -0.3790
     51 C          53.8670    6.8596  -31.1996 C.3     1  UNL1        0.1733
     52 O          54.4192    7.5605  -32.2861 O.3     1  UNL1       -0.3793
     53 C          52.7680    7.7206  -30.5184 C.3     1  UNL1        0.2106
     54 O          51.7030    6.9181  -30.0718 O.3     1  UNL1       -0.3766
     55 H          54.4556    4.7129  -29.7013 H       1  UNL1        0.2106
     56 H          53.7683    7.4950  -33.0331 H       1  UNL1        0.2105
     57 H          52.0610    6.2854  -29.3969 H       1  UNL1        0.2107
     58 C          56.8950    8.1473  -30.0007 C.2     1  UNL1        0.3439
     59 O          57.2862    7.7098  -31.1160 O.2     1  UNL1       -0.2475
     60 O          57.7107    9.0049  -29.2680 O.3     1  UNL1       -0.4785
     61 H          58.6254    9.2717  -29.6116 H       1  UNL1        0.2951
@<TRIPOS>BOND
     1    15    16    1
     2    16    17    1
     3    16     1    1
     4     1     2   ar
     5     2     7    1
     6     7     8    2
     7     7     9   am
     8     9    11    1
     9    11    12    1
    10    11    13    1
    11    11    14    1
    12     2     3   ar
    13     3     4   ar
    14     4     5   ar
    15     5    33    1
    16    33    34    1
    17    34    35   ar
    18    35    36   ar
    19    36    37    1
    20    36    38   ar
    21    38    42    1
    22    42    43    1
    23    43    44    2
    24    43    45    1
    25    45    46    1
    26    46    47    1
    27    47    48    1
    28    48    58    1
    29    58    59    2
    30    58    60    1
    31    48    49    1
    32    49    50    1
    33    49    51    1
    34    51    52    1
    35    51    53    1
    36    53    54    1
    37    38    39   ar
    38    39    40   ar
    39    40    41    1
    40     5     6   ar
    41     6    18    1
    42    18    20    1
    43    20    21    2
    44    20    22    2
    45    20    23    1
    46    23    24   ar
    47    24    25   ar
    48    25    26   ar
    49    26    30    1
    50    30    31    1
    51    31    32    1
    52    26    27   ar
    53    27    28   ar
    54    28    29    1
    55     6     1   ar
    56    28    23   ar
    57    40    34   ar
    58    32    30    1
    59    53    46    1
    60     9    10    1
    61    60    61    1
    62    50    55    1
    63    52    56    1
    64    54    57    1
    65    18    19    1
@<TRIPOS>MOLECULE
*****
 61 65 0 0 0
SMALL
GASTEIGER

@<TRIPOS>ATOM
      1 C          50.2089   12.1404  -20.5270 C.ar    1  UNL1       -0.0005
      2 C          50.9748   12.8040  -19.5230 C.ar    1  UNL1        0.0508
      3 C          51.9186   13.7726  -19.8877 C.ar    1  UNL1        0.0074
      4 C          52.1008   14.1253  -21.2180 C.ar    1  UNL1        0.0389
      5 C          51.3394   13.5168  -22.2221 C.ar    1  UNL1        0.1595
      6 C          50.3777   12.5502  -21.8818 C.ar    1  UNL1        0.0953
      7 C          50.8009   12.5447  -18.0771 C.2     1  UNL1        0.2455
      8 O          51.6554   11.8471  -17.4679 O.2     1  UNL1       -0.2702
      9 N          49.6446   13.0580  -17.3896 N.am    1  UNL1       -0.3040
     10 H          48.9860   13.6431  -17.9540 H       1  UNL1        0.1496
     11 C          49.3461   12.8467  -15.9596 C.3     1  UNL1        0.0572
     12 C          48.3217   13.9043  -15.4993 C.3     1  UNL1        0.0196
     13 C          48.7350   11.4485  -15.7438 C.3     1  UNL1        0.0196
     14 C          50.6273   13.0085  -15.1178 C.3     1  UNL1        0.0196
     15 C          47.9339   11.5649  -19.4564 C.3     1  UNL1        0.0047
     16 C          49.2104   11.0400  -20.1350 C.3     1  UNL1        0.0239
     17 C          49.8887    9.9601  -19.2875 C.3     1  UNL1        0.0047
     18 N          49.6183   11.9562  -22.9384 N.pl3   1  UNL1       -0.2123
     19 H          48.7151   12.4092  -23.1985 H       1  UNL1        0.1738
     20 S          49.8464   10.2964  -23.3839 S.O2    1  UNL1        0.0745
     21 O          48.5297    9.5736  -23.3406 O.2     1  UNL1       -0.1499
     22 O          50.7809    9.6450  -22.4018 O.2     1  UNL1       -0.1499
     23 C          50.5275   10.2073  -25.0133 C.ar    1  UNL1        0.1356
     24 C          49.7040    9.8325  -26.0866 C.ar    1  UNL1        0.0207
     25 C          50.2256    9.7230  -27.3771 C.ar    1  UNL1       -0.0028
     26 C          51.5833    9.9729  -27.6144 C.ar    1  UNL1       -0.0216
     27 C          52.4027   10.3827  -26.5534 C.ar    1  UNL1        0.0085
     28 C          51.8872   10.4939  -25.2565 C.ar    1  UNL1        0.0762
     29 CL         52.9779   11.0064  -23.9739 Cl      1  UNL1       -0.0809
     30 C          52.1360    9.8913  -29.0114 C.3     1  UNL1        0.0224
     31 C          52.2078    8.4863  -29.5961 C.3     1  UNL1        0.0047
     32 C          53.4768    9.1787  -29.1346 C.3     1  UNL1        0.0047
     33 O          51.4993   13.8659  -23.5733 O.3     1  UNL1       -0.4513
     34 C          50.6312   14.6961  -24.2917 C.ar    1  UNL1        0.1580
     35 C          49.7812   15.5512  -23.5834 C.ar    1  UNL1        0.0677
     36 C          48.9070   16.4047  -24.2616 C.ar    1  UNL1        0.1398
     37 F          48.1164   17.2462  -23.5480 F       1  UNL1       -0.2044
     38 C          48.8558   16.3921  -25.6666 C.ar    1  UNL1        0.0175
     39 C          49.6990   15.5228  -26.3772 C.ar    1  UNL1        0.0130
     40 C          50.5755   14.6687  -25.6987 C.ar    1  UNL1        0.0919
     41 CL         51.5431   13.5343  -26.6316 Cl      1  UNL1       -0.0791
     42 C          47.9509   17.3359  -26.4116 C.3     1  UNL1        0.1382
     43 C          46.7848   16.5871  -26.9704 C.2     1  UNL1        0.3234
     44 O          46.6322   16.5083  -28.2198 O.2     1  UNL1       -0.2497
     45 O          45.8434   16.0338  -26.0950 O.3     1  UNL1       -0.4215
     46 C          45.6523   14.6304  -25.9199 C.3     1  UNL1        0.3207
     47 O          46.1797   14.2675  -24.6599 O.3     1  UNL1       -0.3070
     48 C          45.7523   12.9631  -24.2933 C.3     1  UNL1        0.2456
     49 C          45.9601   11.9080  -25.4264 C.3     1  UNL1        0.1781
     50 O          44.7089   11.5604  -25.9652 O.3     1  UNL1       -0.3790
     51 C          46.8778   12.4585  -26.5393 C.3     1  UNL1        0.1733
     52 O          48.1868   12.5540  -26.0354 O.3     1  UNL1       -0.3793
     53 C          46.3983   13.8513  -27.0329 C.3     1  UNL1        0.2106
     54 O          45.6009   13.7312  -28.1850 O.3     1  UNL1       -0.3766
     55 H          44.8359   10.7189  -26.4768 H       1  UNL1        0.2106
     56 H          48.7958   12.5938  -26.8187 H       1  UNL1        0.2105
     57 H          44.8002   13.1965  -27.9465 H       1  UNL1        0.2107
     58 C          46.5026   12.5559  -23.0587 C.2     1  UNL1        0.3439
     59 O          47.0962   13.4245  -22.3648 O.2     1  UNL1       -0.2475
     60 O          46.5050   11.2245  -22.6527 O.3     1  UNL1       -0.4785
     61 H          46.9924   10.9385  -21.8121 H       1  UNL1        0.2951
@<TRIPOS>BOND
     1    15    16    1
     2    16    17    1
     3    16     1    1
     4     1     2   ar
     5     2     7    1
     6     7     8    2
     7     7     9   am
     8     9    11    1
     9    11    12    1
    10    11    13    1
    11    11    14    1
    12     2     3   ar
    13     3     4   ar
    14     4     5   ar
    15     5    33    1
    16    33    34    1
    17    34    35   ar
    18    35    36   ar
    19    36    37    1
    20    36    38   ar
    21    38    42    1
    22    42    43    1
    23    43    44    2
    24    43    45    1
    25    45    46    1
    26    46    47    1
    27    47    48    1
    28    48    58    1
    29    58    59    2
    30    58    60    1
    31    48    49    1
    32    49    50    1
    33    49    51    1
    34    51    52    1
    35    51    53    1
    36    53    54    1
    37    38    39   ar
    38    39    40   ar
    39    40    41    1
    40     5     6   ar
    41     6    18    1
    42    18    20    1
    43    20    21    2
    44    20    22    2
    45    20    23    1
    46    23    24   ar
    47    24    25   ar
    48    25    26   ar
    49    26    30    1
    50    30    31    1
    51    31    32    1
    52    26    27   ar
    53    27    28   ar
    54    28    29    1
    55     6     1   ar
    56    28    23   ar
    57    40    34   ar
    58    32    30    1
    59    53    46    1
    60     9    10    1
    61    60    61    1
    62    50    55    1
    63    52    56    1
    64    54    57    1
    65    18    19    1
@<TRIPOS>MOLECULE
*****
 61 65 0 0 0
SMALL
GASTEIGER

@<TRIPOS>ATOM
      1 C          49.2808   12.4653  -19.6699 C.ar    1  UNL1       -0.0005
      2 C          50.5987   12.6812  -19.1686 C.ar    1  UNL1        0.0508
      3 C          51.6157   13.1076  -20.0323 C.ar    1  UNL1        0.0074
      4 C          51.3546   13.3579  -21.3726 C.ar    1  UNL1        0.0389
      5 C          50.0637   13.1886  -21.8857 C.ar    1  UNL1        0.1595
      6 C          49.0231   12.7726  -21.0378 C.ar    1  UNL1        0.0953
      7 C          50.9549   12.5081  -17.7434 C.2     1  UNL1        0.2455
      8 O          52.0905   12.0528  -17.4418 O.2     1  UNL1       -0.2702
      9 N          49.9935   12.8250  -16.7194 N.am    1  UNL1       -0.3040
     10 H          49.0776   13.2145  -17.0419 H       1  UNL1        0.1496
     11 C          50.2190   12.6716  -15.2688 C.3     1  UNL1        0.0572
     12 C          49.2501   13.6012  -14.5094 C.3     1  UNL1        0.0196
     13 C          49.9411   11.2186  -14.8370 C.3     1  UNL1        0.0196
     14 C          51.6634   13.0718  -14.9085 C.3     1  UNL1        0.0196
     15 C          47.9969   10.4195  -18.7647 C.3     1  UNL1        0.0047
     16 C          48.1752   11.9469  -18.7369 C.3     1  UNL1        0.0239
     17 C          46.8507   12.6679  -19.0021 C.3     1  UNL1        0.0047
     18 N          47.7181   12.6161  -21.6019 N.pl3   1  UNL1       -0.2123
     19 H          46.9352   13.1497  -21.1648 H       1  UNL1        0.1738
     20 S          47.3136   11.2263  -22.5559 S.O2    1  UNL1        0.0745
     21 O          46.0855   11.5115  -23.3734 O.2     1  UNL1       -0.1499
     22 O          47.0204   10.0680  -21.6423 O.2     1  UNL1       -0.1499
     23 C          48.6655   10.8246  -23.6226 C.ar    1  UNL1        0.1356
     24 C          48.7037   11.3585  -24.9203 C.ar    1  UNL1        0.0207
     25 C          49.7432   11.0304  -25.7927 C.ar    1  UNL1       -0.0028
     26 C          50.7556   10.1514  -25.3871 C.ar    1  UNL1       -0.0216
     27 C          50.7426    9.6436  -24.0806 C.ar    1  UNL1        0.0085
     28 C          49.7032    9.9672  -23.2004 C.ar    1  UNL1        0.0762
     29 CL         49.7503    9.2858  -21.5784 Cl      1  UNL1       -0.0809
     30 C          51.8952    9.8282  -26.3149 C.3     1  UNL1        0.0224
     31 C          52.3947   10.9967  -27.1551 C.3     1  UNL1        0.0047
     32 C          51.5608    9.9047  -27.7992 C.3     1  UNL1        0.0047
     33 O          49.7745   13.4462  -23.2360 O.3     1  UNL1       -0.4513
     34 C          49.9296   14.6879  -23.8630 C.ar    1  UNL1        0.1580
     35 C          50.5031   14.7289  -25.1376 C.ar    1  UNL1        0.0677
     36 C          50.6658   15.9463  -25.8039 C.ar    1  UNL1        0.1398
     37 F          51.1964   15.9517  -27.0532 F       1  UNL1       -0.2044
     38 C          50.2769   17.1475  -25.1853 C.ar    1  UNL1        0.0175
     39 C          49.7146   17.1074  -23.8992 C.ar    1  UNL1        0.0130
     40 C          49.5502   15.8885  -23.2319 C.ar    1  UNL1        0.0919
     41 CL         48.9272   15.9015  -21.5872 Cl      1  UNL1       -0.0791
     42 C          50.4059   18.4614  -25.9075 C.3     1  UNL1        0.1382
     43 C          49.1052   18.8176  -26.5510 C.2     1  UNL1        0.3234
     44 O          49.0987   19.4788  -27.6248 O.2     1  UNL1       -0.2497
     45 O          47.9085   18.4625  -25.9183 O.3     1  UNL1       -0.4215
     46 C          47.0382   17.4336  -26.3879 C.3     1  UNL1        0.3207
     47 O          46.8741   16.4876  -25.3508 O.3     1  UNL1       -0.3070
     48 C          45.7921   15.6121  -25.6361 C.3     1  UNL1        0.2456
     49 C          45.8525   15.0110  -27.0767 C.3     1  UNL1        0.1781
     50 O          44.8497   15.6036  -27.8639 O.3     1  UNL1       -0.3790
     51 C          47.2354   15.2460  -27.7214 C.3     1  UNL1        0.1733
     52 O          48.1796   14.4360  -27.0665 O.3     1  UNL1       -0.3793
     53 C          47.6604   16.7372  -27.6249 C.3     1  UNL1        0.2106
     54 O          47.3419   17.4300  -28.8065 O.3     1  UNL1       -0.3766
     55 H          44.7336   15.0313  -28.6670 H       1  UNL1        0.2106
     56 H          48.9606   14.3535  -27.6741 H       1  UNL1        0.2105
     57 H          46.3574   17.3972  -28.9226 H       1  UNL1        0.2107
     58 C          45.7981   14.5138  -24.6130 C.2     1  UNL1        0.3439
     59 O          46.6080   14.5536  -23.6481 O.2     1  UNL1       -0.2475
     60 O          44.8776   13.4736  -24.7026 O.3     1  UNL1       -0.4785
     61 H          44.8588   12.7353  -24.0095 H       1  UNL1        0.2951
@<TRIPOS>BOND
     1    15    16    1
     2    16    17    1
     3    16     1    1
     4     1     2   ar
     5     2     7    1
     6     7     8    2
     7     7     9   am
     8     9    11    1
     9    11    12    1
    10    11    13    1
    11    11    14    1
    12     2     3   ar
    13     3     4   ar
    14     4     5   ar
    15     5    33    1
    16    33    34    1
    17    34    35   ar
    18    35    36   ar
    19    36    37    1
    20    36    38   ar
    21    38    42    1
    22    42    43    1
    23    43    44    2
    24    43    45    1
    25    45    46    1
    26    46    47    1
    27    47    48    1
    28    48    58    1
    29    58    59    2
    30    58    60    1
    31    48    49    1
    32    49    50    1
    33    49    51    1
    34    51    52    1
    35    51    53    1
    36    53    54    1
    37    38    39   ar
    38    39    40   ar
    39    40    41    1
    40     5     6   ar
    41     6    18    1
    42    18    20    1
    43    20    21    2
    44    20    22    2
    45    20    23    1
    46    23    24   ar
    47    24    25   ar
    48    25    26   ar
    49    26    30    1
    50    30    31    1
    51    31    32    1
    52    26    27   ar
    53    27    28   ar
    54    28    29    1
    55     6     1   ar
    56    28    23   ar
    57    40    34   ar
    58    32    30    1
    59    53    46    1
    60     9    10    1
    61    60    61    1
    62    50    55    1
    63    52    56    1
    64    54    57    1
    65    18    19    1
@<TRIPOS>MOLECULE
*****
 61 65 0 0 0
SMALL
GASTEIGER

@<TRIPOS>ATOM
      1 C          48.7350   12.1939  -23.0740 C.ar    1  UNL1       -0.0005
      2 C          50.0434   12.7544  -22.9789 C.ar    1  UNL1        0.0508
      3 C          50.8572   12.8309  -24.1164 C.ar    1  UNL1        0.0074
      4 C          50.3975   12.3976  -25.3525 C.ar    1  UNL1        0.0389
      5 C          49.1058   11.8754  -25.4838 C.ar    1  UNL1        0.1595
      6 C          48.2651   11.7982  -24.3603 C.ar    1  UNL1        0.0953
      7 C          50.5923   13.3049  -21.7204 C.2     1  UNL1        0.2455
      8 O          49.9312   14.1689  -21.0845 O.2     1  UNL1       -0.2702
      9 N          51.8862   12.8786  -21.2543 N.am    1  UNL1       -0.3040
     10 H          52.3706   12.1463  -21.8232 H       1  UNL1        0.1496
     11 C          52.5509   13.3712  -20.0320 C.3     1  UNL1        0.0572
     12 C          51.8768   12.7304  -18.8013 C.3     1  UNL1        0.0196
     13 C          54.0393   12.9715  -20.0370 C.3     1  UNL1        0.0196
     14 C          52.4065   14.9022  -19.9266 C.3     1  UNL1        0.0196
     15 C          47.3559   10.6306  -21.5553 C.3     1  UNL1        0.0047
     16 C          47.8594   12.0598  -21.8184 C.3     1  UNL1        0.0239
     17 C          46.7023   13.0623  -21.8466 C.3     1  UNL1        0.0047
     18 N          46.9512   11.2620  -24.5393 N.pl3   1  UNL1       -0.2123
     19 H          46.8510   10.2236  -24.5576 H       1  UNL1        0.1738
     20 S          45.6861   12.2074  -25.2541 S.O2    1  UNL1        0.0745
     21 O          44.5408   12.3351  -24.2896 O.2     1  UNL1       -0.1499
     22 O          45.1910   11.5142  -26.4936 O.2     1  UNL1       -0.1499
     23 C          46.3049   13.8115  -25.6677 C.ar    1  UNL1        0.1356
     24 C          46.5568   14.7395  -24.6449 C.ar    1  UNL1        0.0207
     25 C          47.0144   16.0232  -24.9480 C.ar    1  UNL1       -0.0028
     26 C          47.2149   16.4060  -26.2805 C.ar    1  UNL1       -0.0216
     27 C          46.9999   15.4724  -27.3038 C.ar    1  UNL1        0.0085
     28 C          46.5402   14.1836  -27.0079 C.ar    1  UNL1        0.0762
     29 CL         46.2858   13.0686  -28.3456 Cl      1  UNL1       -0.0809
     30 C          47.7440   17.7770  -26.6037 C.3     1  UNL1        0.0224
     31 C          49.2596   17.8718  -26.7253 C.3     1  UNL1        0.0047
     32 C          48.5634   18.4300  -25.4979 C.3     1  UNL1        0.0047
     33 O          48.6161   11.4410  -26.7267 O.3     1  UNL1       -0.4513
     34 C          49.2007   10.4385  -27.5091 C.ar    1  UNL1        0.1580
     35 C          50.5685   10.1865  -27.3644 C.ar    1  UNL1        0.0677
     36 C          51.1897    9.1869  -28.1177 C.ar    1  UNL1        0.1398
     37 F          52.5122    8.9437  -27.9328 F       1  UNL1       -0.2044
     38 C          50.4473    8.4408  -29.0499 C.ar    1  UNL1        0.0175
     39 C          49.0768    8.7041  -29.2056 C.ar    1  UNL1        0.0130
     40 C          48.4539    9.7042  -28.4507 C.ar    1  UNL1        0.0919
     41 CL         46.7569   10.0569  -28.7497 Cl      1  UNL1       -0.0791
     42 C          51.0928    7.3323  -29.8368 C.3     1  UNL1        0.1382
     43 C          51.7844    7.8961  -31.0355 C.2     1  UNL1        0.3234
     44 O          51.2417    7.8074  -32.1704 O.2     1  UNL1       -0.2497
     45 O          53.0558    8.4623  -30.8891 O.3     1  UNL1       -0.4215
     46 C          54.2136    7.7226  -30.5032 C.3     1  UNL1        0.3207
     47 O          55.2457    8.6418  -30.2073 O.3     1  UNL1       -0.3070
     48 C          56.3141    7.9961  -29.5291 C.3     1  UNL1        0.2456
     49 C          56.7806    6.6806  -30.2307 C.3     1  UNL1        0.1781
     50 O          56.3668    5.5786  -29.4620 O.3     1  UNL1       -0.3790
     51 C          56.2013    6.5742  -31.6578 C.3     1  UNL1        0.1733
     52 O          56.8298    7.5342  -32.4701 O.3     1  UNL1       -0.3793
     53 C          54.6643    6.8004  -31.6645 C.3     1  UNL1        0.2106
     54 O          53.9741    5.5756  -31.6324 O.3     1  UNL1       -0.3766
     55 H          56.8906    4.7941  -29.7721 H       1  UNL1        0.2106
     56 H          56.6944    7.2494  -33.4117 H       1  UNL1        0.2105
     57 H          54.2137    5.1133  -30.7881 H       1  UNL1        0.2107
     58 C          57.4558    8.9651  -29.4274 C.2     1  UNL1        0.3439
     59 O          58.6083    8.6260  -29.8088 O.2     1  UNL1       -0.2475
     60 O          57.2340   10.2555  -28.9550 O.3     1  UNL1       -0.4785
     61 H          57.9918   10.9252  -28.8976 H       1  UNL1        0.2951
@<TRIPOS>BOND
     1    15    16    1
     2    16    17    1
     3    16     1    1
     4     1     2   ar
     5     2     7    1
     6     7     8    2
     7     7     9   am
     8     9    11    1
     9    11    12    1
    10    11    13    1
    11    11    14    1
    12     2     3   ar
    13     3     4   ar
    14     4     5   ar
    15     5    33    1
    16    33    34    1
    17    34    35   ar
    18    35    36   ar
    19    36    37    1
    20    36    38   ar
    21    38    42    1
    22    42    43    1
    23    43    44    2
    24    43    45    1
    25    45    46    1
    26    46    47    1
    27    47    48    1
    28    48    58    1
    29    58    59    2
    30    58    60    1
    31    48    49    1
    32    49    50    1
    33    49    51    1
    34    51    52    1
    35    51    53    1
    36    53    54    1
    37    38    39   ar
    38    39    40   ar
    39    40    41    1
    40     5     6   ar
    41     6    18    1
    42    18    20    1
    43    20    21    2
    44    20    22    2
    45    20    23    1
    46    23    24   ar
    47    24    25   ar
    48    25    26   ar
    49    26    30    1
    50    30    31    1
    51    31    32    1
    52    26    27   ar
    53    27    28   ar
    54    28    29    1
    55     6     1   ar
    56    28    23   ar
    57    40    34   ar
    58    32    30    1
    59    53    46    1
    60     9    10    1
    61    60    61    1
    62    50    55    1
    63    52    56    1
    64    54    57    1
    65    18    19    1
@<TRIPOS>MOLECULE
*****
 61 65 0 0 0
SMALL
GASTEIGER

@<TRIPOS>ATOM
      1 C          49.0873   11.7864  -20.4222 C.ar    1  UNL1       -0.0005
      2 C          50.0548   12.1451  -19.4372 C.ar    1  UNL1        0.0508
      3 C          51.2122   12.8393  -19.8121 C.ar    1  UNL1        0.0074
      4 C          51.4214   13.2167  -21.1316 C.ar    1  UNL1        0.0389
      5 C          50.4736   12.9096  -22.1142 C.ar    1  UNL1        0.1595
      6 C          49.2984   12.2239  -21.7624 C.ar    1  UNL1        0.0953
      7 C          49.8851   11.8474  -17.9982 C.2     1  UNL1        0.2455
      8 O          49.9436   10.6519  -17.6042 O.2     1  UNL1       -0.2702
      9 N          49.6197   12.9159  -17.0703 N.am    1  UNL1       -0.3040
     10 H          49.6020   13.8847  -17.4648 H       1  UNL1        0.1496
     11 C          49.4071   12.7450  -15.6197 C.3     1  UNL1        0.0572
     12 C          50.7772   12.7191  -14.9114 C.3     1  UNL1        0.0196
     13 C          48.5893   13.9246  -15.0585 C.3     1  UNL1        0.0196
     14 C          48.6869   11.4112  -15.3398 C.3     1  UNL1        0.0196
     15 C          47.4032    9.9446  -21.0734 C.3     1  UNL1        0.0047
     16 C          47.8422   10.9791  -20.0233 C.3     1  UNL1        0.0239
     17 C          46.6868   11.9070  -19.6378 C.3     1  UNL1        0.0047
     18 N          48.3541   11.9337  -22.7967 N.pl3   1  UNL1       -0.2123
     19 H          48.6017   11.1869  -23.4820 H       1  UNL1        0.1738
     20 S          47.1516   13.0915  -23.2645 S.O2    1  UNL1        0.0745
     21 O          46.5410   13.7124  -22.0398 O.2     1  UNL1       -0.1499
     22 O          46.0665   12.3927  -24.0367 O.2     1  UNL1       -0.1499
     23 C          47.8929   14.3450  -24.2676 C.ar    1  UNL1        0.1356
     24 C          47.8562   14.2224  -25.6655 C.ar    1  UNL1        0.0207
     25 C          48.4627   15.1818  -26.4785 C.ar    1  UNL1       -0.0028
     26 C          49.1287   16.2736  -25.9071 C.ar    1  UNL1       -0.0216
     27 C          49.1376   16.4209  -24.5131 C.ar    1  UNL1        0.0085
     28 C          48.5324   15.4626  -23.6913 C.ar    1  UNL1        0.0762
     29 CL         48.5905   15.7108  -21.9499 Cl      1  UNL1       -0.0809
     30 C          49.7494   17.3265  -26.7847 C.3     1  UNL1        0.0224
     31 C          51.0962   17.8538  -26.3063 C.3     1  UNL1        0.0047
     32 C          49.8528   18.7109  -26.1575 C.3     1  UNL1        0.0047
     33 O          50.6595   13.2911  -23.4533 O.3     1  UNL1       -0.4513
     34 C          51.0635   12.4301  -24.4801 C.ar    1  UNL1        0.1580
     35 C          50.0827   11.8087  -25.2595 C.ar    1  UNL1        0.0677
     36 C          50.4427   10.9507  -26.3020 C.ar    1  UNL1        0.1398
     37 F          49.4694   10.3868  -27.0617 F       1  UNL1       -0.2044
     38 C          51.7986   10.6834  -26.5604 C.ar    1  UNL1        0.0175
     39 C          52.7830   11.2959  -25.7681 C.ar    1  UNL1        0.0130
     40 C          52.4231   12.1562  -24.7248 C.ar    1  UNL1        0.0919
     41 CL         53.6900   12.8245  -23.7041 Cl      1  UNL1       -0.0791
     42 C          52.2027    9.7959  -27.7067 C.3     1  UNL1        0.1382
     43 C          52.8632   10.6102  -28.7714 C.2     1  UNL1        0.3234
     44 O          52.8169   11.8692  -28.7156 O.2     1  UNL1       -0.2497
     45 O          53.4735    9.9605  -29.8504 O.3     1  UNL1       -0.4215
     46 C          53.9507    8.6166  -29.7997 C.3     1  UNL1        0.3207
     47 O          55.3136    8.6183  -30.1740 O.3     1  UNL1       -0.3070
     48 C          55.9246    7.3769  -29.8515 C.3     1  UNL1        0.2456
     49 C          55.1044    6.1425  -30.3453 C.3     1  UNL1        0.1781
     50 O          54.5200    5.5061  -29.2362 O.3     1  UNL1       -0.3790
     51 C          54.0085    6.5659  -31.3470 C.3     1  UNL1        0.1733
     52 O          54.6254    6.9599  -32.5473 O.3     1  UNL1       -0.3793
     53 C          53.1480    7.7319  -30.7872 C.3     1  UNL1        0.2106
     54 O          51.9713    7.2479  -30.1880 O.3     1  UNL1       -0.3766
     55 H          54.2396    4.6013  -29.5341 H       1  UNL1        0.2106
     56 H          53.9317    6.9170  -33.2564 H       1  UNL1        0.2105
     57 H          52.2337    6.6664  -29.4284 H       1  UNL1        0.2107
     58 C          57.2995    7.3631  -30.4534 C.2     1  UNL1        0.3439
     59 O          58.3035    7.6364  -29.7422 O.2     1  UNL1       -0.2475
     60 O          57.4723    7.0029  -31.7868 O.3     1  UNL1       -0.4785
     61 H          58.3961    6.9723  -32.2012 H       1  UNL1        0.2951
@<TRIPOS>BOND
     1    15    16    1
     2    16    17    1
     3    16     1    1
     4     1     2   ar
     5     2     7    1
     6     7     8    2
     7     7     9   am
     8     9    11    1
     9    11    12    1
    10    11    13    1
    11    11    14    1
    12     2     3   ar
    13     3     4   ar
    14     4     5   ar
    15     5    33    1
    16    33    34    1
    17    34    35   ar
    18    35    36   ar
    19    36    37    1
    20    36    38   ar
    21    38    42    1
    22    42    43    1
    23    43    44    2
    24    43    45    1
    25    45    46    1
    26    46    47    1
    27    47    48    1
    28    48    58    1
    29    58    59    2
    30    58    60    1
    31    48    49    1
    32    49    50    1
    33    49    51    1
    34    51    52    1
    35    51    53    1
    36    53    54    1
    37    38    39   ar
    38    39    40   ar
    39    40    41    1
    40     5     6   ar
    41     6    18    1
    42    18    20    1
    43    20    21    2
    44    20    22    2
    45    20    23    1
    46    23    24   ar
    47    24    25   ar
    48    25    26   ar
    49    26    30    1
    50    30    31    1
    51    31    32    1
    52    26    27   ar
    53    27    28   ar
    54    28    29    1
    55     6     1   ar
    56    28    23   ar
    57    40    34   ar
    58    32    30    1
    59    53    46    1
    60     9    10    1
    61    60    61    1
    62    50    55    1
    63    52    56    1
    64    54    57    1
    65    18    19    1
