@<TRIPOS>MOLECULE
*****
 46 51 0 0 0
SMALL
GASTEIGER

@<TRIPOS>ATOM
      1 C         -24.5185   51.4732   -8.9566 C.ar    1  UNL1        0.1318
      2 C         -25.8444   51.9375   -8.9991 C.ar    1  UNL1        0.0356
      3 C         -26.7549   51.5129   -8.0304 C.ar    1  UNL1        0.0191
      4 C         -26.3582   50.6147   -7.0330 C.ar    1  UNL1        0.0702
      5 C         -25.0219   50.1853   -7.0126 C.ar    1  UNL1        0.1149
      6 N         -24.1511   50.6155   -7.9634 N.ar    1  UNL1       -0.2279
      7 C         -21.5504   52.5627  -12.0104 C.3     1  UNL1        0.0472
      8 C         -22.8825   53.3323  -11.8442 C.3     1  UNL1        0.0252
      9 C         -23.9766   52.4514  -11.2316 C.3     1  UNL1        0.0923
     10 N         -23.5455   51.8873   -9.9403 N.pl3   1  UNL1       -0.2932
     11 C         -22.1137   51.8479   -9.6052 C.3     1  UNL1        0.0923
     12 C         -21.2831   51.5562  -10.8596 C.3     1  UNL1        0.0252
     13 C         -20.3724   53.5344  -12.2464 C.3     1  UNL1        0.2054
     14 O         -20.6150   54.8215  -11.6701 O.3     1  UNL1       -0.4755
     15 C         -19.2982   56.0246   -7.8342 C.ar    1  UNL1       -0.0158
     16 C         -19.8033   56.9756   -8.7394 C.ar    1  UNL1       -0.0009
     17 C         -20.2575   56.5992  -10.0020 C.ar    1  UNL1        0.0366
     18 C         -20.1965   55.2579  -10.4035 C.ar    1  UNL1        0.1387
     19 C         -19.7152   54.3003   -9.5080 C.ar    1  UNL1        0.0430
     20 C         -19.2568   54.6546   -8.2253 C.ar    1  UNL1        0.0745
     21 C         -18.7313   53.5648   -7.3621 C.2     1  UNL1        0.3378
     22 O         -17.6045   53.0457   -7.5754 O.2     1  UNL1       -0.2451
     23 O         -19.4785   53.1279   -6.2708 O.3     1  UNL1       -0.4771
     24 H         -19.1331   52.3946   -5.6632 H       1  UNL1        0.2954
     25 C         -18.4027   58.0186   -6.5993 C.3     1  UNL1        0.0050
     26 C         -18.7457   56.5332   -6.5178 C.3     1  UNL1        0.0266
     27 N         -27.3019   50.2038   -6.0286 N.am    1  UNL1       -0.2766
     28 C         -27.6590   48.8360   -5.7722 C.2     1  UNL1        0.2839
     29 O         -27.3497   47.9340   -6.5966 O.2     1  UNL1       -0.2665
     30 H         -27.8194   50.9508   -5.5122 H       1  UNL1        0.1553
     31 C         -28.4261   48.4943   -4.5593 C.ar    1  UNL1        0.1946
     32 O         -29.6858   48.0972   -4.5949 O.2     1  UNL1       -0.4492
     33 C         -30.0739   47.8773   -3.3626 C.ar    1  UNL1        0.1452
     34 C         -31.3257   47.4479   -2.9360 C.ar    1  UNL1        0.0375
     35 C         -31.5299   47.2767   -1.5559 C.ar    1  UNL1        0.0031
     36 C         -30.4858   47.5356   -0.6272 C.ar    1  UNL1        0.0002
     37 C         -29.2258   47.9709   -1.1035 C.ar    1  UNL1        0.0028
     38 C         -29.0581   48.1300   -2.4800 C.ar    1  UNL1        0.0337
     39 C         -27.9741   48.5346   -3.2354 C.ar    1  UNL1        0.0202
     40 C         -26.6142   48.9296   -2.7435 C.3     1  UNL1        0.0345
     41 C         -30.7135   47.3513    0.8285 C.ar    1  UNL1        0.0000
     42 C         -30.5364   48.4249    1.7222 C.ar    1  UNL1        0.0000
     43 C         -30.7515   48.2487    3.0925 C.ar    1  UNL1        0.0000
     44 C         -31.1457   47.0030    3.5857 C.ar    1  UNL1        0.0000
     45 C         -31.3254   45.9304    2.7095 C.ar    1  UNL1        0.0000
     46 C         -31.1108   46.1006    1.3384 C.ar    1  UNL1        0.0000
@<TRIPOS>BOND
     1    25    26    1
     2    26    15    1
     3    15    16   ar
     4    16    17   ar
     5    17    18   ar
     6    18    14    1
     7    14    13    1
     8    13     7    1
     9     7     8    1
    10     8     9    1
    11     9    10    1
    12    10     1    1
    13     1     2   ar
    14     2     3   ar
    15     3     4   ar
    16     4    27    1
    17    27    28   am
    18    28    29    2
    19    28    31    1
    20    31    32   ar
    21    32    33   ar
    22    33    34   ar
    23    34    35   ar
    24    35    36   ar
    25    36    41    1
    26    41    42   ar
    27    42    43   ar
    28    43    44   ar
    29    44    45   ar
    30    45    46   ar
    31    36    37   ar
    32    37    38   ar
    33    38    39   ar
    34    39    40    1
    35     4     5   ar
    36     5     6   ar
    37    10    11    1
    38    11    12    1
    39    18    19   ar
    40    19    20   ar
    41    20    21    1
    42    21    22    2
    43    21    23    1
    44    20    15   ar
    45    12     7    1
    46     6     1   ar
    47    39    31   ar
    48    38    33   ar
    49    46    41   ar
    50    27    30    1
    51    23    24    1
@<TRIPOS>MOLECULE
*****
 46 51 0 0 0
SMALL
GASTEIGER

@<TRIPOS>ATOM
      1 C         -27.4921   48.7252   -9.9729 C.ar    1  UNL1        0.1318
      2 C         -26.6488   48.2998   -8.9321 C.ar    1  UNL1        0.0356
      3 C         -25.5661   49.0947   -8.5533 C.ar    1  UNL1        0.0191
      4 C         -25.3072   50.2993   -9.2174 C.ar    1  UNL1        0.0702
      5 C         -26.1804   50.6998  -10.2411 C.ar    1  UNL1        0.1149
      6 N         -27.2314   49.9120  -10.5901 N.ar    1  UNL1       -0.2279
      7 C         -30.9253   46.2233  -11.1021 C.3     1  UNL1        0.0472
      8 C         -30.9649   47.7674  -11.1949 C.3     1  UNL1        0.0252
      9 C         -29.9984   48.4225  -10.2023 C.3     1  UNL1        0.0923
     10 N         -28.6224   47.9320  -10.3960 N.pl3   1  UNL1       -0.2932
     11 C         -28.3938   46.6752  -11.1254 C.3     1  UNL1        0.0923
     12 C         -29.5055   45.6688  -10.8096 C.3     1  UNL1        0.0252
     13 C         -31.5817   45.5747  -12.3415 C.3     1  UNL1        0.2054
     14 O         -30.6234   45.2758  -13.3613 O.3     1  UNL1       -0.4755
     15 C         -30.1223   47.4060  -16.9816 C.ar    1  UNL1       -0.0158
     16 C         -30.3724   46.0219  -17.0039 C.ar    1  UNL1       -0.0009
     17 C         -30.5567   45.3034  -15.8241 C.ar    1  UNL1        0.0366
     18 C         -30.4720   45.9493  -14.5833 C.ar    1  UNL1        0.1387
     19 C         -30.2432   47.3267  -14.5469 C.ar    1  UNL1        0.0430
     20 C         -30.0603   48.0752  -15.7247 C.ar    1  UNL1        0.0745
     21 C         -29.7875   49.5286  -15.5753 C.2     1  UNL1        0.3378
     22 O         -30.6353   50.3051  -15.0625 O.2     1  UNL1       -0.2451
     23 O         -28.5569   50.0442  -15.9751 O.3     1  UNL1       -0.4771
     24 H         -28.3465   51.0297  -15.8710 H       1  UNL1        0.2954
     25 C         -28.5266   47.6196  -18.9081 C.3     1  UNL1        0.0050
     26 C         -29.8479   48.0909  -18.3054 C.3     1  UNL1        0.0266
     27 N         -24.2010   51.1184   -8.8010 N.am    1  UNL1       -0.2766
     28 C         -23.1766   51.5975   -9.6872 C.2     1  UNL1        0.2839
     29 O         -23.0558   51.1067  -10.8419 O.2     1  UNL1       -0.2665
     30 H         -24.0919   51.3061   -7.7785 H       1  UNL1        0.1553
     31 C         -22.2383   52.6388   -9.2272 C.ar    1  UNL1        0.1946
     32 O         -21.1915   52.3756   -8.4651 O.2     1  UNL1       -0.4492
     33 C         -20.5684   53.5048   -8.2325 C.ar    1  UNL1        0.1452
     34 C         -19.4176   53.6932   -7.4752 C.ar    1  UNL1        0.0375
     35 C         -18.9144   54.9999   -7.3528 C.ar    1  UNL1        0.0031
     36 C         -19.5648   56.0935   -7.9859 C.ar    1  UNL1        0.0002
     37 C         -20.7341   55.8581   -8.7484 C.ar    1  UNL1        0.0028
     38 C         -21.2056   54.5483   -8.8488 C.ar    1  UNL1        0.0337
     39 C         -22.2975   54.0096   -9.5024 C.ar    1  UNL1        0.0202
     40 C         -23.3195   54.7354  -10.3247 C.3     1  UNL1        0.0345
     41 C         -19.0240   57.4696   -7.8493 C.ar    1  UNL1        0.0000
     42 C         -19.2484   58.4299   -8.8543 C.ar    1  UNL1        0.0000
     43 C         -18.7381   59.7250   -8.7231 C.ar    1  UNL1        0.0000
     44 C         -18.0006   60.0765   -7.5904 C.ar    1  UNL1        0.0000
     45 C         -17.7715   59.1332   -6.5862 C.ar    1  UNL1        0.0000
     46 C         -18.2788   57.8364   -6.7125 C.ar    1  UNL1        0.0000
@<TRIPOS>BOND
     1    25    26    1
     2    26    15    1
     3    15    16   ar
     4    16    17   ar
     5    17    18   ar
     6    18    14    1
     7    14    13    1
     8    13     7    1
     9     7     8    1
    10     8     9    1
    11     9    10    1
    12    10     1    1
    13     1     2   ar
    14     2     3   ar
    15     3     4   ar
    16     4    27    1
    17    27    28   am
    18    28    29    2
    19    28    31    1
    20    31    32   ar
    21    32    33   ar
    22    33    34   ar
    23    34    35   ar
    24    35    36   ar
    25    36    41    1
    26    41    42   ar
    27    42    43   ar
    28    43    44   ar
    29    44    45   ar
    30    45    46   ar
    31    36    37   ar
    32    37    38   ar
    33    38    39   ar
    34    39    40    1
    35     4     5   ar
    36     5     6   ar
    37    10    11    1
    38    11    12    1
    39    18    19   ar
    40    19    20   ar
    41    20    21    1
    42    21    22    2
    43    21    23    1
    44    20    15   ar
    45    12     7    1
    46     6     1   ar
    47    39    31   ar
    48    38    33   ar
    49    46    41   ar
    50    27    30    1
    51    23    24    1
