@<TRIPOS>MOLECULE
*****
 45 50 0 0 0
SMALL
GASTEIGER

@<TRIPOS>ATOM
      1 C          61.3844   85.5046   11.5957 C.ar    1  UNL1        0.0702
      2 C          60.0181   85.8244   11.5739 C.ar    1  UNL1        0.0191
      3 C          59.0832   84.8740   11.1605 C.ar    1  UNL1        0.0356
      4 C          59.5161   83.5905   10.7919 C.ar    1  UNL1        0.1318
      5 N          60.8465   83.3014   10.8295 N.ar    1  UNL1       -0.2279
      6 C          61.7742   84.2108   11.2289 C.ar    1  UNL1        0.1149
      7 N          58.5847   82.5932   10.3330 N.pl3   1  UNL1       -0.2932
      8 C          58.8496   81.1776   10.6249 C.3     1  UNL1        0.0923
      9 C          58.0054   80.2538    9.7309 C.3     1  UNL1        0.0252
     10 C          57.8759   80.8154    8.2956 C.3     1  UNL1        0.0472
     11 C          57.2337   82.2322    8.2943 C.3     1  UNL1        0.0252
     12 C          57.3377   82.9569    9.6471 C.3     1  UNL1        0.0923
     13 C          59.2291   80.8226    7.5574 C.3     1  UNL1        0.2054
     14 O          59.3787   82.0296    6.8126 O.3     1  UNL1       -0.4755
     15 C          60.2055   83.0983    7.1888 C.ar    1  UNL1        0.1388
     16 C          61.5602   82.8373    7.4186 C.ar    1  UNL1        0.0369
     17 C          62.4248   83.8653    7.7977 C.ar    1  UNL1        0.0033
     18 C          61.9434   85.1671    7.9512 C.ar    1  UNL1        0.0066
     19 C          60.5856   85.4543    7.7252 C.ar    1  UNL1        0.0785
     20 C          59.7207   84.4126    7.3426 C.ar    1  UNL1        0.0433
     21 C          60.0704   86.8324    7.8871 C.2     1  UNL1        0.3381
     22 O          58.8534   87.0877    7.6788 O.2     1  UNL1       -0.2451
     23 O          60.9262   87.8618    8.2710 O.3     1  UNL1       -0.4771
     24 H          60.5835   88.8084    8.3842 H       1  UNL1        0.2954
     25 C          62.4800   87.7962   11.5536 C.2     1  UNL1        0.2839
     26 O          61.6288   88.2545   10.7457 O.2     1  UNL1       -0.2665
     27 N          62.3770   86.4453   12.0368 N.am    1  UNL1       -0.2766
     28 H          63.1018   86.0964   12.7026 H       1  UNL1        0.1553
     29 C          65.8084   90.0689   15.6361 C.3     1  UNL1        0.0311
     30 C          65.9189   90.3863   14.1655 C.ar    1  UNL1       -0.0191
     31 C          66.8715   91.3326   13.6774 C.ar    1  UNL1       -0.0038
     32 C          66.8700   91.6949   12.3083 C.ar    1  UNL1        0.0028
     33 C          65.9672   91.1146   11.4099 C.ar    1  UNL1        0.0375
     34 C          65.0844   90.1600   11.8939 C.ar    1  UNL1        0.1449
     35 O          64.1951   89.5000   11.1959 O.2     1  UNL1       -0.4492
     36 C          63.5621   88.6833   12.0121 C.ar    1  UNL1        0.1946
     37 C          64.0834   88.7956   13.3056 C.ar    1  UNL1        0.0199
     38 C          63.7522   87.9247   14.4829 C.3     1  UNL1        0.0345
     39 C          65.0590   89.7874   13.2178 C.ar    1  UNL1        0.0297
     40 C          67.8901   91.9487   14.5590 C.ar    1  UNL1       -0.0003
     41 C          67.6703   93.2178   15.1219 C.ar    1  UNL1       -0.0000
     42 C          68.6275   93.7895   15.9656 C.ar    1  UNL1       -0.0000
     43 C          69.8050   93.0968   16.2601 C.ar    1  UNL1       -0.0000
     44 C          70.0258   91.8295   15.7139 C.ar    1  UNL1       -0.0000
     45 C          69.0714   91.2540   14.8693 C.ar    1  UNL1       -0.0000
@<TRIPOS>BOND
     1    29    30    1
     2    30    31   ar
     3    31    40    1
     4    40    41   ar
     5    41    42   ar
     6    42    43   ar
     7    43    44   ar
     8    44    45   ar
     9    31    32   ar
    10    32    33   ar
    11    33    34   ar
    12    34    35   ar
    13    35    36   ar
    14    36    25    1
    15    25    26    2
    16    25    27   am
    17    27     1    1
    18     1     2   ar
    19     2     3   ar
    20     3     4   ar
    21     4     7    1
    22     7     8    1
    23     8     9    1
    24     9    10    1
    25    10    13    1
    26    13    14    1
    27    14    15    1
    28    15    16   ar
    29    16    17   ar
    30    17    18   ar
    31    18    19   ar
    32    19    21    1
    33    21    22    2
    34    21    23    1
    35    19    20   ar
    36    10    11    1
    37    11    12    1
    38     4     5   ar
    39     5     6   ar
    40    36    37   ar
    41    37    38    1
    42    37    39   ar
    43    39    30   ar
    44    45    40   ar
    45    39    34   ar
    46     6     1   ar
    47    12     7    1
    48    20    15   ar
    49    27    28    1
    50    23    24    1
@<TRIPOS>MOLECULE
*****
 45 50 0 0 0
SMALL
GASTEIGER

@<TRIPOS>ATOM
      1 C          61.1144   87.9749    9.0634 C.ar    1  UNL1        0.0702
      2 C          61.6186   86.6738    9.2138 C.ar    1  UNL1        0.0191
      3 C          61.4921   86.0109   10.4356 C.ar    1  UNL1        0.0356
      4 C          60.8356   86.6439   11.5029 C.ar    1  UNL1        0.1318
      5 N          60.3472   87.9034   11.3298 N.ar    1  UNL1       -0.2279
      6 C          60.4587   88.5676   10.1493 C.ar    1  UNL1        0.1149
      7 N          60.7110   86.0033   12.7861 N.pl3   1  UNL1       -0.2932
      8 C          59.6486   86.4380   13.7036 C.3     1  UNL1        0.0923
      9 C          59.9163   85.9561   15.1393 C.3     1  UNL1        0.0252
     10 C          61.4213   86.0231   15.4897 C.3     1  UNL1        0.0472
     11 C          62.2728   85.1659   14.5099 C.3     1  UNL1        0.0252
     12 C          61.5681   84.8751   13.1739 C.3     1  UNL1        0.0923
     13 C          61.9350   87.4757   15.5408 C.3     1  UNL1        0.2054
     14 O          63.2923   87.5348   15.1072 O.3     1  UNL1       -0.4755
     15 C          63.7756   88.4127   14.1259 C.ar    1  UNL1        0.1388
     16 C          63.1861   88.3767   12.8581 C.ar    1  UNL1        0.0369
     17 C          63.6320   89.2276   11.8457 C.ar    1  UNL1        0.0033
     18 C          64.6735   90.1249   12.0904 C.ar    1  UNL1        0.0066
     19 C          65.2815   90.1801   13.3570 C.ar    1  UNL1        0.0785
     20 C          64.8258   89.3196   14.3725 C.ar    1  UNL1        0.0433
     21 C          66.3862   91.1292   13.6213 C.2     1  UNL1        0.3381
     22 O          67.4681   91.0444   12.9794 O.2     1  UNL1       -0.2451
     23 O          66.2412   92.1259   14.5830 O.3     1  UNL1       -0.4771
     24 H          66.9914   92.7801   14.7716 H       1  UNL1        0.2954
     25 C          60.1581   88.7099    6.8275 C.2     1  UNL1        0.2839
     26 O          59.0506   88.1522    7.0500 O.2     1  UNL1       -0.2665
     27 N          61.2025   88.6835    7.8164 N.am    1  UNL1       -0.2766
     28 H          62.1093   89.1525    7.5978 H       1  UNL1        0.1553
     29 C          58.1791   91.2108    2.0589 C.3     1  UNL1        0.0311
     30 C          59.6381   91.1009    2.4265 C.ar    1  UNL1       -0.0191
     31 C          60.6627   91.6005    1.5653 C.ar    1  UNL1       -0.0038
     32 C          62.0245   91.3767    1.8832 C.ar    1  UNL1        0.0028
     33 C          62.3900   90.6983    3.0516 C.ar    1  UNL1        0.0375
     34 C          61.3812   90.2662    3.9003 C.ar    1  UNL1        0.1449
     35 O          61.5397   89.6428    5.0405 O.2     1  UNL1       -0.4492
     36 C          60.3463   89.4122    5.5471 C.ar    1  UNL1        0.1946
     37 C          59.3574   89.9364    4.7076 C.ar    1  UNL1        0.0199
     38 C          57.8884   90.0286    5.0040 C.3     1  UNL1        0.0345
     39 C          60.0495   90.4660    3.6198 C.ar    1  UNL1        0.0297
     40 C          60.3522   92.3717    0.3392 C.ar    1  UNL1       -0.0003
     41 C          61.3479   92.6079   -0.6243 C.ar    1  UNL1       -0.0000
     42 C          61.0471   93.3234   -1.7874 C.ar    1  UNL1       -0.0000
     43 C          59.7509   93.8000   -2.0011 C.ar    1  UNL1       -0.0000
     44 C          58.7523   93.5592   -1.0535 C.ar    1  UNL1       -0.0000
     45 C          59.0487   92.8444    0.1113 C.ar    1  UNL1       -0.0000
@<TRIPOS>BOND
     1    29    30    1
     2    30    31   ar
     3    31    40    1
     4    40    41   ar
     5    41    42   ar
     6    42    43   ar
     7    43    44   ar
     8    44    45   ar
     9    31    32   ar
    10    32    33   ar
    11    33    34   ar
    12    34    35   ar
    13    35    36   ar
    14    36    25    1
    15    25    26    2
    16    25    27   am
    17    27     1    1
    18     1     2   ar
    19     2     3   ar
    20     3     4   ar
    21     4     7    1
    22     7     8    1
    23     8     9    1
    24     9    10    1
    25    10    13    1
    26    13    14    1
    27    14    15    1
    28    15    16   ar
    29    16    17   ar
    30    17    18   ar
    31    18    19   ar
    32    19    21    1
    33    21    22    2
    34    21    23    1
    35    19    20   ar
    36    10    11    1
    37    11    12    1
    38     4     5   ar
    39     5     6   ar
    40    36    37   ar
    41    37    38    1
    42    37    39   ar
    43    39    30   ar
    44    45    40   ar
    45    39    34   ar
    46     6     1   ar
    47    12     7    1
    48    20    15   ar
    49    27    28    1
    50    23    24    1
@<TRIPOS>MOLECULE
*****
 45 50 0 0 0
SMALL
GASTEIGER

@<TRIPOS>ATOM
      1 C          61.4120   85.5485   11.4441 C.ar    1  UNL1        0.0702
      2 C          60.4553   85.9040   10.4809 C.ar    1  UNL1        0.0191
      3 C          59.4899   84.9797   10.0787 C.ar    1  UNL1        0.0356
      4 C          59.4670   83.7031   10.6621 C.ar    1  UNL1        0.1318
      5 N          60.4007   83.3845   11.6010 N.ar    1  UNL1       -0.2279
      6 C          61.3495   84.2684   12.0080 C.ar    1  UNL1        0.1149
      7 N          58.5046   82.7138   10.2525 N.pl3   1  UNL1       -0.2932
      8 C          58.6428   81.3348   10.7409 C.3     1  UNL1        0.0923
      9 C          57.8063   80.3561    9.8996 C.3     1  UNL1        0.0252
     10 C          57.8302   80.7325    8.3995 C.3     1  UNL1        0.0472
     11 C          57.2941   82.1739    8.1655 C.3     1  UNL1        0.0252
     12 C          57.3445   83.0611    9.4211 C.3     1  UNL1        0.0923
     13 C          59.2338   80.5597    7.7863 C.3     1  UNL1        0.2054
     14 O          59.7444   81.8208    7.3587 O.3     1  UNL1       -0.4755
     15 C          60.9155   82.4132    7.8534 C.ar    1  UNL1        0.1388
     16 C          61.3305   83.6259    7.2939 C.ar    1  UNL1        0.0369
     17 C          62.4904   84.2552    7.7485 C.ar    1  UNL1        0.0033
     18 C          63.2487   83.6778    8.7690 C.ar    1  UNL1        0.0066
     19 C          62.8514   82.4594    9.3476 C.ar    1  UNL1        0.0785
     20 C          61.6806   81.8317    8.8843 C.ar    1  UNL1        0.0433
     21 C          63.6521   81.8430   10.4293 C.2     1  UNL1        0.3381
     22 O          64.8107   82.2680   10.6876 O.2     1  UNL1       -0.2451
     23 O          63.1330   80.7860   11.1727 O.3     1  UNL1       -0.4771
     24 H          63.6730   80.3571   11.9147 H       1  UNL1        0.2954
     25 C          62.4712   87.8569   11.5019 C.2     1  UNL1        0.2839
     26 O          61.5809   88.3497   10.7591 O.2     1  UNL1       -0.2665
     27 N          62.4080   86.4770   11.9033 N.am    1  UNL1       -0.2766
     28 H          63.1644   86.1000   12.5165 H       1  UNL1        0.1553
     29 C          65.7737   90.1033   15.6199 C.3     1  UNL1        0.0311
     30 C          65.9072   90.4141   14.1497 C.ar    1  UNL1       -0.0191
     31 C          66.8776   91.3469   13.6709 C.ar    1  UNL1       -0.0038
     32 C          66.8984   91.7044   12.3007 C.ar    1  UNL1        0.0028
     33 C          66.0003   91.1319   11.3926 C.ar    1  UNL1        0.0375
     34 C          65.0997   90.1899   11.8683 C.ar    1  UNL1        0.1449
     35 O          64.2115   89.5383   11.1609 O.2     1  UNL1       -0.4492
     36 C          63.5580   88.7323   11.9716 C.ar    1  UNL1        0.1946
     37 C          64.0638   88.8429   13.2714 C.ar    1  UNL1        0.0199
     38 C          63.7066   87.9802   14.4472 C.3     1  UNL1        0.0345
     39 C          65.0524   89.8223   13.1929 C.ar    1  UNL1        0.0297
     40 C          67.8921   91.9538   14.5637 C.ar    1  UNL1       -0.0003
     41 C          67.6743   93.2214   15.1305 C.ar    1  UNL1       -0.0000
     42 C          68.6275   93.7843   15.9846 C.ar    1  UNL1       -0.0000
     43 C          69.7988   93.0841   16.2857 C.ar    1  UNL1       -0.0000
     44 C          70.0175   91.8181   15.7356 C.ar    1  UNL1       -0.0000
     45 C          69.0671   91.2514   14.8806 C.ar    1  UNL1       -0.0000
@<TRIPOS>BOND
     1    29    30    1
     2    30    31   ar
     3    31    40    1
     4    40    41   ar
     5    41    42   ar
     6    42    43   ar
     7    43    44   ar
     8    44    45   ar
     9    31    32   ar
    10    32    33   ar
    11    33    34   ar
    12    34    35   ar
    13    35    36   ar
    14    36    25    1
    15    25    26    2
    16    25    27   am
    17    27     1    1
    18     1     2   ar
    19     2     3   ar
    20     3     4   ar
    21     4     7    1
    22     7     8    1
    23     8     9    1
    24     9    10    1
    25    10    13    1
    26    13    14    1
    27    14    15    1
    28    15    16   ar
    29    16    17   ar
    30    17    18   ar
    31    18    19   ar
    32    19    21    1
    33    21    22    2
    34    21    23    1
    35    19    20   ar
    36    10    11    1
    37    11    12    1
    38     4     5   ar
    39     5     6   ar
    40    36    37   ar
    41    37    38    1
    42    37    39   ar
    43    39    30   ar
    44    45    40   ar
    45    39    34   ar
    46     6     1   ar
    47    12     7    1
    48    20    15   ar
    49    27    28    1
    50    23    24    1
@<TRIPOS>MOLECULE
*****
 45 50 0 0 0
SMALL
GASTEIGER

@<TRIPOS>ATOM
      1 C          61.6705   85.6938   10.2012 C.ar    1  UNL1        0.0702
      2 C          60.3263   85.6707   10.6040 C.ar    1  UNL1        0.0191
      3 C          59.4325   84.7787   10.0093 C.ar    1  UNL1        0.0356
      4 C          59.8925   83.8890    9.0256 C.ar    1  UNL1        0.1318
      5 N          61.2033   83.9247    8.6577 N.ar    1  UNL1       -0.2279
      6 C          62.0912   84.7844    9.2233 C.ar    1  UNL1        0.1149
      7 N          58.9948   82.9745    8.3696 N.pl3   1  UNL1       -0.2932
      8 C          57.6018   82.8850    8.8288 C.3     1  UNL1        0.0923
      9 C          56.9235   81.6042    8.3143 C.3     1  UNL1        0.0252
     10 C          57.8985   80.4035    8.3197 C.3     1  UNL1        0.0472
     11 C          59.1550   80.6864    7.4471 C.3     1  UNL1        0.0252
     12 C          59.4118   82.1834    7.2043 C.3     1  UNL1        0.0923
     13 C          58.3012   79.9971    9.7511 C.3     1  UNL1        0.2054
     14 O          59.7200   79.8942    9.8543 O.3     1  UNL1       -0.4755
     15 C          60.5239   80.7426   10.6295 C.ar    1  UNL1        0.1388
     16 C          59.9185   81.4666   11.6616 C.ar    1  UNL1        0.0369
     17 C          60.6734   82.3268   12.4605 C.ar    1  UNL1        0.0033
     18 C          62.0439   82.4723   12.2356 C.ar    1  UNL1        0.0066
     19 C          62.6753   81.7546   11.2044 C.ar    1  UNL1        0.0785
     20 C          61.9074   80.8890   10.4041 C.ar    1  UNL1        0.0433
     21 C          64.1276   81.9058   10.9617 C.2     1  UNL1        0.3381
     22 O          64.5513   82.2748    9.8330 O.2     1  UNL1       -0.2451
     23 O          65.0412   81.6410   11.9789 O.3     1  UNL1       -0.4771
     24 H          66.0371   81.7411   11.8228 H       1  UNL1        0.2954
     25 C          62.5197   88.0138   10.7930 C.2     1  UNL1        0.2839
     26 O          61.5060   88.5761   10.2995 O.2     1  UNL1       -0.2665
     27 N          62.6282   86.5794   10.8039 N.am    1  UNL1       -0.2766
     28 H          63.4835   86.1464   11.2174 H       1  UNL1        0.1553
     29 C          65.5935   89.9518   15.2323 C.3     1  UNL1        0.0311
     30 C          65.7957   90.3776   13.7992 C.ar    1  UNL1       -0.0191
     31 C          66.7787   91.3511   13.4433 C.ar    1  UNL1       -0.0038
     32 C          66.8630   91.8149   12.1078 C.ar    1  UNL1        0.0028
     33 C          66.0163   91.3096   11.1144 C.ar    1  UNL1        0.0375
     34 C          65.1032   90.3276   11.4700 C.ar    1  UNL1        0.1449
     35 O          64.2574   89.7278   10.6708 O.2     1  UNL1       -0.4492
     36 C          63.5732   88.8566   11.3828 C.ar    1  UNL1        0.1946
     37 C          64.0136   88.8683   12.7107 C.ar    1  UNL1        0.0199
     38 C          63.6081   87.9139   13.7966 C.3     1  UNL1        0.0345
     39 C          64.9948   89.8571   12.7580 C.ar    1  UNL1        0.0297
     40 C          67.7421   91.8926   14.4298 C.ar    1  UNL1       -0.0003
     41 C          68.8617   91.1376   14.8197 C.ar    1  UNL1       -0.0000
     42 C          69.7767   91.6583   15.7398 C.ar    1  UNL1       -0.0000
     43 C          69.5862   92.9372   16.2701 C.ar    1  UNL1       -0.0000
     44 C          68.4819   93.6990   15.8787 C.ar    1  UNL1       -0.0000
     45 C          67.5640   93.1821   14.9590 C.ar    1  UNL1       -0.0000
@<TRIPOS>BOND
     1    29    30    1
     2    30    31   ar
     3    31    40    1
     4    40    41   ar
     5    41    42   ar
     6    42    43   ar
     7    43    44   ar
     8    44    45   ar
     9    31    32   ar
    10    32    33   ar
    11    33    34   ar
    12    34    35   ar
    13    35    36   ar
    14    36    25    1
    15    25    26    2
    16    25    27   am
    17    27     1    1
    18     1     2   ar
    19     2     3   ar
    20     3     4   ar
    21     4     7    1
    22     7     8    1
    23     8     9    1
    24     9    10    1
    25    10    13    1
    26    13    14    1
    27    14    15    1
    28    15    16   ar
    29    16    17   ar
    30    17    18   ar
    31    18    19   ar
    32    19    21    1
    33    21    22    2
    34    21    23    1
    35    19    20   ar
    36    10    11    1
    37    11    12    1
    38     4     5   ar
    39     5     6   ar
    40    36    37   ar
    41    37    38    1
    42    37    39   ar
    43    39    30   ar
    44    45    40   ar
    45    39    34   ar
    46     6     1   ar
    47    12     7    1
    48    20    15   ar
    49    27    28    1
    50    23    24    1
@<TRIPOS>MOLECULE
*****
 45 50 0 0 0
SMALL
GASTEIGER

@<TRIPOS>ATOM
      1 C          60.3322   90.2271    4.4714 C.ar    1  UNL1        0.0702
      2 C          61.2495   90.5344    3.4547 C.ar    1  UNL1        0.0191
      3 C          60.8288   91.2266    2.3180 C.ar    1  UNL1        0.0356
      4 C          59.4899   91.6347    2.2110 C.ar    1  UNL1        0.1318
      5 N          58.6205   91.3322    3.2147 N.ar    1  UNL1       -0.2279
      6 C          59.0080   90.6596    4.3303 C.ar    1  UNL1        0.1149
      7 N          59.0127   92.3252    1.0413 N.pl3   1  UNL1       -0.2932
      8 C          58.0191   91.6708    0.1788 C.3     1  UNL1        0.0923
      9 C          57.9403   92.3491   -1.1993 C.3     1  UNL1        0.0252
     10 C          59.3370   92.7906   -1.6959 C.3     1  UNL1        0.0472
     11 C          60.0128   93.7722   -0.6959 C.3     1  UNL1        0.0252
     12 C          59.4340   93.6969    0.7272 C.3     1  UNL1        0.0923
     13 C          60.2511   91.5840   -1.9871 C.3     1  UNL1        0.2054
     14 O          61.2172   91.4346   -0.9487 O.3     1  UNL1       -0.4755
     15 C          62.4087   92.1692   -0.8601 C.ar    1  UNL1        0.1388
     16 C          62.8559   92.8440   -2.0006 C.ar    1  UNL1        0.0369
     17 C          64.0370   93.5868   -1.9660 C.ar    1  UNL1        0.0033
     18 C          64.7846   93.6630   -0.7891 C.ar    1  UNL1        0.0066
     19 C          64.3551   92.9937    0.3705 C.ar    1  UNL1        0.0785
     20 C          63.1630   92.2476    0.3277 C.ar    1  UNL1        0.0433
     21 C          65.1443   93.0709    1.6204 C.2     1  UNL1        0.3381
     22 O          64.7899   93.8422    2.5527 O.2     1  UNL1       -0.2451
     23 O          66.2876   92.2918    1.7786 O.3     1  UNL1       -0.4771
     24 H          66.8348   92.3375    2.6300 H       1  UNL1        0.2954
     25 C          59.8322   88.7728    6.4934 C.2     1  UNL1        0.2839
     26 O          58.6306   88.6077    6.1526 O.2     1  UNL1       -0.2665
     27 N          60.7285   89.5373    5.6680 N.am    1  UNL1       -0.2766
     28 H          61.7170   89.6575    5.9823 H       1  UNL1        0.1553
     29 C          59.7738   84.5781   10.4066 C.3     1  UNL1        0.0311
     30 C          60.6809   85.7826   10.4552 C.ar    1  UNL1       -0.0191
     31 C          61.5952   85.9832   11.5344 C.ar    1  UNL1       -0.0038
     32 C          62.3471   87.1809   11.6103 C.ar    1  UNL1        0.0028
     33 C          62.2352   88.1662   10.6226 C.ar    1  UNL1        0.0375
     34 C          61.3801   87.9297    9.5560 C.ar    1  UNL1        0.1449
     35 O          61.1725   88.7240    8.5363 O.2     1  UNL1       -0.4492
     36 C          60.3025   88.1416    7.7378 C.ar    1  UNL1        0.1946
     37 C          59.9434   86.8894    8.2484 C.ar    1  UNL1        0.0199
     38 C          59.1096   85.8476    7.5600 C.3     1  UNL1        0.0345
     39 C          60.6348   86.7782    9.4537 C.ar    1  UNL1        0.0297
     40 C          61.8042   84.9626   12.5876 C.ar    1  UNL1       -0.0003
     41 C          61.1358   85.0643   13.8199 C.ar    1  UNL1       -0.0000
     42 C          61.3242   84.0908   14.8058 C.ar    1  UNL1       -0.0000
     43 C          62.1726   83.0064   14.5665 C.ar    1  UNL1       -0.0000
     44 C          62.8317   82.8918   13.3395 C.ar    1  UNL1       -0.0000
     45 C          62.6466   83.8632   12.3508 C.ar    1  UNL1       -0.0000
@<TRIPOS>BOND
     1    29    30    1
     2    30    31   ar
     3    31    40    1
     4    40    41   ar
     5    41    42   ar
     6    42    43   ar
     7    43    44   ar
     8    44    45   ar
     9    31    32   ar
    10    32    33   ar
    11    33    34   ar
    12    34    35   ar
    13    35    36   ar
    14    36    25    1
    15    25    26    2
    16    25    27   am
    17    27     1    1
    18     1     2   ar
    19     2     3   ar
    20     3     4   ar
    21     4     7    1
    22     7     8    1
    23     8     9    1
    24     9    10    1
    25    10    13    1
    26    13    14    1
    27    14    15    1
    28    15    16   ar
    29    16    17   ar
    30    17    18   ar
    31    18    19   ar
    32    19    21    1
    33    21    22    2
    34    21    23    1
    35    19    20   ar
    36    10    11    1
    37    11    12    1
    38     4     5   ar
    39     5     6   ar
    40    36    37   ar
    41    37    38    1
    42    37    39   ar
    43    39    30   ar
    44    45    40   ar
    45    39    34   ar
    46     6     1   ar
    47    12     7    1
    48    20    15   ar
    49    27    28    1
    50    23    24    1
@<TRIPOS>MOLECULE
*****
 45 50 0 0 0
SMALL
GASTEIGER

@<TRIPOS>ATOM
      1 C          61.3487   88.1716    9.1673 C.ar    1  UNL1        0.0702
      2 C          60.3491   87.2322    9.4635 C.ar    1  UNL1        0.0191
      3 C          60.3178   86.6142   10.7147 C.ar    1  UNL1        0.0356
      4 C          61.2761   86.9574   11.6814 C.ar    1  UNL1        0.1318
      5 N          62.2310   87.8782   11.3732 N.ar    1  UNL1       -0.2279
      6 C          62.2805   88.4926   10.1619 C.ar    1  UNL1        0.1149
      7 N          61.2931   86.3207   12.9726 N.pl3   1  UNL1       -0.2932
      8 C          60.2392   86.6436   13.9443 C.3     1  UNL1        0.0923
      9 C          60.6358   86.2101   15.3656 C.3     1  UNL1        0.0252
     10 C          62.1403   86.4491   15.6334 C.3     1  UNL1        0.0472
     11 C          63.0291   85.6820   14.6128 C.3     1  UNL1        0.0252
     12 C          62.2911   85.2999   13.3185 C.3     1  UNL1        0.0923
     13 C          62.4894   87.9504   15.6498 C.3     1  UNL1        0.2054
     14 O          63.0313   88.3449   14.3909 O.3     1  UNL1       -0.4755
     15 C          64.0167   89.3288   14.2231 C.ar    1  UNL1        0.1388
     16 C          64.5519   89.9306   15.3665 C.ar    1  UNL1        0.0369
     17 C          65.5330   90.9170   15.2541 C.ar    1  UNL1        0.0033
     18 C          65.9900   91.3127   13.9954 C.ar    1  UNL1        0.0066
     19 C          65.4677   90.7218   12.8313 C.ar    1  UNL1        0.0785
     20 C          64.4796   89.7277   12.9531 C.ar    1  UNL1        0.0433
     21 C          65.9485   91.1381   11.4947 C.2     1  UNL1        0.3381
     22 O          66.9846   91.8475   11.3813 O.2     1  UNL1       -0.2451
     23 O          65.2599   90.7503   10.3481 O.3     1  UNL1       -0.4771
     24 H          65.5805   91.0302    9.4288 H       1  UNL1        0.2954
     25 C          60.3393   88.8350    6.9325 C.2     1  UNL1        0.2839
     26 O          59.2438   88.2693    7.1914 O.2     1  UNL1       -0.2665
     27 N          61.4030   88.8481    7.9008 N.am    1  UNL1       -0.2766
     28 H          62.2991   89.3228    7.6520 H       1  UNL1        0.1553
     29 C          58.2335   91.2091    2.1533 C.3     1  UNL1        0.0311
     30 C          59.7015   91.1132    2.4872 C.ar    1  UNL1       -0.0191
     31 C          60.7026   91.5944    1.5887 C.ar    1  UNL1       -0.0038
     32 C          62.0726   91.3831    1.8783 C.ar    1  UNL1        0.0028
     33 C          62.4695   90.7355    3.0539 C.ar    1  UNL1        0.0375
     34 C          61.4837   90.3215    3.9379 C.ar    1  UNL1        0.1449
     35 O          61.6727   89.7274    5.0890 O.2     1  UNL1       -0.4492
     36 C          60.4931   89.5056    5.6306 C.ar    1  UNL1        0.1946
     37 C          59.4817   90.0053    4.8030 C.ar    1  UNL1        0.0199
     38 C          58.0201   90.1002    5.1333 C.3     1  UNL1        0.0345
     39 C          60.1447   90.5098    3.6855 C.ar    1  UNL1        0.0297
     40 C          60.3589   92.3336    0.3518 C.ar    1  UNL1       -0.0003
     41 C          61.1468   92.1929   -0.8036 C.ar    1  UNL1       -0.0000
     42 C          60.8105   92.8807   -1.9736 C.ar    1  UNL1       -0.0000
     43 C          59.6827   93.7055   -2.0018 C.ar    1  UNL1       -0.0000
     44 C          58.8873   93.8415   -0.8607 C.ar    1  UNL1       -0.0000
     45 C          59.2202   93.1559    0.3117 C.ar    1  UNL1       -0.0000
@<TRIPOS>BOND
     1    29    30    1
     2    30    31   ar
     3    31    40    1
     4    40    41   ar
     5    41    42   ar
     6    42    43   ar
     7    43    44   ar
     8    44    45   ar
     9    31    32   ar
    10    32    33   ar
    11    33    34   ar
    12    34    35   ar
    13    35    36   ar
    14    36    25    1
    15    25    26    2
    16    25    27   am
    17    27     1    1
    18     1     2   ar
    19     2     3   ar
    20     3     4   ar
    21     4     7    1
    22     7     8    1
    23     8     9    1
    24     9    10    1
    25    10    13    1
    26    13    14    1
    27    14    15    1
    28    15    16   ar
    29    16    17   ar
    30    17    18   ar
    31    18    19   ar
    32    19    21    1
    33    21    22    2
    34    21    23    1
    35    19    20   ar
    36    10    11    1
    37    11    12    1
    38     4     5   ar
    39     5     6   ar
    40    36    37   ar
    41    37    38    1
    42    37    39   ar
    43    39    30   ar
    44    45    40   ar
    45    39    34   ar
    46     6     1   ar
    47    12     7    1
    48    20    15   ar
    49    27    28    1
    50    23    24    1
@<TRIPOS>MOLECULE
*****
 45 50 0 0 0
SMALL
GASTEIGER

@<TRIPOS>ATOM
      1 C          61.4688   84.7855   12.3769 C.ar    1  UNL1        0.0702
      2 C          60.2890   85.0451   11.6627 C.ar    1  UNL1        0.0191
      3 C          59.3867   84.0124   11.4024 C.ar    1  UNL1        0.0356
      4 C          59.6550   82.7204   11.8813 C.ar    1  UNL1        0.1318
      5 N          60.8026   82.4952   12.5793 N.ar    1  UNL1       -0.2279
      6 C          61.6950   83.4854   12.8447 C.ar    1  UNL1        0.1149
      7 N          58.7624   81.6243   11.6083 N.pl3   1  UNL1       -0.2932
      8 C          58.7163   80.4890   12.5402 C.3     1  UNL1        0.0923
      9 C          58.0449   79.2637   11.8975 C.3     1  UNL1        0.0252
     10 C          58.4283   79.1231   10.4056 C.3     1  UNL1        0.0472
     11 C          58.0328   80.3901    9.5943 C.3     1  UNL1        0.0252
     12 C          57.8408   81.6438   10.4647 C.3     1  UNL1        0.0923
     13 C          59.9241   78.7973   10.2252 C.3     1  UNL1        0.2054
     14 O          60.5012   79.6553    9.2430 O.3     1  UNL1       -0.4755
     15 C          61.4975   80.6069    9.5057 C.ar    1  UNL1        0.1388
     16 C          62.5393   80.2526   10.3689 C.ar    1  UNL1        0.0369
     17 C          63.5540   81.1640   10.6652 C.ar    1  UNL1        0.0033
     18 C          63.5379   82.4411   10.1008 C.ar    1  UNL1        0.0066
     19 C          62.5014   82.8203    9.2296 C.ar    1  UNL1        0.0785
     20 C          61.4826   81.8956    8.9353 C.ar    1  UNL1        0.0433
     21 C          62.4795   84.1730    8.6292 C.2     1  UNL1        0.3381
     22 O          61.5153   84.9546    8.8510 O.2     1  UNL1       -0.2451
     23 O          63.5248   84.5959    7.8119 O.3     1  UNL1       -0.4771
     24 H          63.5191   85.5196    7.3959 H       1  UNL1        0.2954
     25 C          62.3595   87.1526   12.1380 C.2     1  UNL1        0.2839
     26 O          61.4071   87.4996   11.3898 O.2     1  UNL1       -0.2665
     27 N          62.4124   85.8240   12.6868 N.am    1  UNL1       -0.2766
     28 H          63.2179   85.5687   13.3001 H       1  UNL1        0.1553
     29 C          65.8466   89.8624   15.7997 C.3     1  UNL1        0.0311
     30 C          65.7890   90.1279   14.3158 C.ar    1  UNL1       -0.0191
     31 C          66.6041   91.1307   13.7066 C.ar    1  UNL1       -0.0038
     32 C          66.4411   91.4356   12.3333 C.ar    1  UNL1        0.0028
     33 C          65.5119   90.7451   11.5467 C.ar    1  UNL1        0.0375
     34 C          64.7664   89.7399   12.1453 C.ar    1  UNL1        0.1449
     35 O          63.8765   88.9793   11.5593 O.2     1  UNL1       -0.4492
     36 C          63.3979   88.1459   12.4595 C.ar    1  UNL1        0.1946
     37 C          64.0275   88.3543   13.6915 C.ar    1  UNL1        0.0199
     38 C          63.8872   87.5070   14.9231 C.3     1  UNL1        0.0345
     39 C          64.8993   89.4205   13.4767 C.ar    1  UNL1        0.0297
     40 C          67.6434   91.8660   14.4639 C.ar    1  UNL1       -0.0003
     41 C          67.3888   93.1606   14.9485 C.ar    1  UNL1       -0.0000
     42 C          68.3670   93.8455   15.6759 C.ar    1  UNL1       -0.0000
     43 C          69.6009   93.2414   15.9320 C.ar    1  UNL1       -0.0000
     44 C          69.8576   91.9499   15.4638 C.ar    1  UNL1       -0.0000
     45 C          68.8824   91.2613   14.7356 C.ar    1  UNL1       -0.0000
@<TRIPOS>BOND
     1    29    30    1
     2    30    31   ar
     3    31    40    1
     4    40    41   ar
     5    41    42   ar
     6    42    43   ar
     7    43    44   ar
     8    44    45   ar
     9    31    32   ar
    10    32    33   ar
    11    33    34   ar
    12    34    35   ar
    13    35    36   ar
    14    36    25    1
    15    25    26    2
    16    25    27   am
    17    27     1    1
    18     1     2   ar
    19     2     3   ar
    20     3     4   ar
    21     4     7    1
    22     7     8    1
    23     8     9    1
    24     9    10    1
    25    10    13    1
    26    13    14    1
    27    14    15    1
    28    15    16   ar
    29    16    17   ar
    30    17    18   ar
    31    18    19   ar
    32    19    21    1
    33    21    22    2
    34    21    23    1
    35    19    20   ar
    36    10    11    1
    37    11    12    1
    38     4     5   ar
    39     5     6   ar
    40    36    37   ar
    41    37    38    1
    42    37    39   ar
    43    39    30   ar
    44    45    40   ar
    45    39    34   ar
    46     6     1   ar
    47    12     7    1
    48    20    15   ar
    49    27    28    1
    50    23    24    1
@<TRIPOS>MOLECULE
*****
 45 50 0 0 0
SMALL
GASTEIGER

@<TRIPOS>ATOM
      1 C          61.1468   88.0007    9.0978 C.ar    1  UNL1        0.0702
      2 C          60.2689   86.9171    9.2548 C.ar    1  UNL1        0.0191
      3 C          60.1523   86.2844   10.4935 C.ar    1  UNL1        0.0356
      4 C          60.8987   86.7551   11.5852 C.ar    1  UNL1        0.1318
      5 N          61.7375   87.8136   11.4100 N.ar    1  UNL1       -0.2279
      6 C          61.8668   88.4450   10.2134 C.ar    1  UNL1        0.1149
      7 N          60.8264   86.1106   12.8706 N.pl3   1  UNL1       -0.2932
      8 C          61.9387   86.2733   13.8170 C.3     1  UNL1        0.0923
      9 C          61.8863   85.2137   14.9304 C.3     1  UNL1        0.0252
     10 C          61.4277   83.8403   14.3865 C.3     1  UNL1        0.0472
     11 C          60.0251   83.9315   13.7198 C.3     1  UNL1        0.0252
     12 C          59.6379   85.3575   13.2924 C.3     1  UNL1        0.0923
     13 C          62.4606   83.2323   13.4172 C.3     1  UNL1        0.2054
     14 O          61.7985   82.5348   12.3641 O.3     1  UNL1       -0.4755
     15 C          61.8484   82.9040   11.0120 C.ar    1  UNL1        0.1388
     16 C          63.0526   83.4052   10.5072 C.ar    1  UNL1        0.0369
     17 C          63.1541   83.7895    9.1693 C.ar    1  UNL1        0.0033
     18 C          62.0510   83.6766    8.3206 C.ar    1  UNL1        0.0066
     19 C          60.8299   83.1750    8.8047 C.ar    1  UNL1        0.0785
     20 C          60.7360   82.7891   10.1544 C.ar    1  UNL1        0.0433
     21 C          59.6576   83.0538    7.9091 C.2     1  UNL1        0.3381
     22 O          58.5644   83.6051    8.2102 O.2     1  UNL1       -0.2451
     23 O          59.7508   82.3283    6.7241 O.3     1  UNL1       -0.4771
     24 H          58.9543   82.2391    6.1045 H       1  UNL1        0.2954
     25 C          60.2232   88.8224    6.8785 C.2     1  UNL1        0.2839
     26 O          59.0707   88.3771    7.1249 O.2     1  UNL1       -0.2665
     27 N          61.2794   88.6949    7.8467 N.am    1  UNL1       -0.2766
     28 H          62.2235   89.0718    7.6084 H       1  UNL1        0.1553
     29 C          58.4017   91.2918    2.0313 C.3     1  UNL1        0.0311
     30 C          59.8497   91.1556    2.4317 C.ar    1  UNL1       -0.0191
     31 C          60.9032   91.6191    1.5853 C.ar    1  UNL1       -0.0038
     32 C          62.2526   91.3705    1.9358 C.ar    1  UNL1        0.0028
     33 C          62.5781   90.7024    3.1219 C.ar    1  UNL1        0.0375
     34 C          61.5422   90.3059    3.9552 C.ar    1  UNL1        0.1449
     35 O          61.6627   89.6969    5.1078 O.2     1  UNL1       -0.4492
     36 C          60.4540   89.5004    5.5920 C.ar    1  UNL1        0.1946
     37 C          59.4949   90.0331    4.7236 C.ar    1  UNL1        0.0199
     38 C          58.0224   90.1621    4.9869 C.3     1  UNL1        0.0345
     39 C          60.2216   90.5304    3.6430 C.ar    1  UNL1        0.0297
     40 C          60.6359   92.3778    0.3414 C.ar    1  UNL1       -0.0003
     41 C          59.4493   93.1177    0.2000 C.ar    1  UNL1       -0.0000
     42 C          59.2076   93.8447   -0.9696 C.ar    1  UNL1       -0.0000
     43 C          60.1502   93.8456   -2.0013 C.ar    1  UNL1       -0.0000
     44 C          61.3379   93.1220   -1.8638 C.ar    1  UNL1       -0.0000
     45 C          61.5837   92.3932   -0.6959 C.ar    1  UNL1       -0.0000
@<TRIPOS>BOND
     1    29    30    1
     2    30    31   ar
     3    31    40    1
     4    40    41   ar
     5    41    42   ar
     6    42    43   ar
     7    43    44   ar
     8    44    45   ar
     9    31    32   ar
    10    32    33   ar
    11    33    34   ar
    12    34    35   ar
    13    35    36   ar
    14    36    25    1
    15    25    26    2
    16    25    27   am
    17    27     1    1
    18     1     2   ar
    19     2     3   ar
    20     3     4   ar
    21     4     7    1
    22     7     8    1
    23     8     9    1
    24     9    10    1
    25    10    13    1
    26    13    14    1
    27    14    15    1
    28    15    16   ar
    29    16    17   ar
    30    17    18   ar
    31    18    19   ar
    32    19    21    1
    33    21    22    2
    34    21    23    1
    35    19    20   ar
    36    10    11    1
    37    11    12    1
    38     4     5   ar
    39     5     6   ar
    40    36    37   ar
    41    37    38    1
    42    37    39   ar
    43    39    30   ar
    44    45    40   ar
    45    39    34   ar
    46     6     1   ar
    47    12     7    1
    48    20    15   ar
    49    27    28    1
    50    23    24    1
@<TRIPOS>MOLECULE
*****
 45 50 0 0 0
SMALL
GASTEIGER

@<TRIPOS>ATOM
      1 C          61.5987   84.6466   12.1808 C.ar    1  UNL1        0.0702
      2 C          61.1449   84.4393   10.8691 C.ar    1  UNL1        0.0191
      3 C          60.2269   83.4234   10.5983 C.ar    1  UNL1        0.0356
      4 C          59.7423   82.6289   11.6493 C.ar    1  UNL1        0.1318
      5 N          60.1912   82.8549   12.9150 N.ar    1  UNL1       -0.2279
      6 C          61.0844   83.8383   13.2019 C.ar    1  UNL1        0.1149
      7 N          58.8168   81.5535   11.4048 N.pl3   1  UNL1       -0.2932
      8 C          58.4651   80.6468   12.5064 C.3     1  UNL1        0.0923
      9 C          57.8173   79.3540   11.9826 C.3     1  UNL1        0.0252
     10 C          58.4808   78.8777   10.6692 C.3     1  UNL1        0.0472
     11 C          58.3914   79.9642    9.5595 C.3     1  UNL1        0.0252
     12 C          58.1551   81.3831   10.1044 C.3     1  UNL1        0.0923
     13 C          59.9406   78.4347   10.8909 C.3     1  UNL1        0.2054
     14 O          60.8311   79.3010   10.1906 O.3     1  UNL1       -0.4755
     15 C          61.8396   80.0634   10.7978 C.ar    1  UNL1        0.1388
     16 C          62.7035   80.7929    9.9747 C.ar    1  UNL1        0.0369
     17 C          63.7253   81.5654   10.5289 C.ar    1  UNL1        0.0033
     18 C          63.8944   81.6169   11.9140 C.ar    1  UNL1        0.0066
     19 C          63.0381   80.8928   12.7622 C.ar    1  UNL1        0.0785
     20 C          62.0100   80.1170   12.1958 C.ar    1  UNL1        0.0433
     21 C          63.2136   80.9436   14.2311 C.2     1  UNL1        0.3381
     22 O          64.2284   81.4975   14.7341 O.2     1  UNL1       -0.2451
     23 O          62.2584   80.3790   15.0727 O.3     1  UNL1       -0.4771
     24 H          62.3693   80.4083   16.0792 H       1  UNL1        0.2954
     25 C          62.3780   87.0625   12.0823 C.2     1  UNL1        0.2839
     26 O          61.3557   87.4290   11.4436 O.2     1  UNL1       -0.2665
     27 N          62.5248   85.6959   12.5065 N.am    1  UNL1       -0.2766
     28 H          63.3864   85.4255   13.0307 H       1  UNL1        0.1553
     29 C          65.7927   89.8378   15.7632 C.3     1  UNL1        0.0311
     30 C          65.7485   90.0925   14.2769 C.ar    1  UNL1       -0.0191
     31 C          66.5586   91.1004   13.6696 C.ar    1  UNL1       -0.0038
     32 C          66.4074   91.3940   12.2925 C.ar    1  UNL1        0.0028
     33 C          65.4950   90.6873   11.5006 C.ar    1  UNL1        0.0375
     34 C          64.7545   89.6776   12.0980 C.ar    1  UNL1        0.1449
     35 O          63.8800   88.9026   11.5076 O.2     1  UNL1       -0.4492
     36 C          63.4012   88.0700   12.4083 C.ar    1  UNL1        0.1946
     37 C          64.0146   88.2942   13.6457 C.ar    1  UNL1        0.0199
     38 C          63.8704   87.4538   14.8815 C.3     1  UNL1        0.0345
     39 C          64.8763   89.3690   13.4329 C.ar    1  UNL1        0.0297
     40 C          67.5809   91.8529   14.4332 C.ar    1  UNL1       -0.0003
     41 C          67.3050   93.1467   14.9082 C.ar    1  UNL1       -0.0000
     42 C          68.2671   93.8479   15.6415 C.ar    1  UNL1       -0.0000
     43 C          69.5060   93.2611   15.9130 C.ar    1  UNL1       -0.0000
     44 C          69.7838   91.9705   15.4544 C.ar    1  UNL1       -0.0000
     45 C          68.8247   91.2656   14.7204 C.ar    1  UNL1       -0.0000
@<TRIPOS>BOND
     1    29    30    1
     2    30    31   ar
     3    31    40    1
     4    40    41   ar
     5    41    42   ar
     6    42    43   ar
     7    43    44   ar
     8    44    45   ar
     9    31    32   ar
    10    32    33   ar
    11    33    34   ar
    12    34    35   ar
    13    35    36   ar
    14    36    25    1
    15    25    26    2
    16    25    27   am
    17    27     1    1
    18     1     2   ar
    19     2     3   ar
    20     3     4   ar
    21     4     7    1
    22     7     8    1
    23     8     9    1
    24     9    10    1
    25    10    13    1
    26    13    14    1
    27    14    15    1
    28    15    16   ar
    29    16    17   ar
    30    17    18   ar
    31    18    19   ar
    32    19    21    1
    33    21    22    2
    34    21    23    1
    35    19    20   ar
    36    10    11    1
    37    11    12    1
    38     4     5   ar
    39     5     6   ar
    40    36    37   ar
    41    37    38    1
    42    37    39   ar
    43    39    30   ar
    44    45    40   ar
    45    39    34   ar
    46     6     1   ar
    47    12     7    1
    48    20    15   ar
    49    27    28    1
    50    23    24    1
