@<TRIPOS>MOLECULE
*****
 48 53 0 0 0
SMALL
GASTEIGER

@<TRIPOS>ATOM
      1 C          61.8712   87.3019    9.9495 C.ar    1  UNL1        0.0702
      2 C          60.8497   87.5668    9.0302 C.ar    1  UNL1        0.0191
      3 C          60.0657   86.5268    8.5289 C.ar    1  UNL1        0.0356
      4 C          60.3205   85.2061    8.9368 C.ar    1  UNL1        0.1318
      5 N          61.3340   84.9714    9.8172 N.ar    1  UNL1       -0.2279
      6 C          62.1069   85.9690   10.3219 C.ar    1  UNL1        0.1149
      7 N          59.5309   84.1017    8.4443 N.pl3   1  UNL1       -0.2932
      8 C          58.2700   83.7227    9.1057 C.3     1  UNL1        0.0923
      9 C          57.3337   82.9921    8.1354 C.3     1  UNL1        0.0252
     10 C          58.0008   81.7592    7.4752 C.3     1  UNL1        0.0472
     11 C          59.5325   81.9248    7.3000 C.3     1  UNL1        0.0252
     12 C          59.9520   83.3946    7.2250 C.3     1  UNL1        0.0923
     13 C          57.6748   80.4712    8.2597 C.3     1  UNL1        0.2054
     14 O          57.7176   80.6995    9.6698 O.3     1  UNL1       -0.4755
     15 C          58.8267   80.4792   10.5034 C.ar    1  UNL1        0.1390
     16 C          60.0506   80.1780    9.8977 C.ar    1  UNL1        0.0433
     17 C          61.2006   79.9421   10.6693 C.ar    1  UNL1        0.0787
     18 C          61.1128   80.0335   12.0688 C.ar    1  UNL1        0.0131
     19 C          59.8929   80.3395   12.6962 C.ar    1  UNL1        0.0787
     20 C          58.7531   80.5610   11.9063 C.ar    1  UNL1        0.0433
     21 C          62.4995   79.6222   10.0279 C.2     1  UNL1        0.3381
     22 O          63.3453   80.5364    9.8382 O.2     1  UNL1       -0.2451
     23 O          62.8252   78.3238    9.6368 O.3     1  UNL1       -0.4771
     24 H          62.2407   77.5267    9.8524 H       1  UNL1        0.2954
     25 C          59.8062   80.4281   14.1719 C.2     1  UNL1        0.3381
     26 O          58.7874   80.0000   14.7791 O.2     1  UNL1       -0.2451
     27 O          60.8504   80.9864   14.9049 O.3     1  UNL1       -0.4771
     28 H          60.8008   81.0520   15.9147 H       1  UNL1        0.2954
     29 C          62.4594   89.0550   11.6893 C.2     1  UNL1        0.2839
     30 O          61.3721   88.8989   12.3073 O.2     1  UNL1       -0.2665
     31 N          62.6849   88.3813   10.4403 N.am    1  UNL1       -0.2766
     32 H          63.4327   88.7521    9.8112 H       1  UNL1        0.1553
     33 C          64.2472   88.6015   14.3106 C.3     1  UNL1        0.0345
     34 C          64.2724   89.7693   13.3709 C.ar    1  UNL1        0.0202
     35 C          63.4892   89.9638   12.2276 C.ar    1  UNL1        0.1946
     36 O          63.7999   91.1145   11.6573 O.2     1  UNL1       -0.4492
     37 C          64.7438   91.6765   12.3721 C.ar    1  UNL1        0.1452
     38 C          65.3684   92.8960   12.1356 C.ar    1  UNL1        0.0375
     39 C          66.3651   93.3126   13.0349 C.ar    1  UNL1        0.0031
     40 C          66.7211   92.5087   14.1514 C.ar    1  UNL1        0.0002
     41 C          66.0600   91.2737   14.3562 C.ar    1  UNL1        0.0028
     42 C          65.0753   90.8916   13.4437 C.ar    1  UNL1        0.0337
     43 C          67.7759   92.9591   15.0947 C.ar    1  UNL1        0.0000
     44 C          68.0540   94.3298   15.2561 C.ar    1  UNL1        0.0000
     45 C          69.0478   94.7510   16.1451 C.ar    1  UNL1        0.0000
     46 C          69.7729   93.8121   16.8820 C.ar    1  UNL1        0.0000
     47 C          69.5061   92.4495   16.7314 C.ar    1  UNL1        0.0000
     48 C          68.5142   92.0225   15.8432 C.ar    1  UNL1        0.0000
@<TRIPOS>BOND
     1    33    34    1
     2    34    35   ar
     3    35    29    1
     4    29    30    2
     5    29    31   am
     6    31     1    1
     7     1     2   ar
     8     2     3   ar
     9     3     4   ar
    10     4     7    1
    11     7     8    1
    12     8     9    1
    13     9    10    1
    14    10    13    1
    15    13    14    1
    16    14    15    1
    17    15    16   ar
    18    16    17   ar
    19    17    21    1
    20    21    22    2
    21    21    23    1
    22    17    18   ar
    23    18    19   ar
    24    19    25    1
    25    25    26    2
    26    25    27    1
    27    19    20   ar
    28    10    11    1
    29    11    12    1
    30     4     5   ar
    31     5     6   ar
    32    35    36   ar
    33    36    37   ar
    34    37    38   ar
    35    38    39   ar
    36    39    40   ar
    37    40    43    1
    38    43    44   ar
    39    44    45   ar
    40    45    46   ar
    41    46    47   ar
    42    47    48   ar
    43    40    41   ar
    44    41    42   ar
    45    42    34   ar
    46     6     1   ar
    47    42    37   ar
    48    12     7    1
    49    48    43   ar
    50    20    15   ar
    51    31    32    1
    52    23    24    1
    53    27    28    1
@<TRIPOS>MOLECULE
*****
 48 53 0 0 0
SMALL
GASTEIGER

@<TRIPOS>ATOM
      1 C          61.9024   87.3497    9.9587 C.ar    1  UNL1        0.0702
      2 C          61.0238   87.5694    8.8915 C.ar    1  UNL1        0.0191
      3 C          60.2472   86.5233    8.3914 C.ar    1  UNL1        0.0356
      4 C          60.3665   85.2401    8.9522 C.ar    1  UNL1        0.1318
      5 N          61.2439   85.0468    9.9770 N.ar    1  UNL1       -0.2279
      6 C          62.0065   86.0517   10.4831 C.ar    1  UNL1        0.1149
      7 N          59.5792   84.1311    8.4661 N.pl3   1  UNL1       -0.2932
      8 C          58.3618   83.7025    9.1767 C.3     1  UNL1        0.0923
      9 C          57.3957   82.9772    8.2320 C.3     1  UNL1        0.0252
     10 C          58.0577   81.7805    7.5035 C.3     1  UNL1        0.0472
     11 C          59.5746   81.9886    7.2587 C.3     1  UNL1        0.0252
     12 C          59.9557   83.4698    7.2072 C.3     1  UNL1        0.0923
     13 C          57.8008   80.4629    8.2642 C.3     1  UNL1        0.2054
     14 O          57.5940   80.7021    9.6579 O.3     1  UNL1       -0.4755
     15 C          58.5743   80.6121   10.6602 C.ar    1  UNL1        0.1390
     16 C          58.2173   80.0134   11.8725 C.ar    1  UNL1        0.0433
     17 C          59.1452   79.8929   12.9202 C.ar    1  UNL1        0.0787
     18 C          60.4546   80.3655   12.7287 C.ar    1  UNL1        0.0131
     19 C          60.8342   80.9662   11.5160 C.ar    1  UNL1        0.0787
     20 C          59.8877   81.0863   10.4856 C.ar    1  UNL1        0.0433
     21 C          58.7675   79.2581   14.2069 C.2     1  UNL1        0.3381
     22 O          58.7769   78.0026   14.3114 O.2     1  UNL1       -0.2451
     23 O          58.4127   80.0153   15.3229 O.3     1  UNL1       -0.4771
     24 H          58.4843   81.0242   15.3423 H       1  UNL1        0.2954
     25 C          62.2141   81.4678   11.3233 C.2     1  UNL1        0.3381
     26 O          63.1507   81.0626   12.0639 O.2     1  UNL1       -0.2451
     27 O          62.4915   82.3938   10.3208 O.3     1  UNL1       -0.4771
     28 H          63.4320   82.7434   10.1809 H       1  UNL1        0.2954
     29 C          62.4888   89.1013   11.7006 C.2     1  UNL1        0.2839
     30 O          61.4055   88.9371   12.3235 O.2     1  UNL1       -0.2665
     31 N          62.7121   88.4325   10.4486 N.am    1  UNL1       -0.2766
     32 H          63.4547   88.8095    9.8169 H       1  UNL1        0.1553
     33 C          64.2843   88.6558   14.3180 C.3     1  UNL1        0.0345
     34 C          64.3025   89.8235   13.3781 C.ar    1  UNL1        0.0202
     35 C          63.5160   90.0145   12.2365 C.ar    1  UNL1        0.1946
     36 O          63.8205   91.1664   11.6654 O.2     1  UNL1       -0.4492
     37 C          64.7636   91.7326   12.3780 C.ar    1  UNL1        0.1452
     38 C          65.3825   92.9547   12.1399 C.ar    1  UNL1        0.0375
     39 C          66.3795   93.3756   13.0370 C.ar    1  UNL1        0.0031
     40 C          66.7413   92.5734   14.1529 C.ar    1  UNL1        0.0002
     41 C          66.0859   91.3357   14.3593 C.ar    1  UNL1        0.0028
     42 C          65.1008   90.9492   13.4490 C.ar    1  UNL1        0.0337
     43 C          67.7962   93.0283   15.0937 C.ar    1  UNL1        0.0000
     44 C          68.5567   92.0940   15.8226 C.ar    1  UNL1        0.0000
     45 C          69.5494   92.5253   16.7078 C.ar    1  UNL1        0.0000
     46 C          69.7951   93.8898   16.8749 C.ar    1  UNL1        0.0000
     47 C          69.0481   94.8266   16.1573 C.ar    1  UNL1        0.0000
     48 C          68.0534   94.4012   15.2714 C.ar    1  UNL1        0.0000
@<TRIPOS>BOND
     1    33    34    1
     2    34    35   ar
     3    35    29    1
     4    29    30    2
     5    29    31   am
     6    31     1    1
     7     1     2   ar
     8     2     3   ar
     9     3     4   ar
    10     4     7    1
    11     7     8    1
    12     8     9    1
    13     9    10    1
    14    10    13    1
    15    13    14    1
    16    14    15    1
    17    15    16   ar
    18    16    17   ar
    19    17    21    1
    20    21    22    2
    21    21    23    1
    22    17    18   ar
    23    18    19   ar
    24    19    25    1
    25    25    26    2
    26    25    27    1
    27    19    20   ar
    28    10    11    1
    29    11    12    1
    30     4     5   ar
    31     5     6   ar
    32    35    36   ar
    33    36    37   ar
    34    37    38   ar
    35    38    39   ar
    36    39    40   ar
    37    40    43    1
    38    43    44   ar
    39    44    45   ar
    40    45    46   ar
    41    46    47   ar
    42    47    48   ar
    43    40    41   ar
    44    41    42   ar
    45    42    34   ar
    46     6     1   ar
    47    42    37   ar
    48    12     7    1
    49    48    43   ar
    50    20    15   ar
    51    31    32    1
    52    23    24    1
    53    27    28    1
@<TRIPOS>MOLECULE
*****
 48 53 0 0 0
SMALL
GASTEIGER

@<TRIPOS>ATOM
      1 C          61.0612   89.2181    9.0645 C.ar    1  UNL1        0.0702
      2 C          60.6442   87.9145    9.3576 C.ar    1  UNL1        0.0191
      3 C          60.6155   87.4641   10.6782 C.ar    1  UNL1        0.0356
      4 C          61.0279   88.3208   11.7133 C.ar    1  UNL1        0.1318
      5 N          61.4491   89.5786   11.4005 N.ar    1  UNL1       -0.2279
      6 C          61.4807   90.0400   10.1224 C.ar    1  UNL1        0.1149
      7 N          61.0108   87.8948   13.0932 N.pl3   1  UNL1       -0.2932
      8 C          62.0868   88.2925   14.0180 C.3     1  UNL1        0.0923
      9 C          61.6018   88.2727   15.4727 C.3     1  UNL1        0.0252
     10 C          61.0006   86.9050   15.8838 C.3     1  UNL1        0.0472
     11 C          60.3333   86.1598   14.6992 C.3     1  UNL1        0.0252
     12 C          59.8692   87.1174   13.5994 C.3     1  UNL1        0.0923
     13 C          62.0656   86.0168   16.5602 C.3     1  UNL1        0.2054
     14 O          63.1917   85.8159   15.7035 O.3     1  UNL1       -0.4755
     15 C          63.4156   84.6906   14.8928 C.ar    1  UNL1        0.1390
     16 C          63.4383   83.4352   15.5083 C.ar    1  UNL1        0.0433
     17 C          63.6607   82.2671   14.7603 C.ar    1  UNL1        0.0787
     18 C          63.8408   82.3718   13.3706 C.ar    1  UNL1        0.0131
     19 C          63.8169   83.6240   12.7328 C.ar    1  UNL1        0.0787
     20 C          63.6039   84.7800   13.5011 C.ar    1  UNL1        0.0433
     21 C          63.6852   80.9347   15.4122 C.2     1  UNL1        0.3381
     22 O          63.2201   79.9331   14.8057 O.2     1  UNL1       -0.2451
     23 O          64.2268   80.7492   16.6838 O.3     1  UNL1       -0.4771
     24 H          64.7100   81.4845   17.1831 H       1  UNL1        0.2954
     25 C          64.0138   83.7275   11.2687 C.2     1  UNL1        0.3381
     26 O          63.3202   84.5290   10.5856 O.2     1  UNL1       -0.2451
     27 O          64.9680   82.9391   10.6305 O.3     1  UNL1       -0.4771
     28 H          65.1102   83.0021    9.6294 H       1  UNL1        0.2954
     29 C          59.9528   90.0770    6.9479 C.2     1  UNL1        0.2839
     30 O          58.7939   89.8327    7.3791 O.2     1  UNL1       -0.2665
     31 N          61.1062   89.6605    7.6970 N.am    1  UNL1       -0.2766
     32 H          62.0200   89.5945    7.1938 H       1  UNL1        0.1553
     33 C          57.6417   91.2339    5.0523 C.3     1  UNL1        0.0345
     34 C          59.1224   91.2636    4.8201 C.ar    1  UNL1        0.0202
     35 C          60.1284   90.7564    5.6503 C.ar    1  UNL1        0.1946
     36 O          61.3136   90.9722    5.1078 O.2     1  UNL1       -0.4492
     37 C          61.1282   91.5927    3.9684 C.ar    1  UNL1        0.1452
     38 C          62.1013   92.0142    3.0690 C.ar    1  UNL1        0.0375
     39 C          61.6794   92.6681    1.8985 C.ar    1  UNL1        0.0031
     40 C          60.2987   92.8900    1.6451 C.ar    1  UNL1        0.0002
     41 C          59.3401   92.4445    2.5868 C.ar    1  UNL1        0.0028
     42 C          59.7945   91.7987    3.7378 C.ar    1  UNL1        0.0337
     43 C          59.8649   93.5823    0.4051 C.ar    1  UNL1        0.0000
     44 C          60.8043   93.9408   -0.5806 C.ar    1  UNL1        0.0000
     45 C          60.3929   94.5925   -1.7473 C.ar    1  UNL1        0.0000
     46 C          59.0432   94.8924   -1.9440 C.ar    1  UNL1        0.0000
     47 C          58.1016   94.5415   -0.9742 C.ar    1  UNL1        0.0000
     48 C          58.5073   93.8905    0.1948 C.ar    1  UNL1        0.0000
@<TRIPOS>BOND
     1    33    34    1
     2    34    35   ar
     3    35    29    1
     4    29    30    2
     5    29    31   am
     6    31     1    1
     7     1     2   ar
     8     2     3   ar
     9     3     4   ar
    10     4     7    1
    11     7     8    1
    12     8     9    1
    13     9    10    1
    14    10    13    1
    15    13    14    1
    16    14    15    1
    17    15    16   ar
    18    16    17   ar
    19    17    21    1
    20    21    22    2
    21    21    23    1
    22    17    18   ar
    23    18    19   ar
    24    19    25    1
    25    25    26    2
    26    25    27    1
    27    19    20   ar
    28    10    11    1
    29    11    12    1
    30     4     5   ar
    31     5     6   ar
    32    35    36   ar
    33    36    37   ar
    34    37    38   ar
    35    38    39   ar
    36    39    40   ar
    37    40    43    1
    38    43    44   ar
    39    44    45   ar
    40    45    46   ar
    41    46    47   ar
    42    47    48   ar
    43    40    41   ar
    44    41    42   ar
    45    42    34   ar
    46     6     1   ar
    47    42    37   ar
    48    12     7    1
    49    48    43   ar
    50    20    15   ar
    51    31    32    1
    52    23    24    1
    53    27    28    1
@<TRIPOS>MOLECULE
*****
 48 53 0 0 0
SMALL
GASTEIGER

@<TRIPOS>ATOM
      1 C          61.9977   87.2620   10.2827 C.ar    1  UNL1        0.0702
      2 C          61.1235   87.4578    9.2073 C.ar    1  UNL1        0.0191
      3 C          60.3107   86.4149    8.7611 C.ar    1  UNL1        0.0356
      4 C          60.3887   85.1578    9.3849 C.ar    1  UNL1        0.1318
      5 N          61.2624   84.9863   10.4167 N.ar    1  UNL1       -0.2279
      6 C          62.0599   85.9889   10.8709 C.ar    1  UNL1        0.1149
      7 N          59.5632   84.0532    8.9558 N.pl3   1  UNL1       -0.2932
      8 C          58.3490   83.6844    9.7046 C.3     1  UNL1        0.0923
      9 C          57.3458   82.9508    8.8061 C.3     1  UNL1        0.0252
     10 C          57.9617   81.7102    8.1113 C.3     1  UNL1        0.0472
     11 C          59.4784   81.8679    7.8306 C.3     1  UNL1        0.0252
     12 C          59.8974   83.3354    7.7161 C.3     1  UNL1        0.0923
     13 C          57.6851   80.4294    8.9259 C.3     1  UNL1        0.2054
     14 O          58.0101   80.6134   10.3054 O.3     1  UNL1       -0.4755
     15 C          59.2989   80.5486   10.8605 C.ar    1  UNL1        0.1390
     16 C          60.2498   79.7517   10.2152 C.ar    1  UNL1        0.0433
     17 C          61.5571   79.6370   10.7162 C.ar    1  UNL1        0.0787
     18 C          61.9095   80.3548   11.8718 C.ar    1  UNL1        0.0131
     19 C          60.9695   81.1646   12.5322 C.ar    1  UNL1        0.0787
     20 C          59.6650   81.2564   12.0204 C.ar    1  UNL1        0.0433
     21 C          62.5666   78.7917   10.0327 C.2     1  UNL1        0.3381
     22 O          63.3624   79.3126    9.2065 O.2     1  UNL1       -0.2451
     23 O          62.6750   77.4253   10.2891 O.3     1  UNL1       -0.4771
     24 H          62.1419   76.9626   11.0137 H       1  UNL1        0.2954
     25 C          61.3459   81.9133   13.7531 C.2     1  UNL1        0.3381
     26 O          61.2014   83.1649   13.8054 O.2     1  UNL1       -0.2451
     27 O          61.8645   81.2417   14.8574 O.3     1  UNL1       -0.4771
     28 H          62.1254   81.7446   15.6973 H       1  UNL1        0.2954
     29 C          62.5499   89.1951   11.8333 C.2     1  UNL1        0.2839
     30 O          61.3957   89.2028   12.3394 O.2     1  UNL1       -0.2665
     31 N          62.8448   88.3399   10.7168 N.am    1  UNL1       -0.2766
     32 H          63.6819   88.5665   10.1333 H       1  UNL1        0.1553
     33 C          64.3743   88.7188   14.4252 C.3     1  UNL1        0.0345
     34 C          64.3912   89.8916   13.4916 C.ar    1  UNL1        0.0202
     35 C          63.5921   90.0960   12.3611 C.ar    1  UNL1        0.1946
     36 O          63.8999   91.2482   11.7924 O.2     1  UNL1       -0.4492
     37 C          64.8570   91.8019   12.4961 C.ar    1  UNL1        0.1452
     38 C          65.4840   93.0196   12.2568 C.ar    1  UNL1        0.0375
     39 C          66.4960   93.4265   13.1434 C.ar    1  UNL1        0.0031
     40 C          66.8646   92.6149   14.2502 C.ar    1  UNL1        0.0002
     41 C          66.2006   91.3820   14.4582 C.ar    1  UNL1        0.0028
     42 C          65.2006   91.0096   13.5584 C.ar    1  UNL1        0.0337
     43 C          67.9354   93.0550   15.1801 C.ar    1  UNL1        0.0000
     44 C          68.7007   92.1096   15.8894 C.ar    1  UNL1        0.0000
     45 C          69.7085   92.5269   16.7643 C.ar    1  UNL1        0.0000
     46 C          69.9644   93.8885   16.9403 C.ar    1  UNL1        0.0000
     47 C          69.2129   94.8361   16.2422 C.ar    1  UNL1        0.0000
     48 C          68.2032   94.4247   15.3667 C.ar    1  UNL1        0.0000
@<TRIPOS>BOND
     1    33    34    1
     2    34    35   ar
     3    35    29    1
     4    29    30    2
     5    29    31   am
     6    31     1    1
     7     1     2   ar
     8     2     3   ar
     9     3     4   ar
    10     4     7    1
    11     7     8    1
    12     8     9    1
    13     9    10    1
    14    10    13    1
    15    13    14    1
    16    14    15    1
    17    15    16   ar
    18    16    17   ar
    19    17    21    1
    20    21    22    2
    21    21    23    1
    22    17    18   ar
    23    18    19   ar
    24    19    25    1
    25    25    26    2
    26    25    27    1
    27    19    20   ar
    28    10    11    1
    29    11    12    1
    30     4     5   ar
    31     5     6   ar
    32    35    36   ar
    33    36    37   ar
    34    37    38   ar
    35    38    39   ar
    36    39    40   ar
    37    40    43    1
    38    43    44   ar
    39    44    45   ar
    40    45    46   ar
    41    46    47   ar
    42    47    48   ar
    43    40    41   ar
    44    41    42   ar
    45    42    34   ar
    46     6     1   ar
    47    42    37   ar
    48    12     7    1
    49    48    43   ar
    50    20    15   ar
    51    31    32    1
    52    23    24    1
    53    27    28    1
@<TRIPOS>MOLECULE
*****
 48 53 0 0 0
SMALL
GASTEIGER

@<TRIPOS>ATOM
      1 C          61.9765   87.3083   10.2596 C.ar    1  UNL1        0.0702
      2 C          61.0341   87.5285    9.2484 C.ar    1  UNL1        0.0191
      3 C          60.2280   86.4828    8.7965 C.ar    1  UNL1        0.0356
      4 C          60.3813   85.1993    9.3485 C.ar    1  UNL1        0.1318
      5 N          61.3198   85.0055   10.3175 N.ar    1  UNL1       -0.2279
      6 C          62.1123   86.0100   10.7761 C.ar    1  UNL1        0.1149
      7 N          59.5654   84.0907    8.9112 N.pl3   1  UNL1       -0.2932
      8 C          58.3188   83.7477    9.6177 C.3     1  UNL1        0.0923
      9 C          57.3475   83.0004    8.6957 C.3     1  UNL1        0.0252
     10 C          57.9817   81.7398    8.0554 C.3     1  UNL1        0.0472
     11 C          59.5098   81.8806    7.8339 C.3     1  UNL1        0.0252
     12 C          59.9445   83.3420    7.7031 C.3     1  UNL1        0.0923
     13 C          57.6620   80.4801    8.8871 C.3     1  UNL1        0.2054
     14 O          58.0515   80.6487   10.2517 O.3     1  UNL1       -0.4755
     15 C          59.3580   80.5257   10.7534 C.ar    1  UNL1        0.1390
     16 C          59.6850   81.2418   11.9091 C.ar    1  UNL1        0.0433
     17 C          60.9733   81.1694   12.4643 C.ar    1  UNL1        0.0787
     18 C          61.9336   80.3455   11.8529 C.ar    1  UNL1        0.0131
     19 C          61.6231   79.6143   10.6934 C.ar    1  UNL1        0.0787
     20 C          60.3322   79.7097   10.1488 C.ar    1  UNL1        0.0433
     21 C          61.3216   81.9289   13.6902 C.2     1  UNL1        0.3381
     22 O          61.1315   83.1737   13.7298 O.2     1  UNL1       -0.2451
     23 O          61.8448   81.3001   14.8197 O.3     1  UNL1       -0.4771
     24 H          61.9250   80.2946   14.8958 H       1  UNL1        0.2954
     25 C          62.6417   78.7529   10.0506 C.2     1  UNL1        0.3381
     26 O          63.3501   79.1963    9.1064 O.2     1  UNL1       -0.2451
     27 O          62.8276   77.4422   10.4829 O.3     1  UNL1       -0.4771
     28 H          63.5215   76.8446   10.0496 H       1  UNL1        0.2954
     29 C          62.5385   89.2063   11.8494 C.2     1  UNL1        0.2839
     30 O          61.4009   89.1748   12.3912 O.2     1  UNL1       -0.2665
     31 N          62.8150   88.3906   10.6992 N.am    1  UNL1       -0.2766
     32 H          63.6285   88.6519   10.0970 H       1  UNL1        0.1553
     33 C          64.3660   88.7502   14.4427 C.3     1  UNL1        0.0345
     34 C          64.3789   89.9176   13.5023 C.ar    1  UNL1        0.0202
     35 C          63.5784   90.1132   12.3713 C.ar    1  UNL1        0.1946
     36 O          63.8825   91.2631   11.7958 O.2     1  UNL1       -0.4492
     37 C          64.8385   91.8235   12.4956 C.ar    1  UNL1        0.1452
     38 C          65.4619   93.0416   12.2489 C.ar    1  UNL1        0.0375
     39 C          66.4733   93.4564   13.1324 C.ar    1  UNL1        0.0031
     40 C          66.8450   92.6523   14.2436 C.ar    1  UNL1        0.0002
     41 C          66.1847   91.4187   14.4591 C.ar    1  UNL1        0.0028
     42 C          65.1851   91.0383   13.5622 C.ar    1  UNL1        0.0337
     43 C          67.9152   93.1008   15.1701 C.ar    1  UNL1        0.0000
     44 C          68.1637   94.4728   15.3663 C.ar    1  UNL1        0.0000
     45 C          69.1721   94.8922   16.2393 C.ar    1  UNL1        0.0000
     46 C          69.9415   93.9504   16.9258 C.ar    1  UNL1        0.0000
     47 C          69.7046   92.5866   16.7405 C.ar    1  UNL1        0.0000
     48 C          68.6982   92.1613   15.8679 C.ar    1  UNL1        0.0000
@<TRIPOS>BOND
     1    33    34    1
     2    34    35   ar
     3    35    29    1
     4    29    30    2
     5    29    31   am
     6    31     1    1
     7     1     2   ar
     8     2     3   ar
     9     3     4   ar
    10     4     7    1
    11     7     8    1
    12     8     9    1
    13     9    10    1
    14    10    13    1
    15    13    14    1
    16    14    15    1
    17    15    16   ar
    18    16    17   ar
    19    17    21    1
    20    21    22    2
    21    21    23    1
    22    17    18   ar
    23    18    19   ar
    24    19    25    1
    25    25    26    2
    26    25    27    1
    27    19    20   ar
    28    10    11    1
    29    11    12    1
    30     4     5   ar
    31     5     6   ar
    32    35    36   ar
    33    36    37   ar
    34    37    38   ar
    35    38    39   ar
    36    39    40   ar
    37    40    43    1
    38    43    44   ar
    39    44    45   ar
    40    45    46   ar
    41    46    47   ar
    42    47    48   ar
    43    40    41   ar
    44    41    42   ar
    45    42    34   ar
    46     6     1   ar
    47    42    37   ar
    48    12     7    1
    49    48    43   ar
    50    20    15   ar
    51    31    32    1
    52    23    24    1
    53    27    28    1
@<TRIPOS>MOLECULE
*****
 48 53 0 0 0
SMALL
GASTEIGER

@<TRIPOS>ATOM
      1 C          61.2871   89.6425    9.1890 C.ar    1  UNL1        0.0702
      2 C          61.9735   88.4945    9.6012 C.ar    1  UNL1        0.0191
      3 C          61.9619   88.1103   10.9427 C.ar    1  UNL1        0.0356
      4 C          61.2731   88.8946   11.8839 C.ar    1  UNL1        0.1318
      5 N          60.6294   90.0190   11.4612 N.ar    1  UNL1       -0.2279
      6 C          60.6233   90.4096   10.1593 C.ar    1  UNL1        0.1149
      7 N          61.2340   88.5307   13.2811 N.pl3   1  UNL1       -0.2932
      8 C          62.4792   88.3308   14.0428 C.3     1  UNL1        0.0923
      9 C          62.2521   88.5531   15.5431 C.3     1  UNL1        0.0252
     10 C          61.1117   87.6717   16.1120 C.3     1  UNL1        0.0472
     11 C          60.0077   87.3665   15.0669 C.3     1  UNL1        0.0252
     12 C          59.9379   88.4310   13.9697 C.3     1  UNL1        0.0923
     13 C          61.6730   86.3664   16.7137 C.3     1  UNL1        0.2054
     14 O          62.5555   85.7129   15.7991 O.3     1  UNL1       -0.4755
     15 C          62.2762   84.5320   15.0912 C.ar    1  UNL1        0.1390
     16 C          61.2815   84.5779   14.1092 C.ar    1  UNL1        0.0433
     17 C          60.9470   83.4344   13.3650 C.ar    1  UNL1        0.0787
     18 C          61.6432   82.2375   13.6046 C.ar    1  UNL1        0.0131
     19 C          62.6492   82.1723   14.5840 C.ar    1  UNL1        0.0787
     20 C          62.9602   83.3245   15.3241 C.ar    1  UNL1        0.0433
     21 C          59.8919   83.4817   12.3232 C.2     1  UNL1        0.3381
     22 O          59.4550   82.4095   11.8264 O.2     1  UNL1       -0.2451
     23 O          59.3502   84.6882   11.8810 O.3     1  UNL1       -0.4771
     24 H          59.5770   85.5768   12.3082 H       1  UNL1        0.2954
     25 C          63.3745   80.9060   14.8357 C.2     1  UNL1        0.3381
     26 O          63.4774   80.0370   13.9279 O.2     1  UNL1       -0.2451
     27 O          63.9509   80.6617   16.0798 O.3     1  UNL1       -0.4771
     28 H          64.4489   79.7985   16.2622 H       1  UNL1        0.2954
     29 C          60.1603   90.2019    6.9836 C.2     1  UNL1        0.2839
     30 O          59.0450   89.7576    7.3672 O.2     1  UNL1       -0.2665
     31 N          61.3265   90.0377    7.8069 N.am    1  UNL1       -0.2766
     32 H          62.2638   90.1287    7.3531 H       1  UNL1        0.1553
     33 C          57.7730   91.3645    5.1886 C.3     1  UNL1        0.0345
     34 C          59.2401   91.3664    4.8807 C.ar    1  UNL1        0.0202
     35 C          60.2794   90.8568    5.6671 C.ar    1  UNL1        0.1946
     36 O          61.4385   91.0445    5.0611 O.2     1  UNL1       -0.4492
     37 C          61.2044   91.6490    3.9220 C.ar    1  UNL1        0.1452
     38 C          62.1363   92.0397    2.9670 C.ar    1  UNL1        0.0375
     39 C          61.6649   92.6809    1.8084 C.ar    1  UNL1        0.0031
     40 C          60.2767   92.9209    1.6221 C.ar    1  UNL1        0.0002
     41 C          59.3610   92.5065    2.6190 C.ar    1  UNL1        0.0028
     42 C          59.8639   91.8726    3.7563 C.ar    1  UNL1        0.0337
     43 C          59.7904   93.5995    0.3940 C.ar    1  UNL1        0.0000
     44 C          60.7016   94.1040   -0.5535 C.ar    1  UNL1        0.0000
     45 C          60.2409   94.7425   -1.7091 C.ar    1  UNL1        0.0000
     46 C          58.8696   94.8837   -1.9326 C.ar    1  UNL1        0.0000
     47 C          57.9556   94.3870   -1.0008 C.ar    1  UNL1        0.0000
     48 C          58.4105   93.7485    0.1570 C.ar    1  UNL1        0.0000
@<TRIPOS>BOND
     1    33    34    1
     2    34    35   ar
     3    35    29    1
     4    29    30    2
     5    29    31   am
     6    31     1    1
     7     1     2   ar
     8     2     3   ar
     9     3     4   ar
    10     4     7    1
    11     7     8    1
    12     8     9    1
    13     9    10    1
    14    10    13    1
    15    13    14    1
    16    14    15    1
    17    15    16   ar
    18    16    17   ar
    19    17    21    1
    20    21    22    2
    21    21    23    1
    22    17    18   ar
    23    18    19   ar
    24    19    25    1
    25    25    26    2
    26    25    27    1
    27    19    20   ar
    28    10    11    1
    29    11    12    1
    30     4     5   ar
    31     5     6   ar
    32    35    36   ar
    33    36    37   ar
    34    37    38   ar
    35    38    39   ar
    36    39    40   ar
    37    40    43    1
    38    43    44   ar
    39    44    45   ar
    40    45    46   ar
    41    46    47   ar
    42    47    48   ar
    43    40    41   ar
    44    41    42   ar
    45    42    34   ar
    46     6     1   ar
    47    42    37   ar
    48    12     7    1
    49    48    43   ar
    50    20    15   ar
    51    31    32    1
    52    23    24    1
    53    27    28    1
@<TRIPOS>MOLECULE
*****
 48 53 0 0 0
SMALL
GASTEIGER

@<TRIPOS>ATOM
      1 C          60.7673   88.4945    8.7369 C.ar    1  UNL1        0.0702
      2 C          59.9284   87.4603    9.1678 C.ar    1  UNL1        0.0191
      3 C          60.0776   86.9179   10.4450 C.ar    1  UNL1        0.0356
      4 C          61.0899   87.4021   11.2913 C.ar    1  UNL1        0.1318
      5 N          61.9071   88.3955   10.8412 N.ar    1  UNL1       -0.2279
      6 C          61.7771   88.9418    9.6034 C.ar    1  UNL1        0.1149
      7 N          61.2761   86.8703   12.6211 N.pl3   1  UNL1       -0.2932
      8 C          62.6281   86.6911   13.1786 C.3     1  UNL1        0.0923
      9 C          62.6017   86.7098   14.7118 C.3     1  UNL1        0.0252
     10 C          61.6195   85.6686   15.3054 C.3     1  UNL1        0.0472
     11 C          60.4025   85.3951   14.3844 C.3     1  UNL1        0.0252
     12 C          60.1017   86.5738   13.4558 C.3     1  UNL1        0.0923
     13 C          62.3522   84.3552   15.6503 C.3     1  UNL1        0.2054
     14 O          61.6668   83.2234   15.1104 O.3     1  UNL1       -0.4755
     15 C          61.8382   82.7000   13.8180 C.ar    1  UNL1        0.1390
     16 C          60.7992   81.9347   13.2791 C.ar    1  UNL1        0.0433
     17 C          60.9033   81.3770   11.9941 C.ar    1  UNL1        0.0787
     18 C          62.0644   81.6158   11.2395 C.ar    1  UNL1        0.0131
     19 C          63.1178   82.3861   11.7616 C.ar    1  UNL1        0.0787
     20 C          62.9975   82.9252   13.0527 C.ar    1  UNL1        0.0433
     21 C          59.8019   80.5646   11.4214 C.2     1  UNL1        0.3381
     22 O          58.6263   81.0179   11.4193 O.2     1  UNL1       -0.2451
     23 O          60.0301   79.3066   10.8648 O.3     1  UNL1       -0.4771
     24 H          60.9593   78.9269   10.7382 H       1  UNL1        0.2954
     25 C          64.3413   82.6286   10.9634 C.2     1  UNL1        0.3381
     26 O          64.4850   82.0877    9.8335 O.2     1  UNL1       -0.2451
     27 O          65.3474   83.4573   11.4537 O.3     1  UNL1       -0.4771
     28 H          66.1884   83.6294   10.9157 H       1  UNL1        0.2954
     29 C          59.8708   90.2175    7.1018 C.2     1  UNL1        0.2839
     30 O          59.0933   90.7191    7.9576 O.2     1  UNL1       -0.2665
     31 N          60.6157   89.0280    7.4101 N.am    1  UNL1       -0.2766
     32 H          60.9999   88.4700    6.6141 H       1  UNL1        0.1553
     33 C          57.4724   91.2274    5.2309 C.3     1  UNL1        0.0345
     34 C          58.9432   91.2716    4.9446 C.ar    1  UNL1        0.0202
     35 C          59.9875   90.8286    5.7642 C.ar    1  UNL1        0.1946
     36 O          61.1485   91.0363    5.1688 O.2     1  UNL1       -0.4492
     37 C          60.9112   91.5906    4.0051 C.ar    1  UNL1        0.1452
     38 C          61.8436   91.9803    3.0502 C.ar    1  UNL1        0.0375
     39 C          61.3682   92.5619    1.8621 C.ar    1  UNL1        0.0031
     40 C          59.9754   92.7445    1.6469 C.ar    1  UNL1        0.0002
     41 C          59.0593   92.3333    2.6448 C.ar    1  UNL1        0.0028
     42 C          59.5664   91.7593    3.8117 C.ar    1  UNL1        0.0337
     43 C          59.4849   93.3603    0.3879 C.ar    1  UNL1        0.0000
     44 C          58.2288   93.0058   -0.1405 C.ar    1  UNL1        0.0000
     45 C          57.7694   93.5874   -1.3262 C.ar    1  UNL1        0.0000
     46 C          58.5552   94.5276   -1.9961 C.ar    1  UNL1        0.0000
     47 C          59.8027   94.8882   -1.4821 C.ar    1  UNL1        0.0000
     48 C          60.2676   94.3092   -0.2973 C.ar    1  UNL1        0.0000
@<TRIPOS>BOND
     1    33    34    1
     2    34    35   ar
     3    35    29    1
     4    29    30    2
     5    29    31   am
     6    31     1    1
     7     1     2   ar
     8     2     3   ar
     9     3     4   ar
    10     4     7    1
    11     7     8    1
    12     8     9    1
    13     9    10    1
    14    10    13    1
    15    13    14    1
    16    14    15    1
    17    15    16   ar
    18    16    17   ar
    19    17    21    1
    20    21    22    2
    21    21    23    1
    22    17    18   ar
    23    18    19   ar
    24    19    25    1
    25    25    26    2
    26    25    27    1
    27    19    20   ar
    28    10    11    1
    29    11    12    1
    30     4     5   ar
    31     5     6   ar
    32    35    36   ar
    33    36    37   ar
    34    37    38   ar
    35    38    39   ar
    36    39    40   ar
    37    40    43    1
    38    43    44   ar
    39    44    45   ar
    40    45    46   ar
    41    46    47   ar
    42    47    48   ar
    43    40    41   ar
    44    41    42   ar
    45    42    34   ar
    46     6     1   ar
    47    42    37   ar
    48    12     7    1
    49    48    43   ar
    50    20    15   ar
    51    31    32    1
    52    23    24    1
    53    27    28    1
