@<TRIPOS>MOLECULE
*****
 36 39 0 0 0
SMALL
GASTEIGER

@<TRIPOS>ATOM
      1 N          -9.9832  -10.2851   31.5279 N.am    1  UNL1       -0.2685
      2 C          -8.6406  -10.5994   31.1219 C.2     1  UNL1        0.2672
      3 O          -8.3772  -11.7527   30.6871 O.2     1  UNL1       -0.2682
      4 C          -7.5868   -9.5670   31.1896 C.ar    1  UNL1        0.1347
      5 C          -6.9049   -9.3007   32.3877 C.ar    1  UNL1        0.0238
      6 C          -5.8835   -8.3417   32.4020 C.ar    1  UNL1        0.0031
      7 C          -5.1807   -8.0560   33.5829 C.ar    1  UNL1        0.0001
      8 C          -4.1619   -7.0981   33.5779 C.ar    1  UNL1        0.0000
      9 C          -3.8382   -6.4211   32.3984 C.ar    1  UNL1        0.0000
     10 C          -4.5311   -6.6972   31.2159 C.ar    1  UNL1        0.0015
     11 C          -5.5548   -7.6564   31.2106 C.ar    1  UNL1        0.0192
     12 C          -6.2624   -7.9526   30.0399 C.ar    1  UNL1        0.0989
     13 N          -7.2463   -8.8888   30.0588 N.ar    1  UNL1       -0.2393
     14 C         -11.0058   -9.9383   30.5231 C.3     1  UNL1        0.1007
     15 C         -10.7694  -10.6966   29.2085 C.3     1  UNL1        0.0265
     16 C         -11.0854   -8.4277   30.3415 C.ar    1  UNL1        0.0234
     17 C         -10.1886   -7.7421   29.4946 C.ar    1  UNL1        0.0019
     18 C         -10.2178   -6.3480   29.4061 C.ar    1  UNL1        0.0295
     19 C         -11.1304   -5.6163   30.1667 C.ar    1  UNL1        0.1424
     20 F         -11.1519   -4.2632   30.0837 F       1  UNL1       -0.2041
     21 C         -12.0127   -6.2777   31.0224 C.ar    1  UNL1        0.0590
     22 C         -11.9893   -7.6727   31.1183 C.ar    1  UNL1        0.1399
     23 F         -12.8376   -8.2807   31.9845 F       1  UNL1       -0.2044
     24 C         -10.2710  -10.1177   32.9598 C.3     1  UNL1        0.1204
     25 C         -11.2143  -12.4164   33.7146 C.ar    1  UNL1       -0.0183
     26 C         -10.1689  -11.4407   33.7032 C.ar    1  UNL1       -0.0061
     27 C          -9.0272  -11.6506   34.4963 C.ar    1  UNL1       -0.0029
     28 C          -8.8670  -12.8188   35.2285 C.ar    1  UNL1       -0.0001
     29 C          -9.8478  -13.8006   35.2000 C.ar    1  UNL1        0.0061
     30 C         -11.0206  -13.6279   34.4491 C.ar    1  UNL1        0.0713
     31 C         -12.0116  -14.7329   34.4909 C.2     1  UNL1        0.3377
     32 O         -11.9861  -15.6625   33.6417 O.2     1  UNL1       -0.2451
     33 O         -12.9537  -14.7765   35.5155 O.3     1  UNL1       -0.4771
     34 H         -13.6263  -15.5320   35.5724 H       1  UNL1        0.2954
     35 C         -12.6348  -12.9108   31.6884 C.3     1  UNL1        0.0050
     36 C         -12.5333  -12.1449   33.0076 C.3     1  UNL1        0.0263
@<TRIPOS>BOND
     1    35    36    1
     2    36    25    1
     3    25    26   ar
     4    26    24    1
     5    24     1    1
     6     1     2   am
     7     2     3    2
     8     2     4    1
     9     4     5   ar
    10     5     6   ar
    11     6     7   ar
    12     7     8   ar
    13     8     9   ar
    14     9    10   ar
    15    10    11   ar
    16    11    12   ar
    17    12    13   ar
    18     1    14    1
    19    14    15    1
    20    14    16    1
    21    16    17   ar
    22    17    18   ar
    23    18    19   ar
    24    19    20    1
    25    19    21   ar
    26    21    22   ar
    27    22    23    1
    28    26    27   ar
    29    27    28   ar
    30    28    29   ar
    31    29    30   ar
    32    30    31    1
    33    31    32    2
    34    31    33    1
    35    30    25   ar
    36    13     4   ar
    37    22    16   ar
    38    11     6   ar
    39    33    34    1
@<TRIPOS>MOLECULE
*****
 36 39 0 0 0
SMALL
GASTEIGER

@<TRIPOS>ATOM
      1 N          -9.2562  -10.6427   31.4086 N.am    1  UNL1       -0.2685
      2 C         -10.1672  -11.3618   30.5605 C.2     1  UNL1        0.2672
      3 O         -10.0105  -11.3273   29.3104 O.2     1  UNL1       -0.2682
      4 C         -11.2607  -12.1563   31.1555 C.ar    1  UNL1        0.1347
      5 C         -11.1081  -13.5287   31.4095 C.ar    1  UNL1        0.0238
      6 C         -12.1543  -14.2395   32.0122 C.ar    1  UNL1        0.0031
      7 C         -12.0307  -15.6113   32.2828 C.ar    1  UNL1        0.0001
      8 C         -13.0839  -16.3041   32.8879 C.ar    1  UNL1        0.0000
      9 C         -14.2638  -15.6351   33.2266 C.ar    1  UNL1        0.0000
     10 C         -14.3986  -14.2688   32.9623 C.ar    1  UNL1        0.0015
     11 C         -13.3478  -13.5649   32.3554 C.ar    1  UNL1        0.0192
     12 C         -13.4568  -12.1966   32.0817 C.ar    1  UNL1        0.0989
     13 N         -12.4237  -11.5358   31.4977 N.ar    1  UNL1       -0.2393
     14 C          -7.9383  -11.2141   31.7437 C.3     1  UNL1        0.1007
     15 C          -7.6198  -11.0331   33.2353 C.3     1  UNL1        0.0265
     16 C          -6.8621  -10.6495   30.8249 C.ar    1  UNL1        0.0234
     17 C          -7.1965   -9.9639   29.6376 C.ar    1  UNL1        0.0019
     18 C          -6.1987   -9.5290   28.7616 C.ar    1  UNL1        0.0295
     19 C          -4.8564   -9.7799   29.0480 C.ar    1  UNL1        0.1424
     20 F          -3.8907   -9.3624   28.1928 F       1  UNL1       -0.2041
     21 C          -4.5093  -10.4719   30.2093 C.ar    1  UNL1        0.0590
     22 C          -5.5017  -10.9122   31.0909 C.ar    1  UNL1        0.1399
     23 F          -5.1312  -11.6108   32.1929 F       1  UNL1       -0.2044
     24 C          -9.7307   -9.4328   32.0956 C.3     1  UNL1        0.1204
     25 C          -8.4598   -7.3482   31.2107 C.ar    1  UNL1       -0.0183
     26 C          -9.6043   -8.2056   31.2059 C.ar    1  UNL1       -0.0061
     27 C         -10.7195   -7.8553   30.4247 C.ar    1  UNL1       -0.0029
     28 C         -10.6982   -6.7353   29.6053 C.ar    1  UNL1       -0.0001
     29 C          -9.5701   -5.9282   29.5553 C.ar    1  UNL1        0.0061
     30 C          -8.4413   -6.2157   30.3380 C.ar    1  UNL1        0.0713
     31 C          -7.2891   -5.2868   30.2185 C.2     1  UNL1        0.3377
     32 O          -6.1724   -5.6861   29.7949 O.2     1  UNL1       -0.2451
     33 O          -7.4544   -3.9390   30.5273 O.3     1  UNL1       -0.4771
     34 H          -6.6857   -3.2857   30.4344 H       1  UNL1        0.2954
     35 C          -7.1157   -6.4375   33.1425 C.3     1  UNL1        0.0050
     36 C          -7.3075   -7.6018   32.1705 C.3     1  UNL1        0.0263
@<TRIPOS>BOND
     1    35    36    1
     2    36    25    1
     3    25    26   ar
     4    26    24    1
     5    24     1    1
     6     1     2   am
     7     2     3    2
     8     2     4    1
     9     4     5   ar
    10     5     6   ar
    11     6     7   ar
    12     7     8   ar
    13     8     9   ar
    14     9    10   ar
    15    10    11   ar
    16    11    12   ar
    17    12    13   ar
    18     1    14    1
    19    14    15    1
    20    14    16    1
    21    16    17   ar
    22    17    18   ar
    23    18    19   ar
    24    19    20    1
    25    19    21   ar
    26    21    22   ar
    27    22    23    1
    28    26    27   ar
    29    27    28   ar
    30    28    29   ar
    31    29    30   ar
    32    30    31    1
    33    31    32    2
    34    31    33    1
    35    30    25   ar
    36    13     4   ar
    37    22    16   ar
    38    11     6   ar
    39    33    34    1
@<TRIPOS>MOLECULE
*****
 36 39 0 0 0
SMALL
GASTEIGER

@<TRIPOS>ATOM
      1 N          -9.3799  -10.8089   31.8483 N.am    1  UNL1       -0.2685
      2 C         -10.2891  -11.3906   30.8991 C.2     1  UNL1        0.2672
      3 O         -10.1240  -11.1753   29.6683 O.2     1  UNL1       -0.2682
      4 C         -11.3910  -12.2563   31.3656 C.ar    1  UNL1        0.1347
      5 C         -11.1885  -13.6241   31.6096 C.ar    1  UNL1        0.0238
      6 C         -12.2488  -14.4038   32.0901 C.ar    1  UNL1        0.0031
      7 C         -12.0767  -15.7729   32.3476 C.ar    1  UNL1        0.0001
      8 C         -13.1452  -16.5351   32.8300 C.ar    1  UNL1        0.0000
      9 C         -14.3887  -15.9385   33.0585 C.ar    1  UNL1        0.0000
     10 C         -14.5722  -14.5756   32.8060 C.ar    1  UNL1        0.0015
     11 C         -13.5065  -13.8025   32.3217 C.ar    1  UNL1        0.0192
     12 C         -13.6635  -12.4360   32.0625 C.ar    1  UNL1        0.0989
     13 N         -12.6153  -11.7073   31.5986 N.ar    1  UNL1       -0.2393
     14 C          -8.0674  -11.4315   32.1041 C.3     1  UNL1        0.1007
     15 C          -7.7063  -11.3685   33.5956 C.3     1  UNL1        0.0265
     16 C          -7.0024  -10.8234   31.2000 C.ar    1  UNL1        0.0234
     17 C          -6.2335   -9.7152   31.6145 C.ar    1  UNL1        0.0019
     18 C          -5.3226   -9.1144   30.7418 C.ar    1  UNL1        0.0295
     19 C          -5.1726   -9.5994   29.4422 C.ar    1  UNL1        0.1424
     20 F          -4.2928   -9.0101   28.5955 F       1  UNL1       -0.2041
     21 C          -5.9380  -10.6837   29.0106 C.ar    1  UNL1        0.0590
     22 C          -6.8531  -11.2902   29.8770 C.ar    1  UNL1        0.1399
     23 F          -7.6046  -12.3202   29.4143 F       1  UNL1       -0.2044
     24 C          -9.8522   -9.7089   32.7017 C.3     1  UNL1        0.1204
     25 C          -9.9533   -7.6079   31.1788 C.ar    1  UNL1       -0.0183
     26 C         -10.6035   -8.6634   31.8918 C.ar    1  UNL1       -0.0061
     27 C         -12.0081   -8.6912   31.9441 C.ar    1  UNL1       -0.0029
     28 C         -12.7703   -7.7571   31.2564 C.ar    1  UNL1       -0.0001
     29 C         -12.1511   -6.7632   30.5111 C.ar    1  UNL1        0.0061
     30 C         -10.7521   -6.6720   30.4503 C.ar    1  UNL1        0.0713
     31 C         -10.1877   -5.5686   29.6326 C.2     1  UNL1        0.3377
     32 O          -9.3451   -5.7965   28.7249 O.2     1  UNL1       -0.2451
     33 O         -10.6336   -4.2644   29.8316 O.3     1  UNL1       -0.4771
     34 H         -10.2747   -3.5005   29.2714 H       1  UNL1        0.2954
     35 C          -8.0309   -6.3776   32.2551 C.3     1  UNL1        0.0050
     36 C          -8.4422   -7.4472   31.2433 C.3     1  UNL1        0.0263
@<TRIPOS>BOND
     1    35    36    1
     2    36    25    1
     3    25    26   ar
     4    26    24    1
     5    24     1    1
     6     1     2   am
     7     2     3    2
     8     2     4    1
     9     4     5   ar
    10     5     6   ar
    11     6     7   ar
    12     7     8   ar
    13     8     9   ar
    14     9    10   ar
    15    10    11   ar
    16    11    12   ar
    17    12    13   ar
    18     1    14    1
    19    14    15    1
    20    14    16    1
    21    16    17   ar
    22    17    18   ar
    23    18    19   ar
    24    19    20    1
    25    19    21   ar
    26    21    22   ar
    27    22    23    1
    28    26    27   ar
    29    27    28   ar
    30    28    29   ar
    31    29    30   ar
    32    30    31    1
    33    31    32    2
    34    31    33    1
    35    30    25   ar
    36    13     4   ar
    37    22    16   ar
    38    11     6   ar
    39    33    34    1
@<TRIPOS>MOLECULE
*****
 36 39 0 0 0
SMALL
GASTEIGER

@<TRIPOS>ATOM
      1 N         -10.5766  -11.9900   32.0925 N.am    1  UNL1       -0.2685
      2 C         -11.4874  -11.2621   31.2519 C.2     1  UNL1        0.2672
      3 O         -12.3329  -11.8917   30.5609 O.2     1  UNL1       -0.2682
      4 C         -11.4475   -9.7861   31.2223 C.ar    1  UNL1        0.1347
      5 C         -10.6106   -9.0985   30.3290 C.ar    1  UNL1        0.0238
      6 C         -10.6307   -7.6978   30.3035 C.ar    1  UNL1        0.0031
      7 C          -9.8089   -6.9819   29.4190 C.ar    1  UNL1        0.0001
      8 C          -9.8447   -5.5841   29.4049 C.ar    1  UNL1        0.0000
      9 C         -10.6980   -4.8931   30.2701 C.ar    1  UNL1        0.0000
     10 C         -11.5214   -5.5952   31.1555 C.ar    1  UNL1        0.0015
     11 C         -11.4928   -6.9976   31.1773 C.ar    1  UNL1        0.0192
     12 C         -12.3083   -7.7241   32.0527 C.ar    1  UNL1        0.0989
     13 N         -12.2663   -9.0818   32.0519 N.ar    1  UNL1       -0.2393
     14 C         -11.0114  -12.4855   33.4121 C.3     1  UNL1        0.1007
     15 C          -9.8348  -12.5403   34.3978 C.3     1  UNL1        0.0265
     16 C         -11.7404  -13.8157   33.2693 C.ar    1  UNL1        0.0234
     17 C         -11.7580  -14.5150   32.0437 C.ar    1  UNL1        0.0019
     18 C         -12.5033  -15.6887   31.9045 C.ar    1  UNL1        0.0295
     19 C         -13.2500  -16.1763   32.9775 C.ar    1  UNL1        0.1424
     20 F         -13.9774  -17.3118   32.8374 F       1  UNL1       -0.2041
     21 C         -13.2574  -15.4874   34.1913 C.ar    1  UNL1        0.0590
     22 C         -12.5156  -14.3111   34.3390 C.ar    1  UNL1        0.1399
     23 F         -12.5721  -13.6490   35.5214 F       1  UNL1       -0.2044
     24 C          -9.1587  -12.0588   31.7105 C.3     1  UNL1        0.1204
     25 C          -7.6281  -10.1222   30.9038 C.ar    1  UNL1       -0.0183
     26 C          -8.4696  -10.7155   31.8962 C.ar    1  UNL1       -0.0061
     27 C          -8.5944  -10.0924   33.1502 C.ar    1  UNL1       -0.0029
     28 C          -7.9755   -8.8781   33.4128 C.ar    1  UNL1       -0.0001
     29 C          -7.2047   -8.2620   32.4367 C.ar    1  UNL1        0.0061
     30 C          -7.0226   -8.8563   31.1786 C.ar    1  UNL1        0.0713
     31 C          -6.1741   -8.1211   30.2069 C.2     1  UNL1        0.3377
     32 O          -4.9646   -7.8738   30.4556 O.2     1  UNL1       -0.2451
     33 O          -6.7038   -7.7434   28.9756 O.3     1  UNL1       -0.4771
     34 H          -6.1359   -7.2577   28.2916 H       1  UNL1        0.2954
     35 C          -5.9585  -11.5208   29.6293 C.3     1  UNL1        0.0050
     36 C          -7.3333  -10.8526   29.6026 C.3     1  UNL1        0.0263
@<TRIPOS>BOND
     1    35    36    1
     2    36    25    1
     3    25    26   ar
     4    26    24    1
     5    24     1    1
     6     1     2   am
     7     2     3    2
     8     2     4    1
     9     4     5   ar
    10     5     6   ar
    11     6     7   ar
    12     7     8   ar
    13     8     9   ar
    14     9    10   ar
    15    10    11   ar
    16    11    12   ar
    17    12    13   ar
    18     1    14    1
    19    14    15    1
    20    14    16    1
    21    16    17   ar
    22    17    18   ar
    23    18    19   ar
    24    19    20    1
    25    19    21   ar
    26    21    22   ar
    27    22    23    1
    28    26    27   ar
    29    27    28   ar
    30    28    29   ar
    31    29    30   ar
    32    30    31    1
    33    31    32    2
    34    31    33    1
    35    30    25   ar
    36    13     4   ar
    37    22    16   ar
    38    11     6   ar
    39    33    34    1
@<TRIPOS>MOLECULE
*****
 36 39 0 0 0
SMALL
GASTEIGER

@<TRIPOS>ATOM
      1 N         -10.5664  -11.5204   32.3907 N.am    1  UNL1       -0.2685
      2 C          -9.5384  -10.9151   33.1925 C.2     1  UNL1        0.2672
      3 O          -9.5326  -11.1016   34.4390 O.2     1  UNL1       -0.2682
      4 C          -8.4830  -10.1042   32.5527 C.ar    1  UNL1        0.1347
      5 C          -7.6330  -10.6532   31.5793 C.ar    1  UNL1        0.0238
      6 C          -6.6702   -9.8407   30.9662 C.ar    1  UNL1        0.0031
      7 C          -5.8087  -10.3590   29.9868 C.ar    1  UNL1        0.0001
      8 C          -4.8558   -9.5326   29.3831 C.ar    1  UNL1        0.0000
      9 C          -4.7564   -8.1876   29.7510 C.ar    1  UNL1        0.0000
     10 C          -5.6091   -7.6598   30.7252 C.ar    1  UNL1        0.0015
     11 C          -6.5683   -8.4808   31.3368 C.ar    1  UNL1        0.0192
     12 C          -7.4349   -7.9766   32.3135 C.ar    1  UNL1        0.0989
     13 N          -8.3587   -8.7901   32.8878 N.ar    1  UNL1       -0.2393
     14 C         -10.4660  -12.9369   31.9919 C.3     1  UNL1        0.1007
     15 C         -10.4069  -13.0789   30.4638 C.3     1  UNL1        0.0265
     16 C         -11.5842  -13.7519   32.6300 C.ar    1  UNL1        0.0234
     17 C         -12.7406  -14.1063   31.9031 C.ar    1  UNL1        0.0019
     18 C         -13.7954  -14.7778   32.5268 C.ar    1  UNL1        0.0295
     19 C         -13.7198  -15.0953   33.8833 C.ar    1  UNL1        0.1424
     20 F         -14.7477  -15.7410   34.4872 F       1  UNL1       -0.2041
     21 C         -12.5906  -14.7365   34.6209 C.ar    1  UNL1        0.0590
     22 C         -11.5309  -14.0629   34.0051 C.ar    1  UNL1        0.1399
     23 F         -10.4635  -13.6997   34.7591 F       1  UNL1       -0.2044
     24 C         -11.6095  -10.6635   31.8085 C.3     1  UNL1        0.1204
     25 C         -11.1456   -8.2476   30.9767 C.ar    1  UNL1       -0.0183
     26 C         -11.0198   -9.6640   30.8253 C.ar    1  UNL1       -0.0061
     27 C         -10.4162  -10.1780   29.6643 C.ar    1  UNL1       -0.0029
     28 C          -9.8769   -9.3349   28.7025 C.ar    1  UNL1       -0.0001
     29 C          -9.9391   -7.9581   28.8672 C.ar    1  UNL1        0.0061
     30 C         -10.5578   -7.3927   29.9927 C.ar    1  UNL1        0.0713
     31 C         -10.5789   -5.9101   30.0716 C.2     1  UNL1        0.3377
     32 O          -9.5743   -5.2652   30.4725 O.2     1  UNL1       -0.2451
     33 O         -11.7064   -5.2124   29.6456 O.3     1  UNL1       -0.4771
     34 H         -11.7335   -4.2001   29.6738 H       1  UNL1        0.2954
     35 C         -13.3303   -7.2017   31.6845 C.3     1  UNL1        0.0050
     36 C         -11.9425   -7.6611   32.1319 C.3     1  UNL1        0.0263
@<TRIPOS>BOND
     1    35    36    1
     2    36    25    1
     3    25    26   ar
     4    26    24    1
     5    24     1    1
     6     1     2   am
     7     2     3    2
     8     2     4    1
     9     4     5   ar
    10     5     6   ar
    11     6     7   ar
    12     7     8   ar
    13     8     9   ar
    14     9    10   ar
    15    10    11   ar
    16    11    12   ar
    17    12    13   ar
    18     1    14    1
    19    14    15    1
    20    14    16    1
    21    16    17   ar
    22    17    18   ar
    23    18    19   ar
    24    19    20    1
    25    19    21   ar
    26    21    22   ar
    27    22    23    1
    28    26    27   ar
    29    27    28   ar
    30    28    29   ar
    31    29    30   ar
    32    30    31    1
    33    31    32    2
    34    31    33    1
    35    30    25   ar
    36    13     4   ar
    37    22    16   ar
    38    11     6   ar
    39    33    34    1
@<TRIPOS>MOLECULE
*****
 36 39 0 0 0
SMALL
GASTEIGER

@<TRIPOS>ATOM
      1 N          -7.5478  -10.3167   31.6055 N.am    1  UNL1       -0.2685
      2 C          -8.7026  -11.0360   31.1419 C.2     1  UNL1        0.2672
      3 O          -9.0280  -10.9708   29.9260 O.2     1  UNL1       -0.2682
      4 C          -9.4830  -11.8662   32.0814 C.ar    1  UNL1        0.1347
      5 C         -10.5623  -12.6474   31.6385 C.ar    1  UNL1        0.0238
      6 C         -11.2527  -13.4529   32.5537 C.ar    1  UNL1        0.0031
      7 C         -12.3331  -14.2482   32.1410 C.ar    1  UNL1        0.0001
      8 C         -13.0086  -15.0485   33.0676 C.ar    1  UNL1        0.0000
      9 C         -12.6118  -15.0611   34.4081 C.ar    1  UNL1        0.0000
     10 C         -11.5370  -14.2734   34.8311 C.ar    1  UNL1        0.0015
     11 C         -10.8530  -13.4670   33.9091 C.ar    1  UNL1        0.0192
     12 C          -9.7728  -12.6706   34.3066 C.ar    1  UNL1        0.0989
     13 N          -9.1232  -11.9018   33.3944 N.ar    1  UNL1       -0.2393
     14 C          -6.1942  -10.8674   31.4048 C.3     1  UNL1        0.1007
     15 C          -5.2736  -10.5164   32.5830 C.3     1  UNL1        0.0265
     16 C          -5.6365  -10.4346   30.0545 C.ar    1  UNL1        0.0234
     17 C          -5.0045   -9.1839   29.8884 C.ar    1  UNL1        0.0019
     18 C          -4.5767   -8.7646   28.6260 C.ar    1  UNL1        0.0295
     19 C          -4.7819   -9.5774   27.5106 C.ar    1  UNL1        0.1424
     20 F          -4.3717   -9.1650   26.2860 F       1  UNL1       -0.2041
     21 C          -5.4210  -10.8098   27.6548 C.ar    1  UNL1        0.0590
     22 C          -5.8538  -11.2366   28.9143 C.ar    1  UNL1        0.1399
     23 F          -6.5010  -12.4245   29.0130 F       1  UNL1       -0.2044
     24 C          -7.7427   -9.1323   32.4544 C.3     1  UNL1        0.1204
     25 C          -9.4360   -7.4267   31.4708 C.ar    1  UNL1       -0.0183
     26 C          -8.0983   -7.9086   31.6240 C.ar    1  UNL1       -0.0061
     27 C          -7.0624   -7.2978   30.8957 C.ar    1  UNL1       -0.0029
     28 C          -7.3054   -6.1928   30.0917 C.ar    1  UNL1       -0.0001
     29 C          -8.5898   -5.6781   29.9821 C.ar    1  UNL1        0.0061
     30 C          -9.6650   -6.2688   30.6636 C.ar    1  UNL1        0.0713
     31 C         -11.0004   -5.6480   30.4743 C.2     1  UNL1        0.3377
     32 O         -11.3589   -4.6537   31.1589 O.2     1  UNL1       -0.2451
     33 O         -11.8542   -6.1350   29.4877 O.3     1  UNL1       -0.4771
     34 H         -12.7617   -5.7133   29.3302 H       1  UNL1        0.2954
     35 C         -11.4518   -8.8875   31.0584 C.3     1  UNL1        0.0050
     36 C         -10.6025   -8.1677   32.1061 C.3     1  UNL1        0.0263
@<TRIPOS>BOND
     1    35    36    1
     2    36    25    1
     3    25    26   ar
     4    26    24    1
     5    24     1    1
     6     1     2   am
     7     2     3    2
     8     2     4    1
     9     4     5   ar
    10     5     6   ar
    11     6     7   ar
    12     7     8   ar
    13     8     9   ar
    14     9    10   ar
    15    10    11   ar
    16    11    12   ar
    17    12    13   ar
    18     1    14    1
    19    14    15    1
    20    14    16    1
    21    16    17   ar
    22    17    18   ar
    23    18    19   ar
    24    19    20    1
    25    19    21   ar
    26    21    22   ar
    27    22    23    1
    28    26    27   ar
    29    27    28   ar
    30    28    29   ar
    31    29    30   ar
    32    30    31    1
    33    31    32    2
    34    31    33    1
    35    30    25   ar
    36    13     4   ar
    37    22    16   ar
    38    11     6   ar
    39    33    34    1
@<TRIPOS>MOLECULE
*****
 36 39 0 0 0
SMALL
GASTEIGER

@<TRIPOS>ATOM
      1 N         -10.5736   -9.4710   31.6190 N.am    1  UNL1       -0.2685
      2 C         -10.0226  -10.0625   30.4305 C.2     1  UNL1        0.2672
      3 O         -10.7898  -10.3838   29.4836 O.2     1  UNL1       -0.2682
      4 C          -8.5645  -10.2651   30.3132 C.ar    1  UNL1        0.1347
      5 C          -7.8182   -9.6203   29.3138 C.ar    1  UNL1        0.0238
      6 C          -6.4306   -9.8064   29.2601 C.ar    1  UNL1        0.0031
      7 C          -5.6567   -9.1723   28.2757 C.ar    1  UNL1        0.0001
      8 C          -4.2724   -9.3669   28.2393 C.ar    1  UNL1        0.0000
      9 C          -3.6527  -10.1926   29.1819 C.ar    1  UNL1        0.0000
     10 C          -4.4130  -10.8294   30.1674 C.ar    1  UNL1        0.0015
     11 C          -5.8024  -10.6406   30.2123 C.ar    1  UNL1        0.0192
     12 C          -6.5860  -11.2651   31.1896 C.ar    1  UNL1        0.0989
     13 N          -7.9289  -11.0630   31.2155 N.ar    1  UNL1       -0.2393
     14 C         -10.9118   -8.0356   31.6514 C.3     1  UNL1        0.1007
     15 C         -12.1786   -7.7469   30.8323 C.3     1  UNL1        0.0265
     16 C          -9.7144   -7.1951   31.2258 C.ar    1  UNL1        0.0234
     17 C          -9.7938   -6.3046   30.1340 C.ar    1  UNL1        0.0019
     18 C          -8.6635   -5.6063   29.7013 C.ar    1  UNL1        0.0295
     19 C          -7.4372   -5.7926   30.3402 C.ar    1  UNL1        0.1424
     20 F          -6.3408   -5.1186   29.9139 F       1  UNL1       -0.2041
     21 C          -7.3376   -6.6828   31.4106 C.ar    1  UNL1        0.0590
     22 C          -8.4634   -7.3869   31.8493 C.ar    1  UNL1        0.1399
     23 F          -8.3236   -8.2688   32.8704 F       1  UNL1       -0.2044
     24 C         -10.6072  -10.2637   32.8566 C.3     1  UNL1        0.1204
     25 C         -11.3972  -12.6658   33.4479 C.ar    1  UNL1       -0.0183
     26 C         -11.5676  -11.4370   32.7365 C.ar    1  UNL1       -0.0061
     27 C         -12.6082  -11.3276   31.7975 C.ar    1  UNL1       -0.0029
     28 C         -13.5129  -12.3625   31.6052 C.ar    1  UNL1       -0.0001
     29 C         -13.3941  -13.5380   32.3337 C.ar    1  UNL1        0.0061
     30 C         -12.3555  -13.7106   33.2615 C.ar    1  UNL1        0.0713
     31 C         -12.3111  -15.0071   33.9838 C.2     1  UNL1        0.3377
     32 O         -12.5609  -15.0744   35.2163 O.2     1  UNL1       -0.2451
     33 O         -12.0424  -16.1794   33.2817 O.3     1  UNL1       -0.4771
     34 H         -12.0262  -17.0761   33.7528 H       1  UNL1        0.2954
     35 C          -9.1179  -11.8103   34.1116 C.3     1  UNL1        0.0050
     36 C         -10.1851  -12.8806   34.3412 C.3     1  UNL1        0.0263
@<TRIPOS>BOND
     1    35    36    1
     2    36    25    1
     3    25    26   ar
     4    26    24    1
     5    24     1    1
     6     1     2   am
     7     2     3    2
     8     2     4    1
     9     4     5   ar
    10     5     6   ar
    11     6     7   ar
    12     7     8   ar
    13     8     9   ar
    14     9    10   ar
    15    10    11   ar
    16    11    12   ar
    17    12    13   ar
    18     1    14    1
    19    14    15    1
    20    14    16    1
    21    16    17   ar
    22    17    18   ar
    23    18    19   ar
    24    19    20    1
    25    19    21   ar
    26    21    22   ar
    27    22    23    1
    28    26    27   ar
    29    27    28   ar
    30    28    29   ar
    31    29    30   ar
    32    30    31    1
    33    31    32    2
    34    31    33    1
    35    30    25   ar
    36    13     4   ar
    37    22    16   ar
    38    11     6   ar
    39    33    34    1
@<TRIPOS>MOLECULE
*****
 36 39 0 0 0
SMALL
GASTEIGER

@<TRIPOS>ATOM
      1 N         -10.5132  -10.7312   31.1968 N.am    1  UNL1       -0.2685
      2 C          -9.5412  -11.6742   30.7152 C.2     1  UNL1        0.2672
      3 O          -9.9067  -12.8403   30.4071 O.2     1  UNL1       -0.2682
      4 C          -8.1304  -11.2667   30.5581 C.ar    1  UNL1        0.1347
      5 C          -7.6533  -10.7494   29.3431 C.ar    1  UNL1        0.0238
      6 C          -6.3181  -10.3364   29.2456 C.ar    1  UNL1        0.0031
      7 C          -5.8126   -9.8113   28.0461 C.ar    1  UNL1        0.0001
      8 C          -4.4780   -9.4009   27.9680 C.ar    1  UNL1        0.0000
      9 C          -3.6415   -9.5108   29.0826 C.ar    1  UNL1        0.0000
     10 C          -4.1337  -10.0319   30.2830 C.ar    1  UNL1        0.0015
     11 C          -5.4710  -10.4466   30.3714 C.ar    1  UNL1        0.0192
     12 C          -5.9887  -10.9701   31.5618 C.ar    1  UNL1        0.0989
     13 N          -7.2882  -11.3603   31.6243 N.ar    1  UNL1       -0.2393
     14 C         -11.3855  -10.0089   30.2517 C.3     1  UNL1        0.1007
     15 C         -11.4013  -10.6953   28.8779 C.3     1  UNL1        0.0265
     16 C         -10.9978   -8.5368   30.1855 C.ar    1  UNL1        0.0234
     17 C          -9.7414   -8.1306   29.6878 C.ar    1  UNL1        0.0019
     18 C          -9.3664   -6.7848   29.7148 C.ar    1  UNL1        0.0295
     19 C         -10.2300   -5.8270   30.2473 C.ar    1  UNL1        0.1424
     20 F          -9.8606   -4.5229   30.2782 F       1  UNL1       -0.2041
     21 C         -11.4692   -6.2143   30.7596 C.ar    1  UNL1        0.0590
     22 C         -11.8519   -7.5592   30.7380 C.ar    1  UNL1        0.1399
     23 F         -13.0488   -7.9049   31.2745 F       1  UNL1       -0.2044
     24 C         -10.4893  -10.3492   32.6162 C.3     1  UNL1        0.1204
     25 C         -11.4244  -12.5323   33.6666 C.ar    1  UNL1       -0.0183
     26 C         -10.3770  -11.5703   33.5161 C.ar    1  UNL1       -0.0061
     27 C          -9.2219  -11.6854   34.3091 C.ar    1  UNL1       -0.0029
     28 C          -9.0514  -12.7546   35.1777 C.ar    1  UNL1       -0.0001
     29 C         -10.0349  -13.7278   35.2882 C.ar    1  UNL1        0.0061
     30 C         -11.2205  -13.6443   34.5422 C.ar    1  UNL1        0.0713
     31 C         -12.2132  -14.7310   34.7380 C.2     1  UNL1        0.3377
     32 O         -13.0828  -14.6623   35.6462 O.2     1  UNL1       -0.2451
     33 O         -12.2221  -15.8217   33.8721 O.3     1  UNL1       -0.4771
     34 H         -12.9031  -16.5643   33.9774 H       1  UNL1        0.2954
     35 C         -12.8973  -13.2935   31.7642 C.3     1  UNL1        0.0050
     36 C         -12.7552  -12.3446   32.9544 C.3     1  UNL1        0.0263
@<TRIPOS>BOND
     1    35    36    1
     2    36    25    1
     3    25    26   ar
     4    26    24    1
     5    24     1    1
     6     1     2   am
     7     2     3    2
     8     2     4    1
     9     4     5   ar
    10     5     6   ar
    11     6     7   ar
    12     7     8   ar
    13     8     9   ar
    14     9    10   ar
    15    10    11   ar
    16    11    12   ar
    17    12    13   ar
    18     1    14    1
    19    14    15    1
    20    14    16    1
    21    16    17   ar
    22    17    18   ar
    23    18    19   ar
    24    19    20    1
    25    19    21   ar
    26    21    22   ar
    27    22    23    1
    28    26    27   ar
    29    27    28   ar
    30    28    29   ar
    31    29    30   ar
    32    30    31    1
    33    31    32    2
    34    31    33    1
    35    30    25   ar
    36    13     4   ar
    37    22    16   ar
    38    11     6   ar
    39    33    34    1
@<TRIPOS>MOLECULE
*****
 36 39 0 0 0
SMALL
GASTEIGER

@<TRIPOS>ATOM
      1 N         -10.2385  -11.7882   31.9590 N.am    1  UNL1       -0.2685
      2 C         -10.8554  -11.2886   30.7607 C.2     1  UNL1        0.2672
      3 O         -11.5369  -12.0677   30.0417 O.2     1  UNL1       -0.2682
      4 C         -10.7118   -9.8654   30.3933 C.ar    1  UNL1        0.1347
      5 C         -11.2568   -8.8486   31.1936 C.ar    1  UNL1        0.0238
      6 C         -11.0647   -7.5085   30.8328 C.ar    1  UNL1        0.0031
      7 C         -11.5934   -6.4695   31.6145 C.ar    1  UNL1        0.0001
      8 C         -11.3890   -5.1375   31.2409 C.ar    1  UNL1        0.0000
      9 C         -10.6577   -4.8340   30.0888 C.ar    1  UNL1        0.0000
     10 C         -10.1259   -5.8603   29.3022 C.ar    1  UNL1        0.0015
     11 C         -10.3256   -7.1998   29.6685 C.ar    1  UNL1        0.0192
     12 C          -9.8025   -8.2456   28.8994 C.ar    1  UNL1        0.0989
     13 N         -10.0051   -9.5345   29.2771 N.ar    1  UNL1       -0.2393
     14 C         -11.0264  -11.9428   33.1963 C.3     1  UNL1        0.1007
     15 C         -10.1313  -11.8339   34.4397 C.3     1  UNL1        0.0265
     16 C         -11.8430  -13.2283   33.1523 C.ar    1  UNL1        0.0234
     17 C         -11.3228  -14.4453   33.6420 C.ar    1  UNL1        0.0019
     18 C         -12.0489  -15.6322   33.5150 C.ar    1  UNL1        0.0295
     19 C         -13.2960  -15.6275   32.8894 C.ar    1  UNL1        0.1424
     20 F         -13.9953  -16.7820   32.7617 F       1  UNL1       -0.2041
     21 C         -13.8174  -14.4356   32.3839 C.ar    1  UNL1        0.0590
     22 C         -13.0967  -13.2432   32.5054 C.ar    1  UNL1        0.1399
     23 F         -13.6179  -12.1096   31.9733 F       1  UNL1       -0.2044
     24 C          -8.7778  -11.9509   31.9908 C.3     1  UNL1        0.1204
     25 C          -7.2628  -10.1553   30.8845 C.ar    1  UNL1       -0.0183
     26 C          -8.0704  -10.6045   31.9758 C.ar    1  UNL1       -0.0061
     27 C          -8.1411   -9.8237   33.1427 C.ar    1  UNL1       -0.0029
     28 C          -7.5019   -8.5943   33.2233 C.ar    1  UNL1       -0.0001
     29 C          -6.7642   -8.1193   32.1478 C.ar    1  UNL1        0.0061
     30 C          -6.6362   -8.8728   30.9709 C.ar    1  UNL1        0.0713
     31 C          -5.8195   -8.2803   29.8815 C.2     1  UNL1        0.3377
     32 O          -4.6244   -7.9353   30.0780 O.2     1  UNL1       -0.2451
     33 O          -6.3612   -8.1512   28.6051 O.3     1  UNL1       -0.4771
     34 H          -5.8142   -7.7668   27.8440 H       1  UNL1        0.2954
     35 C          -5.6007  -11.6062   29.6596 C.3     1  UNL1        0.0050
     36 C          -7.0250  -11.0508   29.6783 C.3     1  UNL1        0.0263
@<TRIPOS>BOND
     1    35    36    1
     2    36    25    1
     3    25    26   ar
     4    26    24    1
     5    24     1    1
     6     1     2   am
     7     2     3    2
     8     2     4    1
     9     4     5   ar
    10     5     6   ar
    11     6     7   ar
    12     7     8   ar
    13     8     9   ar
    14     9    10   ar
    15    10    11   ar
    16    11    12   ar
    17    12    13   ar
    18     1    14    1
    19    14    15    1
    20    14    16    1
    21    16    17   ar
    22    17    18   ar
    23    18    19   ar
    24    19    20    1
    25    19    21   ar
    26    21    22   ar
    27    22    23    1
    28    26    27   ar
    29    27    28   ar
    30    28    29   ar
    31    29    30   ar
    32    30    31    1
    33    31    32    2
    34    31    33    1
    35    30    25   ar
    36    13     4   ar
    37    22    16   ar
    38    11     6   ar
    39    33    34    1
