@<TRIPOS>MOLECULE
*****
 37 41 0 0 0
SMALL
GASTEIGER

@<TRIPOS>ATOM
      1 C          50.0253   11.7254  -21.9302 C.2     1  UNL1        0.2491
      2 O          51.1568   12.0122  -22.4066 O.2     1  UNL1       -0.2699
      3 N          48.9295   11.4078  -22.8127 N.am    1  UNL1       -0.2680
      4 C          47.8659   10.4963  -22.3752 C.3     1  UNL1        0.1412
      5 C          46.6394   11.2944  -21.9370 C.3     1  UNL1        0.2269
      6 O          46.4202   12.4261  -22.7780 O.3     1  UNL1       -0.4716
      7 C          46.4352   12.3378  -24.1719 C.ar    1  UNL1        0.1634
      8 C          45.2500   12.5889  -24.8708 C.ar    1  UNL1        0.1735
      9 F          44.1205   12.9153  -24.1942 F       1  UNL1       -0.2010
     10 C          45.2125   12.4807  -26.2613 C.ar    1  UNL1        0.0328
     11 C          46.3675   12.1345  -26.9802 C.ar    1  UNL1        0.0022
     12 C          47.5646   11.9092  -26.2786 C.ar    1  UNL1        0.0005
     13 C          47.6143   12.0004  -24.8766 C.ar    1  UNL1        0.0339
     14 C          48.9720   11.8968  -24.2008 C.3     1  UNL1        0.1236
     15 C          46.3299   12.0236  -28.4605 C.ar    1  UNL1        0.0016
     16 C          46.5926   10.7782  -29.0975 C.ar    1  UNL1        0.0016
     17 C          46.5596   10.6639  -30.5000 C.ar    1  UNL1        0.0206
     18 C          46.2625   11.8057  -31.2363 C.ar    1  UNL1        0.0985
     19 N          46.1800   11.9252  -32.5735 N.ar    1  UNL1       -0.2241
     20 C          45.8689   13.2379  -32.7406 C.ar    1  UNL1        0.1750
     21 N          45.7587   13.9199  -31.5752 N.ar    1  UNL1       -0.3349
     22 C          46.0094   13.0000  -30.6365 C.ar    1  UNL1        0.0757
     23 C          46.0312   13.1584  -29.2537 C.ar    1  UNL1        0.0185
     24 H          45.5304   14.9302  -31.4438 H       1  UNL1        0.1675
     25 C          49.7589   12.9427  -19.7368 C.ar    1  UNL1       -0.0165
     26 C          49.6015   12.8888  -18.3411 C.ar    1  UNL1        0.0142
     27 C          49.5268   11.6589  -17.6761 C.ar    1  UNL1        0.1054
     28 C          49.6137   10.4695  -18.4072 C.ar    1  UNL1        0.0185
     29 C          49.7840   10.5070  -19.7917 C.ar    1  UNL1        0.0055
     30 C          49.8507   11.7336  -20.4669 C.ar    1  UNL1        0.0497
     31 S          49.3012   11.6130  -15.9309 S.O2    1  UNL1        0.0104
     32 C          49.2448   13.2746  -15.3007 C.3     1  UNL1        0.1816
     33 O          48.0167   10.9066  -15.5985 O.2     1  UNL1       -0.1686
     34 O          50.4399   10.8693  -15.2909 O.2     1  UNL1       -0.1686
     35 C          49.9097   14.2922  -20.4022 C.3     1  UNL1        0.0265
     36 C          48.9978   15.3923  -22.4801 C.3     1  UNL1        0.0004
     37 C          48.6486   14.6459  -21.1962 C.3     1  UNL1        0.0047
@<TRIPOS>BOND
     1    36    37    1
     2    37    35    1
     3    35    25    1
     4    25    26   ar
     5    26    27   ar
     6    27    31    1
     7    31    32    1
     8    31    33    2
     9    31    34    2
    10    27    28   ar
    11    28    29   ar
    12    29    30   ar
    13    30     1    1
    14     1     2    2
    15     1     3   am
    16     3     4    1
    17     4     5    1
    18     5     6    1
    19     6     7    1
    20     7     8   ar
    21     8     9    1
    22     8    10   ar
    23    10    11   ar
    24    11    15    1
    25    15    16   ar
    26    16    17   ar
    27    17    18   ar
    28    18    19   ar
    29    19    20   ar
    30    20    21   ar
    31    21    22   ar
    32    22    23   ar
    33    11    12   ar
    34    12    13   ar
    35    13    14    1
    36    30    25   ar
    37    14     3    1
    38    13     7   ar
    39    23    15   ar
    40    22    18   ar
    41    21    24    1
@<TRIPOS>MOLECULE
*****
 37 41 0 0 0
SMALL
GASTEIGER

@<TRIPOS>ATOM
      1 C          48.7831    9.5269  -21.3528 C.2     1  UNL1        0.2491
      2 O          48.3876    8.3311  -21.2982 O.2     1  UNL1       -0.2699
      3 N          49.2080   10.0904  -22.6107 N.am    1  UNL1       -0.2680
      4 C          49.0581   11.5274  -22.8674 C.3     1  UNL1        0.1412
      5 C          50.3932   12.2392  -22.6570 C.3     1  UNL1        0.2269
      6 O          51.4872   11.4566  -23.1331 O.3     1  UNL1       -0.4716
      7 C          51.4839   10.8519  -24.3922 C.ar    1  UNL1        0.1634
      8 C          52.4131   11.2840  -25.3442 C.ar    1  UNL1        0.1735
      9 F          53.2952   12.2665  -25.0330 F       1  UNL1       -0.2010
     10 C          52.4238   10.7295  -26.6245 C.ar    1  UNL1        0.0328
     11 C          51.5133    9.7187  -26.9705 C.ar    1  UNL1        0.0022
     12 C          50.5980    9.2663  -26.0041 C.ar    1  UNL1        0.0005
     13 C          50.5658    9.8254  -24.7146 C.ar    1  UNL1        0.0339
     14 C          49.6580    9.1824  -23.6787 C.3     1  UNL1        0.1236
     15 C          51.5268    9.1245  -28.3313 C.ar    1  UNL1        0.0016
     16 C          52.6534    9.2989  -29.1834 C.ar    1  UNL1        0.0016
     17 C          52.6748    8.7396  -30.4749 C.ar    1  UNL1        0.0206
     18 C          51.5614    8.0146  -30.8855 C.ar    1  UNL1        0.0985
     19 N          51.3675    7.4013  -32.0668 N.ar    1  UNL1       -0.2241
     20 C          50.1286    6.8599  -31.9262 C.ar    1  UNL1        0.1750
     21 N          49.5617    7.1129  -30.7220 N.ar    1  UNL1       -0.3349
     22 C          50.4804    7.8420  -30.0781 C.ar    1  UNL1        0.0757
     23 C          50.4166    8.3768  -28.7945 C.ar    1  UNL1        0.0185
     24 H          48.6239    6.8076  -30.3790 H       1  UNL1        0.1675
     25 C          47.6658   11.0143  -19.6488 C.ar    1  UNL1       -0.0165
     26 C          47.7529   11.7628  -18.4623 C.ar    1  UNL1        0.0142
     27 C          48.9498   11.8192  -17.7379 C.ar    1  UNL1        0.1054
     28 C          50.0734   11.1266  -18.2008 C.ar    1  UNL1        0.0185
     29 C          50.0062   10.3904  -19.3845 C.ar    1  UNL1        0.0055
     30 C          48.8098   10.3209  -20.1115 C.ar    1  UNL1        0.0497
     31 S          49.0302   12.7394  -16.2393 S.O2    1  UNL1        0.0104
     32 C          50.7242   12.8601  -15.7129 C.3     1  UNL1        0.1816
     33 O          48.4722   14.1185  -16.4541 O.2     1  UNL1       -0.1686
     34 O          48.2197   12.0515  -15.1767 O.2     1  UNL1       -0.1686
     35 C          46.3753   11.0434  -20.4365 C.3     1  UNL1        0.0265
     36 C          44.2713   11.7952  -19.2671 C.3     1  UNL1        0.0004
     37 C          45.5182   12.2437  -20.0231 C.3     1  UNL1        0.0047
@<TRIPOS>BOND
     1    36    37    1
     2    37    35    1
     3    35    25    1
     4    25    26   ar
     5    26    27   ar
     6    27    31    1
     7    31    32    1
     8    31    33    2
     9    31    34    2
    10    27    28   ar
    11    28    29   ar
    12    29    30   ar
    13    30     1    1
    14     1     2    2
    15     1     3   am
    16     3     4    1
    17     4     5    1
    18     5     6    1
    19     6     7    1
    20     7     8   ar
    21     8     9    1
    22     8    10   ar
    23    10    11   ar
    24    11    15    1
    25    15    16   ar
    26    16    17   ar
    27    17    18   ar
    28    18    19   ar
    29    19    20   ar
    30    20    21   ar
    31    21    22   ar
    32    22    23   ar
    33    11    12   ar
    34    12    13   ar
    35    13    14    1
    36    30    25   ar
    37    14     3    1
    38    13     7   ar
    39    23    15   ar
    40    22    18   ar
    41    21    24    1
@<TRIPOS>MOLECULE
*****
 37 41 0 0 0
SMALL
GASTEIGER

@<TRIPOS>ATOM
      1 C          45.9436   12.0165  -25.9739 C.2     1  UNL1        0.2491
      2 O          44.8647   11.6323  -25.4468 O.2     1  UNL1       -0.2699
      3 N          47.1312   12.1579  -25.1676 N.am    1  UNL1       -0.2680
      4 C          48.4586   11.9678  -25.7637 C.3     1  UNL1        0.1412
      5 C          49.0957   13.3227  -26.0669 C.3     1  UNL1        0.2269
      6 O          48.8126   14.2774  -25.0450 O.3     1  UNL1       -0.4716
      7 C          48.9704   13.9905  -23.6871 C.ar    1  UNL1        0.1634
      8 C          49.9422   14.6901  -22.9642 C.ar    1  UNL1        0.1735
      9 F          50.7026   15.6279  -23.5827 F       1  UNL1       -0.2010
     10 C          50.1550   14.4127  -21.6135 C.ar    1  UNL1        0.0328
     11 C          49.3860   13.4393  -20.9566 C.ar    1  UNL1        0.0022
     12 C          48.3911   12.7563  -21.6775 C.ar    1  UNL1        0.0005
     13 C          48.1749   13.0147  -23.0424 C.ar    1  UNL1        0.0339
     14 C          46.9837   12.3527  -23.7158 C.3     1  UNL1        0.1236
     15 C          49.6085   13.1465  -19.5179 C.ar    1  UNL1        0.0016
     16 C          48.5034   12.9738  -18.6376 C.ar    1  UNL1        0.0016
     17 C          48.7049   12.6963  -17.2724 C.ar    1  UNL1        0.0206
     18 C          50.0154   12.5976  -16.8178 C.ar    1  UNL1        0.0985
     19 N          50.4360   12.3441  -15.5656 N.ar    1  UNL1       -0.2241
     20 C          51.7893   12.3643  -15.6918 C.ar    1  UNL1        0.1750
     21 N          52.2107   12.6168  -16.9544 N.ar    1  UNL1       -0.3349
     22 C          51.0778   12.7604  -17.6515 C.ar    1  UNL1        0.0757
     23 C          50.9251   13.0356  -19.0075 C.ar    1  UNL1        0.0185
     24 H          53.1938   12.6830  -17.3001 H       1  UNL1        0.1675
     25 C          45.8366   13.6510  -27.8925 C.ar    1  UNL1       -0.0165
     26 C          45.8472   13.8829  -29.2788 C.ar    1  UNL1        0.0142
     27 C          45.9834   12.8211  -30.1812 C.ar    1  UNL1        0.1054
     28 C          46.1066   11.5137  -29.6994 C.ar    1  UNL1        0.0185
     29 C          46.0839   11.2662  -28.3262 C.ar    1  UNL1        0.0055
     30 C          45.9570   12.3239  -27.4152 C.ar    1  UNL1        0.0497
     31 S          46.0226   13.1358  -31.9128 S.O2    1  UNL1        0.0104
     32 C          44.5300   12.5197  -32.6570 C.3     1  UNL1        0.1816
     33 O          46.1346   14.6137  -32.1627 O.2     1  UNL1       -0.1686
     34 O          47.2118   12.4515  -32.5266 O.2     1  UNL1       -0.1686
     35 C          45.6121   14.8193  -26.9592 C.3     1  UNL1        0.0265
     36 C          47.3586   16.6127  -27.2647 C.3     1  UNL1        0.0004
     37 C          45.9614   16.1391  -27.6536 C.3     1  UNL1        0.0047
@<TRIPOS>BOND
     1    36    37    1
     2    37    35    1
     3    35    25    1
     4    25    26   ar
     5    26    27   ar
     6    27    31    1
     7    31    32    1
     8    31    33    2
     9    31    34    2
    10    27    28   ar
    11    28    29   ar
    12    29    30   ar
    13    30     1    1
    14     1     2    2
    15     1     3   am
    16     3     4    1
    17     4     5    1
    18     5     6    1
    19     6     7    1
    20     7     8   ar
    21     8     9    1
    22     8    10   ar
    23    10    11   ar
    24    11    15    1
    25    15    16   ar
    26    16    17   ar
    27    17    18   ar
    28    18    19   ar
    29    19    20   ar
    30    20    21   ar
    31    21    22   ar
    32    22    23   ar
    33    11    12   ar
    34    12    13   ar
    35    13    14    1
    36    30    25   ar
    37    14     3    1
    38    13     7   ar
    39    23    15   ar
    40    22    18   ar
    41    21    24    1
@<TRIPOS>MOLECULE
*****
 37 41 0 0 0
SMALL
GASTEIGER

@<TRIPOS>ATOM
      1 C          46.6978   12.1881  -20.5240 C.2     1  UNL1        0.2491
      2 O          45.4948   11.8190  -20.4456 O.2     1  UNL1       -0.2699
      3 N          47.2734   12.5063  -21.8076 N.am    1  UNL1       -0.2680
      4 C          48.3550   13.4928  -21.9107 C.3     1  UNL1        0.1412
      5 C          49.7021   12.7826  -22.0308 C.3     1  UNL1        0.2269
      6 O          49.6104   11.6154  -22.8466 O.3     1  UNL1       -0.4716
      7 C          48.9824   11.6208  -24.0942 C.ar    1  UNL1        0.1634
      8 C          49.7580   11.3872  -25.2345 C.ar    1  UNL1        0.1735
      9 F          51.0893   11.1565  -25.1129 F       1  UNL1       -0.2010
     10 C          49.1773   11.4151  -26.5027 C.ar    1  UNL1        0.0328
     11 C          47.8034   11.6618  -26.6517 C.ar    1  UNL1        0.0022
     12 C          47.0200   11.8692  -25.5030 C.ar    1  UNL1        0.0005
     13 C          47.5937   11.8583  -24.2196 C.ar    1  UNL1        0.0339
     14 C          46.6635   11.9352  -23.0197 C.3     1  UNL1        0.1236
     15 C          47.1833   11.6871  -28.0007 C.ar    1  UNL1        0.0016
     16 C          47.0469   10.4876  -28.7546 C.ar    1  UNL1        0.0016
     17 C          46.4607   10.5022  -30.0342 C.ar    1  UNL1        0.0206
     18 C          46.0222   11.7245  -30.5321 C.ar    1  UNL1        0.0985
     19 N          45.4405   11.9692  -31.7199 N.ar    1  UNL1       -0.2241
     20 C          45.2278   13.3113  -31.6810 C.ar    1  UNL1        0.1750
     21 N          45.6500   13.8924  -30.5324 N.ar    1  UNL1       -0.3349
     22 C          46.1477   12.8759  -29.8188 C.ar    1  UNL1        0.0757
     23 C          46.7205   12.9076  -28.5505 C.ar    1  UNL1        0.0185
     24 H          45.5974   14.9012  -30.2683 H       1  UNL1        0.1675
     25 C          48.2957   11.1960  -18.8428 C.ar    1  UNL1       -0.0165
     26 C          49.0267   11.3327  -17.6500 C.ar    1  UNL1        0.0142
     27 C          48.9737   12.5202  -16.9101 C.ar    1  UNL1        0.1054
     28 C          48.1818   13.5820  -17.3596 C.ar    1  UNL1        0.0185
     29 C          47.4396   13.4563  -18.5346 C.ar    1  UNL1        0.0055
     30 C          47.4936   12.2745  -19.2866 C.ar    1  UNL1        0.0497
     31 S          49.9188   12.6814  -15.4337 S.O2    1  UNL1        0.0104
     32 C          49.6889   11.2341  -14.4267 C.3     1  UNL1        0.1816
     33 O          51.3758   12.8310  -15.7716 O.2     1  UNL1       -0.1686
     34 O          49.4722   13.8997  -14.6751 O.2     1  UNL1       -0.1686
     35 C          48.3249    9.8696  -19.5682 C.3     1  UNL1        0.0265
     36 C          49.5763    8.9930  -21.5745 C.3     1  UNL1        0.0004
     37 C          49.7024    9.6264  -20.1923 C.3     1  UNL1        0.0047
@<TRIPOS>BOND
     1    36    37    1
     2    37    35    1
     3    35    25    1
     4    25    26   ar
     5    26    27   ar
     6    27    31    1
     7    31    32    1
     8    31    33    2
     9    31    34    2
    10    27    28   ar
    11    28    29   ar
    12    29    30   ar
    13    30     1    1
    14     1     2    2
    15     1     3   am
    16     3     4    1
    17     4     5    1
    18     5     6    1
    19     6     7    1
    20     7     8   ar
    21     8     9    1
    22     8    10   ar
    23    10    11   ar
    24    11    15    1
    25    15    16   ar
    26    16    17   ar
    27    17    18   ar
    28    18    19   ar
    29    19    20   ar
    30    20    21   ar
    31    21    22   ar
    32    22    23   ar
    33    11    12   ar
    34    12    13   ar
    35    13    14    1
    36    30    25   ar
    37    14     3    1
    38    13     7   ar
    39    23    15   ar
    40    22    18   ar
    41    21    24    1
