@<TRIPOS>MOLECULE
*****
 36 40 0 0 0
SMALL
GASTEIGER

@<TRIPOS>ATOM
      1 C          -8.1748  -16.8825   24.7289 C.ar    1  UNL1        0.0727
      2 C          -8.8743  -18.0967   24.5345 C.ar    1  UNL1        0.0449
      3 I          -8.7018  -19.1809   22.7259 I       1  UNL1       -0.0412
      4 C          -9.7261  -18.5955   25.5485 C.ar    1  UNL1        0.0086
      5 C          -9.8869  -17.8948   26.7579 C.ar    1  UNL1        0.0191
      6 C          -9.1833  -16.7036   26.9114 C.ar    1  UNL1        0.0768
      7 N          -9.1700  -15.8772   27.9644 N.ar    1  UNL1       -0.3373
      8 C          -8.3167  -14.8846   27.5940 C.ar    1  UNL1        0.1406
      9 N          -7.7979  -15.0647   26.3485 N.ar    1  UNL1       -0.2258
     10 C          -8.3627  -16.2150   25.9421 C.ar    1  UNL1        0.1121
     11 H          -9.6992  -15.9961   28.8554 H       1  UNL1        0.1674
     12 N          -5.5625  -15.3713   21.7257 N.3     1  UNL1       -0.2647
     13 C          -5.0599  -16.3375   22.7275 C.3     1  UNL1        0.0941
     14 C          -5.8708  -16.2356   24.0207 C.3     1  UNL1        0.1082
     15 N          -7.2979  -16.3583   23.7228 N.pl3   1  UNL1       -0.3031
     16 C          -7.8506  -15.5465   22.6380 C.3     1  UNL1        0.1082
     17 C          -6.9698  -15.6767   21.3940 C.3     1  UNL1        0.0941
     18 C          -4.7381  -15.4118   20.5007 C.3     1  UNL1        0.1200
     19 N          -1.9222  -17.7463   20.7842 N.ar    1  UNL1       -0.3128
     20 C          -1.5022  -16.6411   21.4328 C.ar    1  UNL1        0.1780
     21 N          -2.4209  -15.6524   21.4273 N.ar    1  UNL1       -0.2273
     22 C          -3.4649  -16.1694   20.7470 C.ar    1  UNL1        0.0885
     23 C          -3.1753  -17.4698   20.3700 C.ar    1  UNL1        0.0537
     24 C          -4.0480  -18.3877   19.5639 C.3     1  UNL1        0.0514
     25 C           0.3008  -18.7057   20.3931 C.3     1  UNL1        0.0265
     26 C          -1.1739  -18.9962   20.6466 C.3     1  UNL1        0.1073
     27 C          -7.9673  -13.7163   28.4426 C.ar    1  UNL1        0.0339
     28 C          -8.9619  -13.0850   29.2048 C.ar    1  UNL1        0.0027
     29 C          -8.6555  -11.9856   30.0094 C.ar    1  UNL1       -0.0042
     30 C          -7.3416  -11.4759   30.0823 C.ar    1  UNL1       -0.0228
     31 C          -6.3463  -12.1191   29.3116 C.ar    1  UNL1       -0.0042
     32 C          -6.6556  -13.2196   28.5068 C.ar    1  UNL1        0.0027
     33 C          -7.0448  -10.2591   30.9834 C.3     1  UNL1        0.0189
     34 C          -7.3518   -8.9583   30.2097 C.3     1  UNL1        0.0044
     35 C          -5.5560  -10.2727   31.3932 C.3     1  UNL1        0.0044
     36 C          -7.8888  -10.2440   32.2808 C.3     1  UNL1        0.0044
@<TRIPOS>BOND
     1    25    26    1
     2    26    19    1
     3    19    20   ar
     4    20    21   ar
     5    21    22   ar
     6    22    18    1
     7    18    12    1
     8    12    13    1
     9    13    14    1
    10    14    15    1
    11    15     1    1
    12     1     2   ar
    13     2     3    1
    14     2     4   ar
    15     4     5   ar
    16     5     6   ar
    17     6     7   ar
    18     7     8   ar
    19     8    27    1
    20    27    28   ar
    21    28    29   ar
    22    29    30   ar
    23    30    33    1
    24    33    34    1
    25    33    35    1
    26    33    36    1
    27    30    31   ar
    28    31    32   ar
    29     8     9   ar
    30     9    10   ar
    31    15    16    1
    32    16    17    1
    33    22    23   ar
    34    23    24    1
    35    23    19   ar
    36    17    12    1
    37    10     1   ar
    38    10     6   ar
    39    32    27   ar
    40     7    11    1
@<TRIPOS>MOLECULE
*****
 36 40 0 0 0
SMALL
GASTEIGER

@<TRIPOS>ATOM
      1 C          -7.1626  -10.6162   31.1284 C.ar    1  UNL1        0.0727
      2 C          -6.1270   -9.7438   31.5382 C.ar    1  UNL1        0.0449
      3 I          -6.4122   -8.3793   33.1298 I       1  UNL1       -0.0412
      4 C          -4.8814   -9.7557   30.8668 C.ar    1  UNL1        0.0086
      5 C          -4.6568  -10.6317   29.7890 C.ar    1  UNL1        0.0191
      6 C          -5.7000  -11.4737   29.4144 C.ar    1  UNL1        0.0768
      7 N          -5.7187  -12.3876   28.4364 N.ar    1  UNL1       -0.3373
      8 C          -6.9650  -12.9274   28.5130 C.ar    1  UNL1        0.1406
      9 N          -7.7219  -12.3825   29.5046 N.ar    1  UNL1       -0.2258
     10 C          -6.9017  -11.4692   30.0528 C.ar    1  UNL1        0.1121
     11 H          -4.9379  -12.6164   27.7836 H       1  UNL1        0.1674
     12 N         -10.9476  -10.6932   33.0763 N.3     1  UNL1       -0.2647
     13 C         -10.8390  -10.1955   31.6870 C.3     1  UNL1        0.0941
     14 C          -9.4384   -9.6370   31.4283 C.3     1  UNL1        0.1082
     15 N          -8.4313  -10.6324   31.7962 N.pl3   1  UNL1       -0.3031
     16 C          -8.5514  -11.2897   33.0980 C.3     1  UNL1        0.1082
     17 C          -9.9832  -11.7915   33.2941 C.3     1  UNL1        0.0941
     18 C         -12.3186  -11.1664   33.3565 C.3     1  UNL1        0.1200
     19 N         -12.7620  -14.7549   32.7353 N.ar    1  UNL1       -0.3128
     20 C         -12.7481  -14.2053   31.5040 C.ar    1  UNL1        0.1780
     21 N         -12.5973  -12.8644   31.5330 N.ar    1  UNL1       -0.2273
     22 C         -12.5077  -12.5660   32.8456 C.ar    1  UNL1        0.0885
     23 C         -12.5818  -13.7296   33.5923 C.ar    1  UNL1        0.0537
     24 C         -12.5625  -13.8398   35.0896 C.3     1  UNL1        0.0514
     25 C         -12.5537  -17.0115   31.7973 C.3     1  UNL1        0.0265
     26 C         -12.8734  -16.1826   33.0359 C.3     1  UNL1        0.1073
     27 C          -7.4715  -14.0029   27.6221 C.ar    1  UNL1        0.0339
     28 C          -6.7691  -14.3283   26.4518 C.ar    1  UNL1        0.0027
     29 C          -7.2271  -15.3358   25.6003 C.ar    1  UNL1       -0.0042
     30 C          -8.4057  -16.0569   25.8876 C.ar    1  UNL1       -0.0228
     31 C          -9.1059  -15.7225   27.0693 C.ar    1  UNL1       -0.0042
     32 C          -8.6453  -14.7134   27.9202 C.ar    1  UNL1        0.0027
     33 C          -8.8778  -17.1626   24.9207 C.3     1  UNL1        0.0189
     34 C          -9.9701  -16.5978   23.9865 C.3     1  UNL1        0.0044
     35 C          -9.4565  -18.3428   25.7311 C.3     1  UNL1        0.0044
     36 C          -7.7396  -17.7174   24.0306 C.3     1  UNL1        0.0044
@<TRIPOS>BOND
     1    25    26    1
     2    26    19    1
     3    19    20   ar
     4    20    21   ar
     5    21    22   ar
     6    22    18    1
     7    18    12    1
     8    12    13    1
     9    13    14    1
    10    14    15    1
    11    15     1    1
    12     1     2   ar
    13     2     3    1
    14     2     4   ar
    15     4     5   ar
    16     5     6   ar
    17     6     7   ar
    18     7     8   ar
    19     8    27    1
    20    27    28   ar
    21    28    29   ar
    22    29    30   ar
    23    30    33    1
    24    33    34    1
    25    33    35    1
    26    33    36    1
    27    30    31   ar
    28    31    32   ar
    29     8     9   ar
    30     9    10   ar
    31    15    16    1
    32    16    17    1
    33    22    23   ar
    34    23    24    1
    35    23    19   ar
    36    17    12    1
    37    10     1   ar
    38    10     6   ar
    39    32    27   ar
    40     7    11    1
@<TRIPOS>MOLECULE
*****
 36 40 0 0 0
SMALL
GASTEIGER

@<TRIPOS>ATOM
      1 C          -9.7114   -7.1632   30.9209 C.ar    1  UNL1        0.0727
      2 C         -10.0768   -5.8150   30.6964 C.ar    1  UNL1        0.0449
      3 I          -8.6318   -4.3647   30.1625 I       1  UNL1       -0.0412
      4 C         -11.4236   -5.4093   30.8506 C.ar    1  UNL1        0.0086
      5 C         -12.4127   -6.3368   31.2261 C.ar    1  UNL1        0.0191
      6 C         -12.0143   -7.6533   31.4393 C.ar    1  UNL1        0.0768
      7 N         -12.7683   -8.7022   31.7904 N.ar    1  UNL1       -0.3373
      8 C         -11.8874   -9.7372   31.8484 C.ar    1  UNL1        0.1406
      9 N         -10.6124   -9.3696   31.5449 N.ar    1  UNL1       -0.2258
     10 C         -10.7217   -8.0532   31.2948 C.ar    1  UNL1        0.1121
     11 H         -13.7965   -8.6982   31.9667 H       1  UNL1        0.1674
     12 N          -5.7018   -8.5188   30.4607 N.3     1  UNL1       -0.2647
     13 C          -6.4236   -8.7571   31.7303 C.3     1  UNL1        0.0941
     14 C          -7.4959   -7.6869   31.9434 C.3     1  UNL1        0.1082
     15 N          -8.3563   -7.6043   30.7630 N.pl3   1  UNL1       -0.3031
     16 C          -7.7204   -7.5202   29.4478 C.3     1  UNL1        0.1082
     17 C          -6.6428   -8.5990   29.3242 C.3     1  UNL1        0.0941
     18 C          -4.6160   -9.5046   30.2837 C.3     1  UNL1        0.1200
     19 N          -6.1460  -12.4040   28.6369 N.ar    1  UNL1       -0.3128
     20 C          -5.1972  -11.9943   27.7707 C.ar    1  UNL1        0.1780
     21 N          -4.5207  -10.9128   28.2115 N.ar    1  UNL1       -0.2273
     22 C          -5.0717  -10.6398   29.4123 C.ar    1  UNL1        0.0885
     23 C          -6.0569  -11.5710   29.6935 C.ar    1  UNL1        0.0537
     24 C          -6.9409  -11.6064   30.9066 C.3     1  UNL1        0.0514
     25 C          -6.4873  -14.4708   27.3611 C.3     1  UNL1        0.0265
     26 C          -7.0201  -13.5649   28.4652 C.3     1  UNL1        0.1073
     27 C         -12.2529  -11.1335   32.2001 C.ar    1  UNL1        0.0339
     28 C         -11.5491  -11.8056   33.2111 C.ar    1  UNL1        0.0027
     29 C         -11.8761  -13.1181   33.5579 C.ar    1  UNL1       -0.0042
     30 C         -12.9205  -13.8085   32.9065 C.ar    1  UNL1       -0.0228
     31 C         -13.6242  -13.1227   31.8902 C.ar    1  UNL1       -0.0042
     32 C         -13.2949  -11.8087   31.5447 C.ar    1  UNL1        0.0027
     33 C         -13.2501  -15.2580   33.3195 C.3     1  UNL1        0.0189
     34 C         -12.7999  -15.4929   34.7779 C.3     1  UNL1        0.0044
     35 C         -12.5063  -16.2405   32.3888 C.3     1  UNL1        0.0044
     36 C         -14.7607  -15.5846   33.2361 C.3     1  UNL1        0.0044
@<TRIPOS>BOND
     1    25    26    1
     2    26    19    1
     3    19    20   ar
     4    20    21   ar
     5    21    22   ar
     6    22    18    1
     7    18    12    1
     8    12    13    1
     9    13    14    1
    10    14    15    1
    11    15     1    1
    12     1     2   ar
    13     2     3    1
    14     2     4   ar
    15     4     5   ar
    16     5     6   ar
    17     6     7   ar
    18     7     8   ar
    19     8    27    1
    20    27    28   ar
    21    28    29   ar
    22    29    30   ar
    23    30    33    1
    24    33    34    1
    25    33    35    1
    26    33    36    1
    27    30    31   ar
    28    31    32   ar
    29     8     9   ar
    30     9    10   ar
    31    15    16    1
    32    16    17    1
    33    22    23   ar
    34    23    24    1
    35    23    19   ar
    36    17    12    1
    37    10     1   ar
    38    10     6   ar
    39    32    27   ar
    40     7    11    1
@<TRIPOS>MOLECULE
*****
 36 40 0 0 0
SMALL
GASTEIGER

@<TRIPOS>ATOM
      1 C         -10.3498   -7.0357   30.6168 C.ar    1  UNL1        0.0727
      2 C         -10.8039   -5.6958   30.6213 C.ar    1  UNL1        0.0449
      3 I          -9.6321   -4.1411   29.7930 I       1  UNL1       -0.0412
      4 C         -12.0504   -5.3706   31.2069 C.ar    1  UNL1        0.0086
      5 C         -12.8513   -6.3705   31.7885 C.ar    1  UNL1        0.0191
      6 C         -12.3701   -7.6764   31.7659 C.ar    1  UNL1        0.0768
      7 N         -12.9513   -8.7836   32.2436 N.ar    1  UNL1       -0.3373
      8 C         -12.0659   -9.7739   31.9502 C.ar    1  UNL1        0.1406
      9 N         -10.9551   -9.3222   31.3060 N.ar    1  UNL1       -0.2258
     10 C         -11.1725   -7.9992   31.2062 C.ar    1  UNL1        0.1121
     11 H         -13.8763   -8.8439   32.7220 H       1  UNL1        0.1674
     12 N          -6.6060   -8.1078   28.8959 N.3     1  UNL1       -0.2647
     13 C          -6.7072   -6.9157   29.7667 C.3     1  UNL1        0.0941
     14 C          -8.1249   -6.3424   29.7237 C.3     1  UNL1        0.1082
     15 N          -9.0956   -7.3955   30.0223 N.pl3   1  UNL1       -0.3031
     16 C          -8.9742   -8.6696   29.3131 C.3     1  UNL1        0.1082
     17 C          -7.5265   -9.1602   29.3746 C.3     1  UNL1        0.0941
     18 C          -5.2220   -8.6237   28.8745 C.3     1  UNL1        0.1200
     19 N          -4.8075  -11.1488   31.5034 N.ar    1  UNL1       -0.3128
     20 C          -5.0249  -11.8691   30.3843 C.ar    1  UNL1        0.1780
     21 N          -5.2097  -11.0955   29.2939 N.ar    1  UNL1       -0.2273
     22 C          -5.0966   -9.8331   29.7561 C.ar    1  UNL1        0.0885
     23 C          -4.8222   -9.8583   31.1129 C.ar    1  UNL1        0.0537
     24 C          -4.6614   -8.6726   32.0199 C.3     1  UNL1        0.0514
     25 C          -3.0388  -11.8803   33.0370 C.3     1  UNL1        0.0265
     26 C          -4.5379  -11.6932   32.8346 C.3     1  UNL1        0.1073
     27 C         -12.2673  -11.2075   32.2835 C.ar    1  UNL1        0.0339
     28 C         -13.3645  -11.9006   31.7501 C.ar    1  UNL1        0.0027
     29 C         -13.5727  -13.2484   32.0501 C.ar    1  UNL1       -0.0042
     30 C         -12.6905  -13.9546   32.8953 C.ar    1  UNL1       -0.0228
     31 C         -11.5876  -13.2481   33.4271 C.ar    1  UNL1       -0.0042
     32 C         -11.3813  -11.8987   33.1253 C.ar    1  UNL1        0.0027
     33 C         -12.9562  -15.4432   33.2020 C.3     1  UNL1        0.0189
     34 C         -14.4763  -15.7131   33.1652 C.3     1  UNL1        0.0044
     35 C         -12.4085  -15.7858   34.6046 C.3     1  UNL1        0.0044
     36 C         -12.2846  -16.4012   32.1887 C.3     1  UNL1        0.0044
@<TRIPOS>BOND
     1    25    26    1
     2    26    19    1
     3    19    20   ar
     4    20    21   ar
     5    21    22   ar
     6    22    18    1
     7    18    12    1
     8    12    13    1
     9    13    14    1
    10    14    15    1
    11    15     1    1
    12     1     2   ar
    13     2     3    1
    14     2     4   ar
    15     4     5   ar
    16     5     6   ar
    17     6     7   ar
    18     7     8   ar
    19     8    27    1
    20    27    28   ar
    21    28    29   ar
    22    29    30   ar
    23    30    33    1
    24    33    34    1
    25    33    35    1
    26    33    36    1
    27    30    31   ar
    28    31    32   ar
    29     8     9   ar
    30     9    10   ar
    31    15    16    1
    32    16    17    1
    33    22    23   ar
    34    23    24    1
    35    23    19   ar
    36    17    12    1
    37    10     1   ar
    38    10     6   ar
    39    32    27   ar
    40     7    11    1
@<TRIPOS>MOLECULE
*****
 36 40 0 0 0
SMALL
GASTEIGER

@<TRIPOS>ATOM
      1 C          -9.7570   -7.1410   30.9150 C.ar    1  UNL1        0.0727
      2 C         -10.1573   -5.8054   30.6754 C.ar    1  UNL1        0.0449
      3 I          -8.7529   -4.3276   30.1096 I       1  UNL1       -0.0412
      4 C         -11.5124   -5.4308   30.8356 C.ar    1  UNL1        0.0086
      5 C         -12.4752   -6.3770   31.2320 C.ar    1  UNL1        0.0191
      6 C         -12.0428   -7.6803   31.4596 C.ar    1  UNL1        0.0768
      7 N         -12.7679   -8.7424   31.8312 N.ar    1  UNL1       -0.3373
      8 C         -11.8613   -9.7546   31.8957 C.ar    1  UNL1        0.1406
      9 N         -10.5983   -9.3601   31.5764 N.ar    1  UNL1       -0.2258
     10 C         -10.7420   -8.0503   31.3095 C.ar    1  UNL1        0.1121
     11 H         -13.7944   -8.7612   32.0162 H       1  UNL1        0.1674
     12 N          -5.7191   -8.4042   30.4391 N.3     1  UNL1       -0.2647
     13 C          -6.4251   -8.6445   31.7172 C.3     1  UNL1        0.0941
     14 C          -7.5215   -7.5982   31.9259 C.3     1  UNL1        0.1082
     15 N          -8.3928   -7.5509   30.7516 N.pl3   1  UNL1       -0.3031
     16 C          -7.7693   -7.4674   29.4304 C.3     1  UNL1        0.1082
     17 C          -6.6667   -8.5212   29.3111 C.3     1  UNL1        0.0941
     18 C          -4.6110   -9.3654   30.2652 C.3     1  UNL1        0.1200
     19 N          -6.0667  -12.3292   28.6662 N.ar    1  UNL1       -0.3128
     20 C          -5.1620  -11.8816   27.7719 C.ar    1  UNL1        0.1780
     21 N          -4.5186  -10.7720   28.1918 N.ar    1  UNL1       -0.2273
     22 C          -5.0446  -10.5202   29.4083 C.ar    1  UNL1        0.0885
     23 C          -5.9811  -11.4913   29.7193 C.ar    1  UNL1        0.0537
     24 C          -6.8262  -11.5615   30.9583 C.3     1  UNL1        0.0514
     25 C          -6.4275  -14.3544   27.3307 C.3     1  UNL1        0.0265
     26 C          -6.8960  -13.5260   28.5213 C.3     1  UNL1        0.1073
     27 C         -12.1895  -11.1545   32.2694 C.ar    1  UNL1        0.0339
     28 C         -13.3108  -11.7826   31.7064 C.ar    1  UNL1        0.0027
     29 C         -13.6374  -13.0978   32.0434 C.ar    1  UNL1       -0.0042
     30 C         -12.8540  -13.8352   32.9567 C.ar    1  UNL1       -0.0228
     31 C         -11.7260  -13.1941   33.5179 C.ar    1  UNL1       -0.0042
     32 C         -11.4010  -11.8774   33.1790 C.ar    1  UNL1        0.0027
     33 C         -13.2493  -15.2859   33.3025 C.3     1  UNL1        0.0189
     34 C         -14.7730  -15.4612   33.1229 C.3     1  UNL1        0.0044
     35 C         -12.8676  -15.5883   34.7679 C.3     1  UNL1        0.0044
     36 C         -12.5472  -16.3361   32.4082 C.3     1  UNL1        0.0044
@<TRIPOS>BOND
     1    25    26    1
     2    26    19    1
     3    19    20   ar
     4    20    21   ar
     5    21    22   ar
     6    22    18    1
     7    18    12    1
     8    12    13    1
     9    13    14    1
    10    14    15    1
    11    15     1    1
    12     1     2   ar
    13     2     3    1
    14     2     4   ar
    15     4     5   ar
    16     5     6   ar
    17     6     7   ar
    18     7     8   ar
    19     8    27    1
    20    27    28   ar
    21    28    29   ar
    22    29    30   ar
    23    30    33    1
    24    33    34    1
    25    33    35    1
    26    33    36    1
    27    30    31   ar
    28    31    32   ar
    29     8     9   ar
    30     9    10   ar
    31    15    16    1
    32    16    17    1
    33    22    23   ar
    34    23    24    1
    35    23    19   ar
    36    17    12    1
    37    10     1   ar
    38    10     6   ar
    39    32    27   ar
    40     7    11    1
@<TRIPOS>MOLECULE
*****
 36 40 0 0 0
SMALL
GASTEIGER

@<TRIPOS>ATOM
      1 C         -10.2050  -11.8497   30.3843 C.ar    1  UNL1        0.0727
      2 C         -11.1132  -12.0842   31.4434 C.ar    1  UNL1        0.0449
      3 I         -11.8051  -10.4990   32.6620 I       1  UNL1       -0.0412
      4 C         -11.5574  -13.3990   31.7198 C.ar    1  UNL1        0.0086
      5 C         -11.1051  -14.4850   30.9482 C.ar    1  UNL1        0.0191
      6 C         -10.2112  -14.2147   29.9160 C.ar    1  UNL1        0.0768
      7 N          -9.6563  -15.0737   29.0522 N.ar    1  UNL1       -0.3373
      8 C          -8.8817  -14.2876   28.2568 C.ar    1  UNL1        0.1406
      9 N          -8.9359  -12.9700   28.5944 N.ar    1  UNL1       -0.2258
     10 C          -9.7772  -12.9542   29.6429 C.ar    1  UNL1        0.1121
     11 H          -9.8069  -16.1053   29.0170 H       1  UNL1        0.1674
     12 N          -8.8605   -7.9060   29.5091 N.3     1  UNL1       -0.2647
     13 C         -10.3046   -8.1737   29.6900 C.3     1  UNL1        0.0941
     14 C         -10.6268   -9.6259   29.3330 C.3     1  UNL1        0.1082
     15 N          -9.7454  -10.5271   30.0757 N.pl3   1  UNL1       -0.3031
     16 C          -8.3095  -10.2453   30.0765 C.3     1  UNL1        0.1082
     17 C          -8.0716   -8.7715   30.4104 C.3     1  UNL1        0.0941
     18 C          -8.5539   -6.4868   29.7809 C.3     1  UNL1        0.1200
     19 N          -5.8410   -6.3276   32.2456 N.ar    1  UNL1       -0.3128
     20 C          -6.9544   -6.0725   32.9623 C.ar    1  UNL1        0.1780
     21 N          -8.0738   -6.0827   32.2083 N.ar    1  UNL1       -0.2273
     22 C          -7.6361   -6.3629   30.9633 C.ar    1  UNL1        0.0885
     23 C          -6.2633   -6.5416   30.9830 C.ar    1  UNL1        0.0537
     24 C          -5.3769   -6.8280   29.8055 C.3     1  UNL1        0.0514
     25 C          -4.3088   -7.7147   33.5661 C.3     1  UNL1        0.0265
     26 C          -4.4813   -6.4215   32.7780 C.3     1  UNL1        0.1073
     27 C          -8.0557  -14.7887   27.1282 C.ar    1  UNL1        0.0339
     28 C          -8.6744  -15.1855   25.9329 C.ar    1  UNL1        0.0027
     29 C          -7.9173  -15.6593   24.8595 C.ar    1  UNL1       -0.0042
     30 C          -6.5116  -15.7538   24.9410 C.ar    1  UNL1       -0.0228
     31 C          -5.8974  -15.3509   26.1488 C.ar    1  UNL1       -0.0042
     32 C          -6.6576  -14.8769   27.2220 C.ar    1  UNL1        0.0027
     33 C          -5.7117  -16.2828   23.7323 C.3     1  UNL1        0.0189
     34 C          -5.1406  -15.0921   22.9318 C.3     1  UNL1        0.0044
     35 C          -6.6427  -17.1131   22.8221 C.3     1  UNL1        0.0044
     36 C          -4.5238  -17.1878   24.1394 C.3     1  UNL1        0.0044
@<TRIPOS>BOND
     1    25    26    1
     2    26    19    1
     3    19    20   ar
     4    20    21   ar
     5    21    22   ar
     6    22    18    1
     7    18    12    1
     8    12    13    1
     9    13    14    1
    10    14    15    1
    11    15     1    1
    12     1     2   ar
    13     2     3    1
    14     2     4   ar
    15     4     5   ar
    16     5     6   ar
    17     6     7   ar
    18     7     8   ar
    19     8    27    1
    20    27    28   ar
    21    28    29   ar
    22    29    30   ar
    23    30    33    1
    24    33    34    1
    25    33    35    1
    26    33    36    1
    27    30    31   ar
    28    31    32   ar
    29     8     9   ar
    30     9    10   ar
    31    15    16    1
    32    16    17    1
    33    22    23   ar
    34    23    24    1
    35    23    19   ar
    36    17    12    1
    37    10     1   ar
    38    10     6   ar
    39    32    27   ar
    40     7    11    1
