@<TRIPOS>MOLECULE
*****
 51 56 0 0 0
SMALL
GASTEIGER

@<TRIPOS>ATOM
      1 O          59.6943   87.8142   12.4726 O.2     1  UNL1       -0.2701
      2 C          60.2866   87.3287   11.4700 C.2     1  UNL1        0.2483
      3 N          61.0175   86.0979   11.5981 N.am    1  UNL1       -0.2945
      4 H          61.2532   85.5789   10.7235 H       1  UNL1        0.1501
      5 C          60.1789   88.0163   10.1630 C.ar    1  UNL1        0.0808
      6 C          59.6347   87.3324    9.0627 C.ar    1  UNL1        0.0080
      7 C          59.5332   87.9571    7.8171 C.ar    1  UNL1        0.0148
      8 C          59.9637   89.2809    7.6489 C.ar    1  UNL1        0.0502
      9 C          60.4937   89.9726    8.7495 C.ar    1  UNL1        0.0443
     10 C          60.5970   89.3511    9.9979 C.ar    1  UNL1        0.1457
     11 F          61.0562   90.0748   11.0489 F       1  UNL1       -0.2040
     12 N          59.8607   89.9175    6.3612 N.pl3   1  UNL1       -0.3040
     13 C          58.5523   90.3042    5.8225 C.3     1  UNL1        0.1123
     14 C          58.6567   91.6416    5.0844 C.3     1  UNL1        0.1136
     15 N          59.8142   91.6411    4.1779 N.pl3   1  UNL1       -0.2897
     16 C          61.1169   91.2401    4.7252 C.3     1  UNL1        0.1136
     17 C          60.9980   89.8934    5.4353 C.3     1  UNL1        0.1123
     18 C          59.7508   92.2795    2.8863 C.ar    1  UNL1        0.1318
     19 C          60.8636   92.9433    2.3444 C.ar    1  UNL1        0.0343
     20 C          60.7631   93.5468    1.0900 C.ar    1  UNL1        0.0083
     21 C          59.5540   93.5049    0.3800 C.ar    1  UNL1        0.0906
     22 C          58.4762   92.8024    0.9408 C.ar    1  UNL1        0.1041
     23 N          58.5980   92.2212    2.1635 N.ar    1  UNL1       -0.2292
     24 C          59.4478   94.1082   -0.9973 C.3     1  UNL1        0.4200
     25 F          59.3690   93.1163   -1.9595 F       1  UNL1       -0.1658
     26 F          58.3115   94.8925   -1.0644 F       1  UNL1       -0.1658
     27 F          60.5544   94.8924   -1.2732 F       1  UNL1       -0.1658
     28 C          61.1427   85.3966   12.8820 C.3     1  UNL1        0.1535
     29 C          60.8756   83.9207   12.7152 C.2     1  UNL1        0.2443
     30 O          61.7627   83.0814   13.0322 O.2     1  UNL1       -0.2730
     31 N          59.6123   83.4822   12.1898 N.am    1  UNL1       -0.2824
     32 H          59.0108   84.1952   11.7181 H       1  UNL1        0.1549
     33 C          59.1698   82.1135   12.1741 C.ar    1  UNL1        0.0566
     34 C          58.8054   81.4681   10.9799 C.ar    1  UNL1        0.0356
     35 C          58.4086   80.1296   11.0135 C.ar    1  UNL1        0.1033
     36 N          58.3886   79.4523   12.1915 N.ar    1  UNL1       -0.2102
     37 C          58.7526   80.0413   13.3611 C.ar    1  UNL1        0.2229
     38 O          58.7196   79.3014   14.5400 O.3     1  UNL1       -0.4919
     39 C          59.1579   81.3822   13.3698 C.ar    1  UNL1        0.0722
     40 H          58.9848   79.7094   15.4289 H       1  UNL1        0.2937
     41 C          62.5191   85.6580   13.5284 C.3     1  UNL1        0.0569
     42 C          62.5409   86.8652   14.4273 C.ar    1  UNL1       -0.0017
     43 C          62.1649   86.9059   15.7673 C.ar    1  UNL1        0.0681
     44 N          62.3516   88.1456   16.2740 N.ar    1  UNL1       -0.3523
     45 C          62.8402   88.8890   15.2663 C.ar    1  UNL1        0.0563
     46 C          63.1936   90.2371   15.3061 C.ar    1  UNL1        0.0170
     47 C          63.6888   90.8223   14.1264 C.ar    1  UNL1        0.0015
     48 C          63.8149   90.0568   12.9462 C.ar    1  UNL1        0.0001
     49 C          63.4481   88.6989   12.9351 C.ar    1  UNL1        0.0012
     50 C          62.9671   88.1441   14.1216 C.ar    1  UNL1        0.0131
     51 H          62.1560   88.4571   17.2513 H       1  UNL1        0.1660
@<TRIPOS>BOND
     1     1     2    2
     2     2     3   am
     3     3    28    1
     4    28    41    1
     5    41    42    1
     6    42    43   ar
     7    43    44   ar
     8    44    45   ar
     9    45    46   ar
    10    46    47   ar
    11    47    48   ar
    12    48    49   ar
    13    49    50   ar
    14    28    29    1
    15    29    30    2
    16    29    31   am
    17    31    33    1
    18    33    34   ar
    19    34    35   ar
    20    35    36   ar
    21    36    37   ar
    22    37    38    1
    23    37    39   ar
    24     2     5    1
    25     5     6   ar
    26     6     7   ar
    27     7     8   ar
    28     8    12    1
    29    12    13    1
    30    13    14    1
    31    14    15    1
    32    15    18    1
    33    18    19   ar
    34    19    20   ar
    35    20    21   ar
    36    21    24    1
    37    24    25    1
    38    24    26    1
    39    24    27    1
    40    21    22   ar
    41    22    23   ar
    42    15    16    1
    43    16    17    1
    44     8     9   ar
    45     9    10   ar
    46    10    11    1
    47    50    42   ar
    48    39    33   ar
    49    10     5   ar
    50    50    45   ar
    51    17    12    1
    52    23    18   ar
    53     3     4    1
    54    44    51    1
    55    31    32    1
    56    38    40    1
@<TRIPOS>MOLECULE
*****
 51 56 0 0 0
SMALL
GASTEIGER

@<TRIPOS>ATOM
      1 O          58.9457   86.7568   11.7729 O.2     1  UNL1       -0.2701
      2 C          59.8504   87.5858   11.4795 C.2     1  UNL1        0.2483
      3 N          60.9184   87.8370   12.4078 N.am    1  UNL1       -0.2945
      4 H          61.7827   88.2947   12.0426 H       1  UNL1        0.1501
      5 C          59.8189   88.2537   10.1583 C.ar    1  UNL1        0.0808
      6 C          59.4646   87.5152    9.0166 C.ar    1  UNL1        0.0080
      7 C          59.4386   88.1214    7.7580 C.ar    1  UNL1        0.0148
      8 C          59.7556   89.4800    7.6170 C.ar    1  UNL1        0.0502
      9 C          60.0950   90.2248    8.7574 C.ar    1  UNL1        0.0443
     10 C          60.1222   89.6221   10.0189 C.ar    1  UNL1        0.1457
     11 F          60.3937   90.3917   11.1020 F       1  UNL1       -0.2040
     12 N          59.7314   90.0977    6.3162 N.pl3   1  UNL1       -0.3040
     13 C          58.4739   90.5992    5.7516 C.3     1  UNL1        0.1123
     14 C          58.7178   91.9050    4.9902 C.3     1  UNL1        0.1136
     15 N          59.8809   91.7736    4.1007 N.pl3   1  UNL1       -0.2897
     16 C          61.1313   91.2585    4.6741 C.3     1  UNL1        0.1136
     17 C          60.8725   89.9443    5.4075 C.3     1  UNL1        0.1123
     18 C          59.8964   92.3891    2.7966 C.ar    1  UNL1        0.1318
     19 C          60.0765   93.7738    2.6447 C.ar    1  UNL1        0.0343
     20 C          60.0880   94.3315    1.3654 C.ar    1  UNL1        0.0083
     21 C          59.9054   93.5175    0.2376 C.ar    1  UNL1        0.0906
     22 C          59.7630   92.1347    0.4300 C.ar    1  UNL1        0.1041
     23 N          59.7565   91.6140    1.6856 N.ar    1  UNL1       -0.2292
     24 C          59.9670   94.1001   -1.1513 C.3     1  UNL1        0.4200
     25 F          61.0979   94.8838   -1.3018 F       1  UNL1       -0.1658
     26 F          60.0046   93.0723   -2.0749 F       1  UNL1       -0.1658
     27 F          58.8571   94.8892   -1.3992 F       1  UNL1       -0.1658
     28 C          60.9732   87.1909   13.7252 C.3     1  UNL1        0.1535
     29 C          61.5272   85.7916   13.6135 C.2     1  UNL1        0.2443
     30 O          60.7733   84.7993   13.8106 O.2     1  UNL1       -0.2730
     31 N          62.9136   85.6000   13.2889 N.am    1  UNL1       -0.2824
     32 H          63.5489   86.4257   13.3742 H       1  UNL1        0.1549
     33 C          63.5032   84.3297   12.9602 C.ar    1  UNL1        0.0566
     34 C          63.6033   83.2944   13.9054 C.ar    1  UNL1        0.0356
     35 C          64.1591   82.0697   13.5296 C.ar    1  UNL1        0.1033
     36 N          64.5873   81.8763   12.2544 N.ar    1  UNL1       -0.2102
     37 C          64.4879   82.8501   11.3114 C.ar    1  UNL1        0.2229
     38 O          64.9365   82.5991   10.0176 O.3     1  UNL1       -0.4919
     39 C          63.9352   84.0926   11.6480 C.ar    1  UNL1        0.0722
     40 H          64.8769   83.3025    9.2906 H       1  UNL1        0.2937
     41 C          61.7741   88.0432   14.7315 C.3     1  UNL1        0.0569
     42 C          62.7477   88.9871   14.0780 C.ar    1  UNL1       -0.0017
     43 C          63.0657   89.0408   12.7236 C.ar    1  UNL1        0.0681
     44 N          63.9474   90.0376   12.4835 N.ar    1  UNL1       -0.3523
     45 C          64.1908   90.6129   13.6737 C.ar    1  UNL1        0.0563
     46 C          65.0361   91.6908   13.9332 C.ar    1  UNL1        0.0170
     47 C          65.1439   92.1368   15.2632 C.ar    1  UNL1        0.0015
     48 C          64.4155   91.5005   16.2925 C.ar    1  UNL1        0.0001
     49 C          63.5718   90.4134   16.0013 C.ar    1  UNL1        0.0012
     50 C          63.4796   89.9979   14.6724 C.ar    1  UNL1        0.0131
     51 H          64.3529   90.3037   11.5588 H       1  UNL1        0.1660
@<TRIPOS>BOND
     1     1     2    2
     2     2     3   am
     3     3    28    1
     4    28    41    1
     5    41    42    1
     6    42    43   ar
     7    43    44   ar
     8    44    45   ar
     9    45    46   ar
    10    46    47   ar
    11    47    48   ar
    12    48    49   ar
    13    49    50   ar
    14    28    29    1
    15    29    30    2
    16    29    31   am
    17    31    33    1
    18    33    34   ar
    19    34    35   ar
    20    35    36   ar
    21    36    37   ar
    22    37    38    1
    23    37    39   ar
    24     2     5    1
    25     5     6   ar
    26     6     7   ar
    27     7     8   ar
    28     8    12    1
    29    12    13    1
    30    13    14    1
    31    14    15    1
    32    15    18    1
    33    18    19   ar
    34    19    20   ar
    35    20    21   ar
    36    21    24    1
    37    24    25    1
    38    24    26    1
    39    24    27    1
    40    21    22   ar
    41    22    23   ar
    42    15    16    1
    43    16    17    1
    44     8     9   ar
    45     9    10   ar
    46    10    11    1
    47    50    42   ar
    48    39    33   ar
    49    10     5   ar
    50    50    45   ar
    51    17    12    1
    52    23    18   ar
    53     3     4    1
    54    44    51    1
    55    31    32    1
    56    38    40    1
@<TRIPOS>MOLECULE
*****
 51 56 0 0 0
SMALL
GASTEIGER

@<TRIPOS>ATOM
      1 O          58.4212   86.9893   11.9653 O.2     1  UNL1       -0.2701
      2 C          59.5361   87.3845   11.5264 C.2     1  UNL1        0.2483
      3 N          60.7318   87.1344   12.2835 N.am    1  UNL1       -0.2945
      4 H          61.6469   87.2112   11.7869 H       1  UNL1        0.1501
      5 C          59.5970   88.0619   10.2111 C.ar    1  UNL1        0.0808
      6 C          59.1159   87.4012    9.0681 C.ar    1  UNL1        0.0080
      7 C          59.1730   88.0161    7.8149 C.ar    1  UNL1        0.0148
      8 C          59.7022   89.3077    7.6807 C.ar    1  UNL1        0.0502
      9 C          60.1696   89.9772    8.8226 C.ar    1  UNL1        0.0443
     10 C          60.1142   89.3653   10.0787 C.ar    1  UNL1        0.1457
     11 F          60.5180   90.0707   11.1644 F       1  UNL1       -0.2040
     12 N          59.7626   89.9342    6.3853 N.pl3   1  UNL1       -0.3040
     13 C          58.5383   90.3944    5.7212 C.3     1  UNL1        0.1123
     14 C          58.7961   91.7140    4.9887 C.3     1  UNL1        0.1136
     15 N          60.0325   91.6315    4.1976 N.pl3   1  UNL1       -0.2897
     16 C          61.2494   91.1575    4.8698 C.3     1  UNL1        0.1136
     17 C          60.9794   89.8291    5.5731 C.3     1  UNL1        0.1123
     18 C          60.1327   92.2573    2.9022 C.ar    1  UNL1        0.1318
     19 C          61.3668   92.3767    2.2424 C.ar    1  UNL1        0.0343
     20 C          61.4221   92.9867    0.9883 C.ar    1  UNL1        0.0083
     21 C          60.2553   93.4919    0.3957 C.ar    1  UNL1        0.0906
     22 C          59.0374   93.3220    1.0720 C.ar    1  UNL1        0.1041
     23 N          59.0079   92.7234    2.2919 N.ar    1  UNL1       -0.2292
     24 C          60.2938   94.1065   -0.9802 C.3     1  UNL1        0.4200
     25 F          60.3164   93.1226   -1.9535 F       1  UNL1       -0.1658
     26 F          59.1706   94.8921   -1.1594 F       1  UNL1       -0.1658
     27 F          61.4231   94.8922   -1.1323 F       1  UNL1       -0.1658
     28 C          60.7003   86.4674   13.5912 C.3     1  UNL1        0.1535
     29 C          60.7407   84.9675   13.4293 C.2     1  UNL1        0.2443
     30 O          61.2769   84.2532   14.3203 O.2     1  UNL1       -0.2730
     31 N          60.1720   84.3639   12.2560 N.am    1  UNL1       -0.2824
     32 H          59.9631   84.9880   11.4439 H       1  UNL1        0.1549
     33 C          59.9723   82.9496   12.0854 C.ar    1  UNL1        0.0566
     34 C          58.7895   82.3146   12.5015 C.ar    1  UNL1        0.0356
     35 C          58.6321   80.9434   12.2887 C.ar    1  UNL1        0.1033
     36 N          59.6107   80.2311   11.6709 N.ar    1  UNL1       -0.2102
     37 C          60.7584   80.8180   11.2397 C.ar    1  UNL1        0.2229
     38 O          61.7277   80.0441   10.6073 O.3     1  UNL1       -0.4919
     39 C          60.9544   82.1915   11.4331 C.ar    1  UNL1        0.0722
     40 H          62.5942   80.4497   10.2733 H       1  UNL1        0.2937
     41 C          61.8371   86.9738   14.5031 C.3     1  UNL1        0.0569
     42 C          62.6875   88.0405   13.8667 C.ar    1  UNL1       -0.0017
     43 C          63.0475   88.1201   12.5241 C.ar    1  UNL1        0.0681
     44 N          63.7830   89.2317   12.2963 N.ar    1  UNL1       -0.3523
     45 C          63.8927   89.8541   13.4826 C.ar    1  UNL1        0.0563
     46 C          64.5608   91.0481   13.7510 C.ar    1  UNL1        0.0170
     47 C          64.5498   91.5248   15.0746 C.ar    1  UNL1        0.0015
     48 C          63.8821   90.8039   16.0892 C.ar    1  UNL1        0.0001
     49 C          63.2182   89.6006   15.7894 C.ar    1  UNL1        0.0012
     50 C          63.2401   89.1564   14.4669 C.ar    1  UNL1        0.0131
     51 H          64.1815   89.5407   11.3819 H       1  UNL1        0.1660
@<TRIPOS>BOND
     1     1     2    2
     2     2     3   am
     3     3    28    1
     4    28    41    1
     5    41    42    1
     6    42    43   ar
     7    43    44   ar
     8    44    45   ar
     9    45    46   ar
    10    46    47   ar
    11    47    48   ar
    12    48    49   ar
    13    49    50   ar
    14    28    29    1
    15    29    30    2
    16    29    31   am
    17    31    33    1
    18    33    34   ar
    19    34    35   ar
    20    35    36   ar
    21    36    37   ar
    22    37    38    1
    23    37    39   ar
    24     2     5    1
    25     5     6   ar
    26     6     7   ar
    27     7     8   ar
    28     8    12    1
    29    12    13    1
    30    13    14    1
    31    14    15    1
    32    15    18    1
    33    18    19   ar
    34    19    20   ar
    35    20    21   ar
    36    21    24    1
    37    24    25    1
    38    24    26    1
    39    24    27    1
    40    21    22   ar
    41    22    23   ar
    42    15    16    1
    43    16    17    1
    44     8     9   ar
    45     9    10   ar
    46    10    11    1
    47    50    42   ar
    48    39    33   ar
    49    10     5   ar
    50    50    45   ar
    51    17    12    1
    52    23    18   ar
    53     3     4    1
    54    44    51    1
    55    31    32    1
    56    38    40    1
@<TRIPOS>MOLECULE
*****
 51 56 0 0 0
SMALL
GASTEIGER

@<TRIPOS>ATOM
      1 O          59.6885   85.1345   14.3145 O.2     1  UNL1       -0.2701
      2 C          60.5619   85.0994   13.4046 C.2     1  UNL1        0.2483
      3 N          61.6231   84.1323   13.4691 N.am    1  UNL1       -0.2945
      4 H          62.1545   83.9343   12.5925 H       1  UNL1        0.1501
      5 C          60.4505   86.0305   12.2586 C.ar    1  UNL1        0.0808
      6 C          59.2701   86.0540   11.4968 C.ar    1  UNL1        0.0080
      7 C          59.1463   86.9162   10.4045 C.ar    1  UNL1        0.0148
      8 C          60.1956   87.7796   10.0582 C.ar    1  UNL1        0.0502
      9 C          61.3706   87.7700   10.8262 C.ar    1  UNL1        0.0443
     10 C          61.4985   86.9086   11.9203 C.ar    1  UNL1        0.1457
     11 F          62.6247   86.9758   12.6730 F       1  UNL1       -0.2040
     12 N          60.0635   88.6625    8.9281 N.pl3   1  UNL1       -0.3040
     13 C          60.5843   90.0326    8.9868 C.3     1  UNL1        0.1123
     14 C          61.1935   90.4266    7.6385 C.3     1  UNL1        0.1136
     15 N          60.2858   90.0697    6.5385 N.pl3   1  UNL1       -0.2897
     16 C          59.7605   88.6986    6.4969 C.3     1  UNL1        0.1136
     17 C          59.1352   88.3330    7.8413 C.3     1  UNL1        0.1123
     18 C          60.1380   90.9239    5.3860 C.ar    1  UNL1        0.1318
     19 C          58.8991   91.4977    5.0564 C.ar    1  UNL1        0.0343
     20 C          58.7972   92.3210    3.9341 C.ar    1  UNL1        0.0083
     21 C          59.9211   92.5626    3.1301 C.ar    1  UNL1        0.0906
     22 C          61.1478   91.9986    3.5129 C.ar    1  UNL1        0.1041
     23 N          61.2230   91.2010    4.6111 N.ar    1  UNL1       -0.2292
     24 C          59.8358   93.4906    1.9453 C.3     1  UNL1        0.4200
     25 F          60.9219   93.3113    1.1062 F       1  UNL1       -0.1658
     26 F          58.6750   93.2265    1.2427 F       1  UNL1       -0.1658
     27 F          59.8219   94.8112    2.3596 F       1  UNL1       -0.1658
     28 C          61.7590   83.1993   14.5946 C.3     1  UNL1        0.1535
     29 C          61.3046   81.8149   14.2014 C.2     1  UNL1        0.2443
     30 O          61.9306   80.8042   14.6237 O.2     1  UNL1       -0.2730
     31 N          60.1637   81.6588   13.3424 N.am    1  UNL1       -0.2824
     32 H          59.8287   82.5030   12.8249 H       1  UNL1        0.1549
     33 C          59.5212   80.4020   13.0651 C.ar    1  UNL1        0.0566
     34 C          59.4420   79.3834   14.0303 C.ar    1  UNL1        0.0356
     35 C          58.7836   78.1912   13.7216 C.ar    1  UNL1        0.1033
     36 N          58.2114   78.0232   12.5004 N.ar    1  UNL1       -0.2102
     37 C          58.2537   78.9952   11.5513 C.ar    1  UNL1        0.2229
     38 O          57.6468   78.7749   10.3178 O.3     1  UNL1       -0.4919
     39 C          58.9037   80.2062   11.8220 C.ar    1  UNL1        0.0722
     40 H          57.6593   79.4782    9.5883 H       1  UNL1        0.2937
     41 C          63.2014   83.1925   15.1423 C.3     1  UNL1        0.0569
     42 C          63.8505   84.5507   15.1417 C.ar    1  UNL1       -0.0017
     43 C          65.0553   84.8917   14.5329 C.ar    1  UNL1        0.0681
     44 N          65.3137   86.2085   14.6992 N.ar    1  UNL1       -0.3523
     45 C          64.2846   86.7023   15.4090 C.ar    1  UNL1        0.0563
     46 C          64.1015   88.0202   15.8256 C.ar    1  UNL1        0.0170
     47 C          62.9427   88.3215   16.5643 C.ar    1  UNL1        0.0015
     48 C          62.0056   87.3099   16.8697 C.ar    1  UNL1        0.0001
     49 C          62.2178   85.9881   16.4381 C.ar    1  UNL1        0.0012
     50 C          63.3722   85.7206   15.7013 C.ar    1  UNL1        0.0131
     51 H          66.1450   86.7318   14.3447 H       1  UNL1        0.1660
@<TRIPOS>BOND
     1     1     2    2
     2     2     3   am
     3     3    28    1
     4    28    41    1
     5    41    42    1
     6    42    43   ar
     7    43    44   ar
     8    44    45   ar
     9    45    46   ar
    10    46    47   ar
    11    47    48   ar
    12    48    49   ar
    13    49    50   ar
    14    28    29    1
    15    29    30    2
    16    29    31   am
    17    31    33    1
    18    33    34   ar
    19    34    35   ar
    20    35    36   ar
    21    36    37   ar
    22    37    38    1
    23    37    39   ar
    24     2     5    1
    25     5     6   ar
    26     6     7   ar
    27     7     8   ar
    28     8    12    1
    29    12    13    1
    30    13    14    1
    31    14    15    1
    32    15    18    1
    33    18    19   ar
    34    19    20   ar
    35    20    21   ar
    36    21    24    1
    37    24    25    1
    38    24    26    1
    39    24    27    1
    40    21    22   ar
    41    22    23   ar
    42    15    16    1
    43    16    17    1
    44     8     9   ar
    45     9    10   ar
    46    10    11    1
    47    50    42   ar
    48    39    33   ar
    49    10     5   ar
    50    50    45   ar
    51    17    12    1
    52    23    18   ar
    53     3     4    1
    54    44    51    1
    55    31    32    1
    56    38    40    1
@<TRIPOS>MOLECULE
*****
 51 56 0 0 0
SMALL
GASTEIGER

@<TRIPOS>ATOM
      1 O          58.3677   83.0748   11.7820 O.2     1  UNL1       -0.2701
      2 C          59.5394   83.1436   11.3192 C.2     1  UNL1        0.2483
      3 N          59.9762   82.1923   10.3345 N.am    1  UNL1       -0.2945
      4 H          60.8223   82.4296    9.7707 H       1  UNL1        0.1501
      5 C          60.4317   84.2365   11.7686 C.ar    1  UNL1        0.0808
      6 C          61.6058   84.5134   11.0480 C.ar    1  UNL1        0.0080
      7 C          62.4684   85.5326   11.4594 C.ar    1  UNL1        0.0148
      8 C          62.1695   86.3022   12.5928 C.ar    1  UNL1        0.0502
      9 C          60.9897   86.0388   13.3064 C.ar    1  UNL1        0.0443
     10 C          60.1236   85.0198   12.8980 C.ar    1  UNL1        0.1457
     11 F          58.9642   84.8398   13.5782 F       1  UNL1       -0.2040
     12 N          63.0653   87.3481   13.0143 N.pl3   1  UNL1       -0.3040
     13 C          63.2195   88.5667   12.2123 C.3     1  UNL1        0.1123
     14 C          63.3640   89.7876   13.1248 C.3     1  UNL1        0.1136
     15 N          64.3422   89.5224   14.1898 N.pl3   1  UNL1       -0.2897
     16 C          64.1852   88.2931   14.9782 C.3     1  UNL1        0.1136
     17 C          64.0679   87.0846   14.0519 C.3     1  UNL1        0.1123
     18 C          65.2461   90.5496   14.6454 C.ar    1  UNL1        0.1318
     19 C          64.8475   91.5042   15.5954 C.ar    1  UNL1        0.0343
     20 C          65.7525   92.4812   16.0130 C.ar    1  UNL1        0.0083
     21 C          67.0481   92.5203   15.4766 C.ar    1  UNL1        0.0906
     22 C          67.4181   91.5280   14.5557 C.ar    1  UNL1        0.1041
     23 N          66.5199   90.5856   14.1650 N.ar    1  UNL1       -0.2292
     24 C          68.0506   93.5384   15.9570 C.3     1  UNL1        0.4200
     25 F          68.2703   94.5016   14.9875 F       1  UNL1       -0.1658
     26 F          67.5672   94.1499   17.0985 F       1  UNL1       -0.1658
     27 F          69.2607   92.9324   16.2475 F       1  UNL1       -0.1658
     28 C          59.1136   81.0974    9.8730 C.3     1  UNL1        0.1535
     29 C          58.5180   80.3542   11.0437 C.2     1  UNL1        0.2443
     30 O          57.5345   79.5844   10.8651 O.2     1  UNL1       -0.2730
     31 N          59.0732   80.5343   12.3565 N.am    1  UNL1       -0.2824
     32 H          59.7124   81.3482   12.5039 H       1  UNL1        0.1549
     33 C          58.7256   79.7368   13.5022 C.ar    1  UNL1        0.0566
     34 C          59.0090   78.3614   13.5589 C.ar    1  UNL1        0.0356
     35 C          58.6762   77.6361   14.7050 C.ar    1  UNL1        0.1033
     36 N          58.0951   78.2596   15.7634 N.ar    1  UNL1       -0.2102
     37 C          57.8247   79.5916   15.7482 C.ar    1  UNL1        0.2229
     38 O          57.2332   80.1832   16.8610 O.3     1  UNL1       -0.4919
     39 C          58.1441   80.3549   14.6178 C.ar    1  UNL1        0.0722
     40 H          57.0187   81.1734   16.8831 H       1  UNL1        0.2937
     41 C          58.0238   81.6137    8.9107 C.3     1  UNL1        0.0569
     42 C          58.0780   83.1009    8.6842 C.ar    1  UNL1       -0.0017
     43 C          57.0990   84.0272    9.0333 C.ar    1  UNL1        0.0681
     44 N          57.4986   85.2800    8.7181 N.ar    1  UNL1       -0.3523
     45 C          58.7201   85.1537    8.1714 C.ar    1  UNL1        0.0563
     46 C          59.5399   86.1743    7.6917 C.ar    1  UNL1        0.0170
     47 C          60.7905   85.8163    7.1557 C.ar    1  UNL1        0.0015
     48 C          61.1874   84.4616    7.1086 C.ar    1  UNL1        0.0001
     49 C          60.3382   83.4527    7.5980 C.ar    1  UNL1        0.0012
     50 C          59.1074   83.8385    8.1302 C.ar    1  UNL1        0.0131
     51 H          56.9638   86.1637    8.8716 H       1  UNL1        0.1660
@<TRIPOS>BOND
     1     1     2    2
     2     2     3   am
     3     3    28    1
     4    28    41    1
     5    41    42    1
     6    42    43   ar
     7    43    44   ar
     8    44    45   ar
     9    45    46   ar
    10    46    47   ar
    11    47    48   ar
    12    48    49   ar
    13    49    50   ar
    14    28    29    1
    15    29    30    2
    16    29    31   am
    17    31    33    1
    18    33    34   ar
    19    34    35   ar
    20    35    36   ar
    21    36    37   ar
    22    37    38    1
    23    37    39   ar
    24     2     5    1
    25     5     6   ar
    26     6     7   ar
    27     7     8   ar
    28     8    12    1
    29    12    13    1
    30    13    14    1
    31    14    15    1
    32    15    18    1
    33    18    19   ar
    34    19    20   ar
    35    20    21   ar
    36    21    24    1
    37    24    25    1
    38    24    26    1
    39    24    27    1
    40    21    22   ar
    41    22    23   ar
    42    15    16    1
    43    16    17    1
    44     8     9   ar
    45     9    10   ar
    46    10    11    1
    47    50    42   ar
    48    39    33   ar
    49    10     5   ar
    50    50    45   ar
    51    17    12    1
    52    23    18   ar
    53     3     4    1
    54    44    51    1
    55    31    32    1
    56    38    40    1
