@<TRIPOS>MOLECULE
*****
 37 40 0 0 0
SMALL
GASTEIGER

@<TRIPOS>ATOM
      1 C         -31.1876   49.8399  -10.0065 C.2     1  UNL1        0.2673
      2 O         -31.5841   51.0213  -10.2033 O.2     1  UNL1       -0.2682
      3 N         -30.9030   49.3951   -8.6482 N.am    1  UNL1       -0.2685
      4 C         -30.4689   49.4706  -12.4027 C.ar    1  UNL1        0.0569
      5 C         -31.0227   48.9754  -11.1966 C.ar    1  UNL1        0.1374
      6 N         -31.4965   47.7033  -11.1486 N.ar    1  UNL1       -0.2392
      7 C         -31.4397   46.8577  -12.2053 C.ar    1  UNL1        0.0990
      8 C         -30.8897   47.2844  -13.4157 C.ar    1  UNL1        0.0193
      9 C         -30.8246   46.4114  -14.5126 C.ar    1  UNL1        0.0015
     10 C         -30.2681   46.8403  -15.7182 C.ar    1  UNL1        0.0000
     11 C         -29.7715   48.1383  -15.8373 C.ar    1  UNL1        0.0000
     12 C         -29.8307   49.0182  -14.7531 C.ar    1  UNL1        0.0002
     13 C         -30.3964   48.6079  -13.5257 C.ar    1  UNL1        0.0059
     14 C         -28.6257   51.2269  -11.9399 C.3     1  UNL1        0.0773
     15 C         -29.9706   50.8625  -12.4834 C.2     1  UNL1        0.1751
     16 O         -30.6976   51.7536  -12.9982 O.2     1  UNL1       -0.2913
     17 C         -30.4388   48.0260   -8.2995 C.3     1  UNL1        0.1007
     18 C         -31.3093   47.3916   -7.1978 C.3     1  UNL1        0.0265
     19 C         -28.9383   47.9460   -8.0115 C.ar    1  UNL1        0.0234
     20 C         -28.4266   47.9260   -6.6940 C.ar    1  UNL1        0.0019
     21 C         -27.0497   47.9119   -6.4600 C.ar    1  UNL1        0.0295
     22 C         -26.1566   47.9356   -7.5299 C.ar    1  UNL1        0.1424
     23 F         -24.8206   47.9259   -7.2993 F       1  UNL1       -0.2041
     24 C         -26.6394   47.9856   -8.8374 C.ar    1  UNL1        0.0590
     25 C         -28.0164   48.0024   -9.0815 C.ar    1  UNL1        0.1399
     26 F         -28.4428   48.1075  -10.3649 F       1  UNL1       -0.2044
     27 C         -31.0743   50.3588   -7.5428 C.3     1  UNL1        0.1207
     28 C         -29.7437   50.9372   -7.1442 C.ar    1  UNL1       -0.0021
     29 C         -29.4199   51.0992   -5.7893 C.ar    1  UNL1       -0.0026
     30 C         -28.1543   51.5574   -5.4193 C.ar    1  UNL1       -0.0001
     31 C         -27.1971   51.8444   -6.3953 C.ar    1  UNL1        0.0064
     32 C         -27.4997   51.6797   -7.7586 C.ar    1  UNL1        0.0752
     33 C         -28.7813   51.2325   -8.1241 C.ar    1  UNL1        0.0038
     34 C         -26.4813   51.9533   -8.7962 C.2     1  UNL1        0.3380
     35 O         -25.4813   51.1964   -8.9250 O.2     1  UNL1       -0.2451
     36 O         -26.6207   53.0486   -9.6449 O.3     1  UNL1       -0.4771
     37 H         -25.9314   53.2429  -10.3613 H       1  UNL1        0.2954
@<TRIPOS>BOND
     1    14    15    1
     2    15    16    2
     3    15     4    1
     4     4     5   ar
     5     5     1    1
     6     1     2    2
     7     1     3   am
     8     3    27    1
     9    27    28    1
    10    28    29   ar
    11    29    30   ar
    12    30    31   ar
    13    31    32   ar
    14    32    34    1
    15    34    35    2
    16    34    36    1
    17    32    33   ar
    18     3    17    1
    19    17    18    1
    20    17    19    1
    21    19    20   ar
    22    20    21   ar
    23    21    22   ar
    24    22    23    1
    25    22    24   ar
    26    24    25   ar
    27    25    26    1
    28     5     6   ar
    29     6     7   ar
    30     7     8   ar
    31     8     9   ar
    32     9    10   ar
    33    10    11   ar
    34    11    12   ar
    35    12    13   ar
    36    13     4   ar
    37    33    28   ar
    38    25    19   ar
    39    13     8   ar
    40    36    37    1
@<TRIPOS>MOLECULE
*****
 37 40 0 0 0
SMALL
GASTEIGER

@<TRIPOS>ATOM
      1 C         -27.7615   46.5793   -5.6247 C.2     1  UNL1        0.2673
      2 O         -26.5705   46.1883   -5.4833 O.2     1  UNL1       -0.2682
      3 N         -28.2148   47.0422   -6.9301 N.am    1  UNL1       -0.2685
      4 C         -28.4737   47.4926   -3.3767 C.ar    1  UNL1        0.0569
      5 C         -28.6284   46.5529   -4.4252 C.ar    1  UNL1        0.1374
      6 N         -29.5323   45.5472   -4.2967 N.ar    1  UNL1       -0.2392
      7 C         -30.3294   45.4100   -3.2100 C.ar    1  UNL1        0.0990
      8 C         -30.2335   46.3158   -2.1517 C.ar    1  UNL1        0.0193
      9 C         -31.0595   46.1809   -1.0252 C.ar    1  UNL1        0.0015
     10 C         -30.9647   47.0925    0.0271 C.ar    1  UNL1        0.0000
     11 C         -30.0499   48.1436   -0.0377 C.ar    1  UNL1        0.0000
     12 C         -29.2209   48.2891   -1.1533 C.ar    1  UNL1        0.0002
     13 C         -29.2945   47.3740   -2.2266 C.ar    1  UNL1        0.0059
     14 C         -26.1619   48.4891   -2.7780 C.3     1  UNL1        0.0773
     15 C         -27.4759   48.5811   -3.4862 C.2     1  UNL1        0.1751
     16 O         -27.7465   49.6055   -4.1681 O.2     1  UNL1       -0.2913
     17 C         -29.5955   47.5170   -7.2128 C.3     1  UNL1        0.1007
     18 C         -29.9649   47.3455   -8.6989 C.3     1  UNL1        0.0265
     19 C         -29.8800   48.9200   -6.6727 C.ar    1  UNL1        0.0234
     20 C         -29.2013   50.0622   -7.1548 C.ar    1  UNL1        0.0019
     21 C         -29.4385   51.3231   -6.6030 C.ar    1  UNL1        0.0295
     22 C         -30.3408   51.4692   -5.5505 C.ar    1  UNL1        0.1424
     23 F         -30.5659   52.6939   -5.0143 F       1  UNL1       -0.2041
     24 C         -30.9994   50.3510   -5.0394 C.ar    1  UNL1        0.0590
     25 C         -30.7665   49.0841   -5.5839 C.ar    1  UNL1        0.1399
     26 F         -31.3853   48.0163   -5.0211 F       1  UNL1       -0.2044
     27 C         -27.2485   47.0527   -8.0464 C.3     1  UNL1        0.1207
     28 C         -26.6218   48.4140   -8.1807 C.ar    1  UNL1       -0.0021
     29 C         -26.0250   49.0308   -7.0716 C.ar    1  UNL1       -0.0026
     30 C         -25.3711   50.2556   -7.2161 C.ar    1  UNL1       -0.0001
     31 C         -25.2945   50.8685   -8.4689 C.ar    1  UNL1        0.0064
     32 C         -25.8787   50.2615   -9.5947 C.ar    1  UNL1        0.0752
     33 C         -26.5488   49.0357   -9.4385 C.ar    1  UNL1        0.0038
     34 C         -25.7760   50.8902  -10.9299 C.2     1  UNL1        0.3380
     35 O         -26.6632   51.6927  -11.3280 O.2     1  UNL1       -0.2451
     36 O         -24.6939   50.6048  -11.7587 O.3     1  UNL1       -0.4771
     37 H         -24.6117   51.0329  -12.6732 H       1  UNL1        0.2954
@<TRIPOS>BOND
     1    14    15    1
     2    15    16    2
     3    15     4    1
     4     4     5   ar
     5     5     1    1
     6     1     2    2
     7     1     3   am
     8     3    27    1
     9    27    28    1
    10    28    29   ar
    11    29    30   ar
    12    30    31   ar
    13    31    32   ar
    14    32    34    1
    15    34    35    2
    16    34    36    1
    17    32    33   ar
    18     3    17    1
    19    17    18    1
    20    17    19    1
    21    19    20   ar
    22    20    21   ar
    23    21    22   ar
    24    22    23    1
    25    22    24   ar
    26    24    25   ar
    27    25    26    1
    28     5     6   ar
    29     6     7   ar
    30     7     8   ar
    31     8     9   ar
    32     9    10   ar
    33    10    11   ar
    34    11    12   ar
    35    12    13   ar
    36    13     4   ar
    37    33    28   ar
    38    25    19   ar
    39    13     8   ar
    40    36    37    1
@<TRIPOS>MOLECULE
*****
 37 40 0 0 0
SMALL
GASTEIGER

@<TRIPOS>ATOM
      1 C         -29.9703   48.3157   -9.0921 C.2     1  UNL1        0.2673
      2 O         -31.0325   48.4115   -8.4182 O.2     1  UNL1       -0.2682
      3 N         -28.6897   48.2174   -8.4034 N.am    1  UNL1       -0.2685
      4 C         -30.1102   47.1239  -11.3180 C.ar    1  UNL1        0.0569
      5 C         -30.1022   48.3245  -10.5663 C.ar    1  UNL1        0.1374
      6 N         -30.1279   49.5198  -11.2110 N.ar    1  UNL1       -0.2392
      7 C         -30.1913   49.6258  -12.5600 C.ar    1  UNL1        0.0990
      8 C         -30.2184   48.4767  -13.3529 C.ar    1  UNL1        0.0193
      9 C         -30.2880   48.5805  -14.7507 C.ar    1  UNL1        0.0015
     10 C         -30.3216   47.4293  -15.5385 C.ar    1  UNL1        0.0000
     11 C         -30.2886   46.1700  -14.9395 C.ar    1  UNL1        0.0000
     12 C         -30.2184   46.0524  -13.5487 C.ar    1  UNL1        0.0002
     13 C         -30.1761   47.2040  -12.7321 C.ar    1  UNL1        0.0059
     14 C         -31.3011   45.1709  -10.1081 C.3     1  UNL1        0.0773
     15 C         -30.0565   45.8111  -10.6353 C.2     1  UNL1        0.1751
     16 O         -28.9457   45.2371  -10.4794 O.2     1  UNL1       -0.2913
     17 C         -27.3789   48.0932   -9.0947 C.3     1  UNL1        0.1007
     18 C         -26.5231   46.9603   -8.4961 C.3     1  UNL1        0.0265
     19 C         -26.6288   49.4206   -9.2220 C.ar    1  UNL1        0.0234
     20 C         -26.9620   50.3801  -10.2050 C.ar    1  UNL1        0.0019
     21 C         -26.2229   51.5578  -10.3367 C.ar    1  UNL1        0.0295
     22 C         -25.1288   51.7953   -9.5062 C.ar    1  UNL1        0.1424
     23 F         -24.4108   52.9376   -9.6392 F       1  UNL1       -0.2041
     24 C         -24.7641   50.8484   -8.5493 C.ar    1  UNL1        0.0590
     25 C         -25.4967   49.6651   -8.4117 C.ar    1  UNL1        0.1399
     26 F         -25.0749   48.7467   -7.5070 F       1  UNL1       -0.2044
     27 C         -28.6813   48.2512   -6.9273 C.3     1  UNL1        0.1207
     28 C         -28.1546   49.5735   -6.4390 C.ar    1  UNL1       -0.0021
     29 C         -28.6125   50.7709   -7.0075 C.ar    1  UNL1       -0.0026
     30 C         -28.1863   51.9987   -6.4980 C.ar    1  UNL1       -0.0001
     31 C         -27.3121   52.0431   -5.4094 C.ar    1  UNL1        0.0064
     32 C         -26.8491   50.8535   -4.8199 C.ar    1  UNL1        0.0752
     33 C         -27.2704   49.6209   -5.3484 C.ar    1  UNL1        0.0038
     34 C         -25.9466   50.8931   -3.6484 C.2     1  UNL1        0.3380
     35 O         -25.2944   51.9381   -3.3796 O.2     1  UNL1       -0.2451
     36 O         -25.8125   49.7762   -2.8275 O.3     1  UNL1       -0.4771
     37 H         -25.2004   49.7938   -2.0205 H       1  UNL1        0.2954
@<TRIPOS>BOND
     1    14    15    1
     2    15    16    2
     3    15     4    1
     4     4     5   ar
     5     5     1    1
     6     1     2    2
     7     1     3   am
     8     3    27    1
     9    27    28    1
    10    28    29   ar
    11    29    30   ar
    12    30    31   ar
    13    31    32   ar
    14    32    34    1
    15    34    35    2
    16    34    36    1
    17    32    33   ar
    18     3    17    1
    19    17    18    1
    20    17    19    1
    21    19    20   ar
    22    20    21   ar
    23    21    22   ar
    24    22    23    1
    25    22    24   ar
    26    24    25   ar
    27    25    26    1
    28     5     6   ar
    29     6     7   ar
    30     7     8   ar
    31     8     9   ar
    32     9    10   ar
    33    10    11   ar
    34    11    12   ar
    35    12    13   ar
    36    13     4   ar
    37    33    28   ar
    38    25    19   ar
    39    13     8   ar
    40    36    37    1
@<TRIPOS>MOLECULE
*****
 37 40 0 0 0
SMALL
GASTEIGER

@<TRIPOS>ATOM
      1 C         -29.2704   46.9271   -7.0435 C.2     1  UNL1        0.2673
      2 O         -30.3497   46.8167   -6.3997 O.2     1  UNL1       -0.2682
      3 N         -28.0333   47.2109   -6.3274 N.am    1  UNL1       -0.2685
      4 C         -29.8150   47.8130   -9.3486 C.ar    1  UNL1        0.0569
      5 C         -29.3416   46.7712   -8.5137 C.ar    1  UNL1        0.1374
      6 N         -29.0257   45.5671   -9.0572 N.ar    1  UNL1       -0.2392
      7 C         -29.1137   45.3146  -10.3852 C.ar    1  UNL1        0.0990
      8 C         -29.5583   46.3082  -11.2596 C.ar    1  UNL1        0.0193
      9 C         -29.6476   46.0535  -12.6368 C.ar    1  UNL1        0.0015
     10 C         -30.0862   47.0517  -13.5076 C.ar    1  UNL1        0.0000
     11 C         -30.4353   48.3083  -13.0128 C.ar    1  UNL1        0.0000
     12 C         -30.3518   48.5751  -11.6436 C.ar    1  UNL1        0.0002
     13 C         -29.9175   47.5775  -10.7430 C.ar    1  UNL1        0.0059
     14 C         -31.5838   49.3823   -8.2975 C.3     1  UNL1        0.0773
     15 C         -30.1892   49.1246   -8.7723 C.2     1  UNL1        0.1751
     16 O         -29.3265   50.0402   -8.7002 O.2     1  UNL1       -0.2913
     17 C         -26.7055   47.3538   -6.9817 C.3     1  UNL1        0.1007
     18 C         -25.5667   46.8388   -6.0805 C.3     1  UNL1        0.0265
     19 C         -26.4509   48.7536   -7.5445 C.ar    1  UNL1        0.0234
     20 C         -26.3957   49.8974   -6.7160 C.ar    1  UNL1        0.0019
     21 C         -26.2203   51.1707   -7.2626 C.ar    1  UNL1        0.0295
     22 C         -26.1145   51.3323   -8.6431 C.ar    1  UNL1        0.1424
     23 F         -25.9484   52.5700   -9.1709 F       1  UNL1       -0.2041
     24 C         -26.1961   50.2206   -9.4813 C.ar    1  UNL1        0.0590
     25 C         -26.3740   48.9421   -8.9433 C.ar    1  UNL1        0.1399
     26 F         -26.5039   47.8955   -9.7964 F       1  UNL1       -0.2044
     27 C         -28.0922   47.3775   -4.8615 C.3     1  UNL1        0.1207
     28 C         -29.1597   48.3715   -4.4922 C.ar    1  UNL1       -0.0021
     29 C         -30.0830   48.0746   -3.4792 C.ar    1  UNL1       -0.0026
     30 C         -31.0199   49.0294   -3.0804 C.ar    1  UNL1       -0.0001
     31 C         -31.0351   50.2921   -3.6777 C.ar    1  UNL1        0.0064
     32 C         -30.1116   50.6120   -4.6887 C.ar    1  UNL1        0.0752
     33 C         -29.1813   49.6399   -5.0957 C.ar    1  UNL1        0.0038
     34 C         -30.1027   51.9569   -5.3049 C.2     1  UNL1        0.3380
     35 O         -31.0904   52.7286   -5.1683 O.2     1  UNL1       -0.2451
     36 O         -28.9994   52.3855   -6.0386 O.3     1  UNL1       -0.4771
     37 H         -28.9813   53.3059   -6.4614 H       1  UNL1        0.2954
@<TRIPOS>BOND
     1    14    15    1
     2    15    16    2
     3    15     4    1
     4     4     5   ar
     5     5     1    1
     6     1     2    2
     7     1     3   am
     8     3    27    1
     9    27    28    1
    10    28    29   ar
    11    29    30   ar
    12    30    31   ar
    13    31    32   ar
    14    32    34    1
    15    34    35    2
    16    34    36    1
    17    32    33   ar
    18     3    17    1
    19    17    18    1
    20    17    19    1
    21    19    20   ar
    22    20    21   ar
    23    21    22   ar
    24    22    23    1
    25    22    24   ar
    26    24    25   ar
    27    25    26    1
    28     5     6   ar
    29     6     7   ar
    30     7     8   ar
    31     8     9   ar
    32     9    10   ar
    33    10    11   ar
    34    11    12   ar
    35    12    13   ar
    36    13     4   ar
    37    33    28   ar
    38    25    19   ar
    39    13     8   ar
    40    36    37    1
@<TRIPOS>MOLECULE
*****
 37 40 0 0 0
SMALL
GASTEIGER

@<TRIPOS>ATOM
      1 C         -28.9800   48.9895   -5.7134 C.2     1  UNL1        0.2673
      2 O         -30.1738   48.5839   -5.7559 O.2     1  UNL1       -0.2682
      3 N         -28.5958   50.1708   -6.4755 N.am    1  UNL1       -0.2685
      4 C         -27.7727   46.8424   -5.1414 C.ar    1  UNL1        0.0569
      5 C         -28.0310   48.2116   -4.8858 C.ar    1  UNL1        0.1374
      6 N         -27.4662   48.8104   -3.8053 N.ar    1  UNL1       -0.2392
      7 C         -26.6297   48.1623   -2.9596 C.ar    1  UNL1        0.0990
      8 C         -26.3249   46.8160   -3.1702 C.ar    1  UNL1        0.0193
      9 C         -25.4558   46.1406   -2.2996 C.ar    1  UNL1        0.0015
     10 C         -25.1489   44.7970   -2.5179 C.ar    1  UNL1        0.0000
     11 C         -25.7030   44.1201   -3.6045 C.ar    1  UNL1        0.0000
     12 C         -26.5705   44.7805   -4.4787 C.ar    1  UNL1        0.0002
     13 C         -26.9009   46.1382   -4.2729 C.ar    1  UNL1        0.0059
     14 C         -29.6726   45.3966   -6.1394 C.3     1  UNL1        0.0773
     15 C         -28.3991   46.1644   -6.2991 C.2     1  UNL1        0.1751
     16 O         -27.8409   46.2189   -7.4274 O.2     1  UNL1       -0.2913
     17 C         -27.2223   50.7409   -6.4933 C.3     1  UNL1        0.1007
     18 C         -27.1466   52.0712   -5.7196 C.3     1  UNL1        0.0265
     19 C         -26.6115   50.8156   -7.8941 C.ar    1  UNL1        0.0234
     20 C         -26.4796   52.0379   -8.5915 C.ar    1  UNL1        0.0019
     21 C         -25.9724   52.0698   -9.8925 C.ar    1  UNL1        0.0295
     22 C         -25.6040   50.8864  -10.5303 C.ar    1  UNL1        0.1424
     23 F         -25.1157   50.9202  -11.7947 F       1  UNL1       -0.2041
     24 C         -25.7536   49.6661   -9.8717 C.ar    1  UNL1        0.0590
     25 C         -26.2629   49.6241   -8.5699 C.ar    1  UNL1        0.1399
     26 F         -26.4442   48.4128   -7.9869 F       1  UNL1       -0.2044
     27 C         -29.6246   50.8460   -7.2914 C.3     1  UNL1        0.1207
     28 C         -29.6344   50.2847   -8.6874 C.ar    1  UNL1       -0.0021
     29 C         -29.7655   48.9038   -8.8938 C.ar    1  UNL1       -0.0026
     30 C         -29.8582   48.3927  -10.1895 C.ar    1  UNL1       -0.0001
     31 C         -29.8353   49.2543  -11.2887 C.ar    1  UNL1        0.0064
     32 C         -29.7137   50.6426  -11.1019 C.ar    1  UNL1        0.0752
     33 C         -29.6052   51.1485   -9.7949 C.ar    1  UNL1        0.0038
     34 C         -29.7185   51.5633  -12.2599 C.2     1  UNL1        0.3380
     35 O         -30.7436   51.6713  -12.9858 O.2     1  UNL1       -0.2451
     36 O         -28.5904   52.3242  -12.5563 O.3     1  UNL1       -0.4771
     37 H         -28.5843   52.9606  -13.3445 H       1  UNL1        0.2954
@<TRIPOS>BOND
     1    14    15    1
     2    15    16    2
     3    15     4    1
     4     4     5   ar
     5     5     1    1
     6     1     2    2
     7     1     3   am
     8     3    27    1
     9    27    28    1
    10    28    29   ar
    11    29    30   ar
    12    30    31   ar
    13    31    32   ar
    14    32    34    1
    15    34    35    2
    16    34    36    1
    17    32    33   ar
    18     3    17    1
    19    17    18    1
    20    17    19    1
    21    19    20   ar
    22    20    21   ar
    23    21    22   ar
    24    22    23    1
    25    22    24   ar
    26    24    25   ar
    27    25    26    1
    28     5     6   ar
    29     6     7   ar
    30     7     8   ar
    31     8     9   ar
    32     9    10   ar
    33    10    11   ar
    34    11    12   ar
    35    12    13   ar
    36    13     4   ar
    37    33    28   ar
    38    25    19   ar
    39    13     8   ar
    40    36    37    1
@<TRIPOS>MOLECULE
*****
 37 40 0 0 0
SMALL
GASTEIGER

@<TRIPOS>ATOM
      1 C         -27.9589   51.1000   -6.1811 C.2     1  UNL1        0.2673
      2 O         -28.5845   51.7764   -5.3194 O.2     1  UNL1       -0.2682
      3 N         -26.8744   50.2238   -5.7568 N.am    1  UNL1       -0.2685
      4 C         -29.5632   50.6764   -8.0893 C.ar    1  UNL1        0.0569
      5 C         -28.3707   51.2587   -7.5939 C.ar    1  UNL1        0.1374
      6 N         -27.5353   51.9056   -8.4474 N.ar    1  UNL1       -0.2392
      7 C         -27.8019   52.0513   -9.7675 C.ar    1  UNL1        0.0990
      8 C         -28.9704   51.5128  -10.3101 C.ar    1  UNL1        0.0193
      9 C         -29.2537   51.6640  -11.6762 C.ar    1  UNL1        0.0015
     10 C         -30.4259   51.1299  -12.2126 C.ar    1  UNL1        0.0000
     11 C         -31.3226   50.4453  -11.3921 C.ar    1  UNL1        0.0000
     12 C         -31.0524   50.2868  -10.0302 C.ar    1  UNL1        0.0002
     13 C         -29.8686   50.8128   -9.4673 C.ar    1  UNL1        0.0059
     14 C         -31.5119   50.6732   -6.3868 C.3     1  UNL1        0.0773
     15 C         -30.4745   49.9446   -7.1803 C.2     1  UNL1        0.1751
     16 O         -30.3602   48.6956   -7.0597 O.2     1  UNL1       -0.2913
     17 C         -26.0760   49.3773   -6.6828 C.3     1  UNL1        0.1007
     18 C         -25.1564   50.2256   -7.5821 C.3     1  UNL1        0.0265
     19 C         -26.9173   48.3614   -7.4583 C.ar    1  UNL1        0.0234
     20 C         -27.6282   47.3252   -6.8111 C.ar    1  UNL1        0.0019
     21 C         -28.3409   46.3764   -7.5477 C.ar    1  UNL1        0.0295
     22 C         -28.3453   46.4292   -8.9406 C.ar    1  UNL1        0.1424
     23 F         -29.0347   45.5043   -9.6529 F       1  UNL1       -0.2041
     24 C         -27.6262   47.4255   -9.6006 C.ar    1  UNL1        0.0590
     25 C         -26.9078   48.3785   -8.8717 C.ar    1  UNL1        0.1399
     26 F         -26.1774   49.2960   -9.5533 F       1  UNL1       -0.2044
     27 C         -26.5329   50.1728   -4.3213 C.3     1  UNL1        0.1207
     28 C         -27.0378   48.8938   -3.7103 C.ar    1  UNL1       -0.0021
     29 C         -28.4136   48.6901   -3.5310 C.ar    1  UNL1       -0.0026
     30 C         -28.8856   47.4709   -3.0418 C.ar    1  UNL1       -0.0001
     31 C         -27.9918   46.4405   -2.7407 C.ar    1  UNL1        0.0064
     32 C         -26.6094   46.6222   -2.9224 C.ar    1  UNL1        0.0752
     33 C         -26.1405   47.8581   -3.4007 C.ar    1  UNL1        0.0038
     34 C         -25.6595   45.5254   -2.6337 C.2     1  UNL1        0.3380
     35 O         -24.8618   45.1208   -3.5223 O.2     1  UNL1       -0.2451
     36 O         -25.6344   44.9320   -1.3741 O.3     1  UNL1       -0.4771
     37 H         -24.9854   44.1829   -1.1645 H       1  UNL1        0.2954
@<TRIPOS>BOND
     1    14    15    1
     2    15    16    2
     3    15     4    1
     4     4     5   ar
     5     5     1    1
     6     1     2    2
     7     1     3   am
     8     3    27    1
     9    27    28    1
    10    28    29   ar
    11    29    30   ar
    12    30    31   ar
    13    31    32   ar
    14    32    34    1
    15    34    35    2
    16    34    36    1
    17    32    33   ar
    18     3    17    1
    19    17    18    1
    20    17    19    1
    21    19    20   ar
    22    20    21   ar
    23    21    22   ar
    24    22    23    1
    25    22    24   ar
    26    24    25   ar
    27    25    26    1
    28     5     6   ar
    29     6     7   ar
    30     7     8   ar
    31     8     9   ar
    32     9    10   ar
    33    10    11   ar
    34    11    12   ar
    35    12    13   ar
    36    13     4   ar
    37    33    28   ar
    38    25    19   ar
    39    13     8   ar
    40    36    37    1
@<TRIPOS>MOLECULE
*****
 37 40 0 0 0
SMALL
GASTEIGER

@<TRIPOS>ATOM
      1 C         -28.5867   50.8338   -9.9490 C.2     1  UNL1        0.2673
      2 O         -29.2347   51.9023   -9.7764 O.2     1  UNL1       -0.2682
      3 N         -29.2787   49.5537   -9.8691 N.am    1  UNL1       -0.2685
      4 C         -26.2276   51.3460   -9.1961 C.ar    1  UNL1        0.0569
      5 C         -27.1355   50.9586  -10.2121 C.ar    1  UNL1        0.1374
      6 N         -26.6856   50.7801  -11.4812 N.ar    1  UNL1       -0.2392
      7 C         -25.3842   50.9276  -11.8272 C.ar    1  UNL1        0.0990
      8 C         -24.4403   51.2923  -10.8650 C.ar    1  UNL1        0.0193
      9 C         -23.0901   51.4427  -11.2169 C.ar    1  UNL1        0.0015
     10 C         -22.1493   51.8009  -10.2506 C.ar    1  UNL1        0.0000
     11 C         -22.5469   52.0085   -8.9297 C.ar    1  UNL1        0.0000
     12 C         -23.8883   51.8628   -8.5660 C.ar    1  UNL1        0.0002
     13 C         -24.8588   51.5081   -9.5289 C.ar    1  UNL1        0.0059
     14 C         -26.3701   50.6024   -6.7217 C.3     1  UNL1        0.0773
     15 C         -26.7024   51.5709   -7.8118 C.2     1  UNL1        0.1751
     16 O         -27.4116   52.5801   -7.5547 O.2     1  UNL1       -0.2913
     17 C         -28.6181   48.2356  -10.0628 C.3     1  UNL1        0.1007
     18 C         -29.5909   47.1889  -10.6394 C.3     1  UNL1        0.0265
     19 C         -27.8599   47.7464   -8.8272 C.ar    1  UNL1        0.0234
     20 C         -28.5256   47.3616   -7.6412 C.ar    1  UNL1        0.0019
     21 C         -27.8059   46.9749   -6.5084 C.ar    1  UNL1        0.0295
     22 C         -26.4121   46.9806   -6.5277 C.ar    1  UNL1        0.1424
     23 F         -25.7163   46.6086   -5.4252 F       1  UNL1       -0.2041
     24 C         -25.7346   47.3853   -7.6777 C.ar    1  UNL1        0.0590
     25 C         -26.4467   47.7765   -8.8160 C.ar    1  UNL1        0.1399
     26 F         -25.7498   48.2156   -9.8936 F       1  UNL1       -0.2044
     27 C         -30.7244   49.5540   -9.5689 C.3     1  UNL1        0.1207
     28 C         -30.9479   49.5537   -8.0809 C.ar    1  UNL1       -0.0021
     29 C         -31.4545   48.4129   -7.4418 C.ar    1  UNL1       -0.0026
     30 C         -31.5830   48.3847   -6.0521 C.ar    1  UNL1       -0.0001
     31 C         -31.1947   49.4873   -5.2874 C.ar    1  UNL1        0.0064
     32 C         -30.6760   50.6370   -5.9090 C.ar    1  UNL1        0.0752
     33 C         -30.5641   50.6637   -7.3101 C.ar    1  UNL1        0.0038
     34 C         -30.2352   51.7969   -5.1035 C.2     1  UNL1        0.3380
     35 O         -31.0089   52.3154   -4.2537 O.2     1  UNL1       -0.2451
     36 O         -28.9577   52.3246   -5.2734 O.3     1  UNL1       -0.4771
     37 H         -28.6443   53.1161   -4.7242 H       1  UNL1        0.2954
@<TRIPOS>BOND
     1    14    15    1
     2    15    16    2
     3    15     4    1
     4     4     5   ar
     5     5     1    1
     6     1     2    2
     7     1     3   am
     8     3    27    1
     9    27    28    1
    10    28    29   ar
    11    29    30   ar
    12    30    31   ar
    13    31    32   ar
    14    32    34    1
    15    34    35    2
    16    34    36    1
    17    32    33   ar
    18     3    17    1
    19    17    18    1
    20    17    19    1
    21    19    20   ar
    22    20    21   ar
    23    21    22   ar
    24    22    23    1
    25    22    24   ar
    26    24    25   ar
    27    25    26    1
    28     5     6   ar
    29     6     7   ar
    30     7     8   ar
    31     8     9   ar
    32     9    10   ar
    33    10    11   ar
    34    11    12   ar
    35    12    13   ar
    36    13     4   ar
    37    33    28   ar
    38    25    19   ar
    39    13     8   ar
    40    36    37    1
@<TRIPOS>MOLECULE
*****
 37 40 0 0 0
SMALL
GASTEIGER

@<TRIPOS>ATOM
      1 C         -29.8591   48.1273   -7.4154 C.2     1  UNL1        0.2673
      2 O         -29.8711   47.6737   -8.5926 O.2     1  UNL1       -0.2682
      3 N         -30.3904   49.4588   -7.1537 N.am    1  UNL1       -0.2685
      4 C         -27.8814   47.0805   -6.2374 C.ar    1  UNL1        0.0569
      5 C         -29.2806   47.2614   -6.3635 C.ar    1  UNL1        0.1374
      6 N         -30.1227   46.5600   -5.5610 N.ar    1  UNL1       -0.2392
      7 C         -29.6854   45.7019   -4.6084 C.ar    1  UNL1        0.0990
      8 C         -28.3166   45.4950   -4.4264 C.ar    1  UNL1        0.0193
      9 C         -27.8577   44.6103   -3.4384 C.ar    1  UNL1        0.0015
     10 C         -26.4887   44.4117   -3.2559 C.ar    1  UNL1        0.0000
     11 C         -25.5700   45.0942   -4.0534 C.ar    1  UNL1        0.0000
     12 C         -26.0133   45.9776   -5.0415 C.ar    1  UNL1        0.0002
     13 C         -27.3945   46.1883   -5.2487 C.ar    1  UNL1        0.0059
     14 C         -26.5751   47.2729   -8.4628 C.3     1  UNL1        0.0773
     15 C         -26.9474   47.8160   -7.1200 C.2     1  UNL1        0.1751
     16 O         -26.4455   48.9023   -6.7254 O.2     1  UNL1       -0.2913
     17 C         -30.4335   50.0893   -5.8076 C.3     1  UNL1        0.1007
     18 C         -31.4885   51.2100   -5.7358 C.3     1  UNL1        0.0265
     19 C         -29.0581   50.5138   -5.2890 C.ar    1  UNL1        0.0234
     20 C         -28.3083   51.5421   -5.9040 C.ar    1  UNL1        0.0019
     21 C         -27.0302   51.8695   -5.4458 C.ar    1  UNL1        0.0295
     22 C         -26.4669   51.1693   -4.3801 C.ar    1  UNL1        0.1424
     23 F         -25.2244   51.4868   -3.9402 F       1  UNL1       -0.2041
     24 C         -27.1772   50.1311   -3.7777 C.ar    1  UNL1        0.0590
     25 C         -28.4566   49.7946   -4.2312 C.ar    1  UNL1        0.1399
     26 F         -29.0895   48.7427   -3.6542 F       1  UNL1       -0.2044
     27 C         -30.9127   50.2429   -8.2906 C.3     1  UNL1        0.1207
     28 C         -29.8101   50.5380   -9.2710 C.ar    1  UNL1       -0.0021
     29 C         -30.0543   50.4753  -10.6505 C.ar    1  UNL1       -0.0026
     30 C         -29.0547   50.8299  -11.5579 C.ar    1  UNL1       -0.0001
     31 C         -27.8089   51.2632  -11.0981 C.ar    1  UNL1        0.0064
     32 C         -27.5477   51.3415   -9.7186 C.ar    1  UNL1        0.0752
     33 C         -28.5542   50.9679   -8.8112 C.ar    1  UNL1        0.0038
     34 C         -26.2408   51.8276   -9.2242 C.2     1  UNL1        0.3380
     35 O         -25.5212   51.0939   -8.4939 O.2     1  UNL1       -0.2451
     36 O         -25.7905   53.1003   -9.5657 O.3     1  UNL1       -0.4771
     37 H         -24.8955   53.4416   -9.2358 H       1  UNL1        0.2954
@<TRIPOS>BOND
     1    14    15    1
     2    15    16    2
     3    15     4    1
     4     4     5   ar
     5     5     1    1
     6     1     2    2
     7     1     3   am
     8     3    27    1
     9    27    28    1
    10    28    29   ar
    11    29    30   ar
    12    30    31   ar
    13    31    32   ar
    14    32    34    1
    15    34    35    2
    16    34    36    1
    17    32    33   ar
    18     3    17    1
    19    17    18    1
    20    17    19    1
    21    19    20   ar
    22    20    21   ar
    23    21    22   ar
    24    22    23    1
    25    22    24   ar
    26    24    25   ar
    27    25    26    1
    28     5     6   ar
    29     6     7   ar
    30     7     8   ar
    31     8     9   ar
    32     9    10   ar
    33    10    11   ar
    34    11    12   ar
    35    12    13   ar
    36    13     4   ar
    37    33    28   ar
    38    25    19   ar
    39    13     8   ar
    40    36    37    1
@<TRIPOS>MOLECULE
*****
 37 40 0 0 0
SMALL
GASTEIGER

@<TRIPOS>ATOM
      1 C         -27.6027   46.1349   -5.6701 C.2     1  UNL1        0.2673
      2 O         -26.7548   45.6041   -4.9014 O.2     1  UNL1       -0.2682
      3 N         -28.9735   45.6402   -5.6776 N.am    1  UNL1       -0.2685
      4 C         -27.3378   48.5948   -6.1931 C.ar    1  UNL1        0.0569
      5 C         -27.1310   47.2367   -6.5387 C.ar    1  UNL1        0.1374
      6 N         -26.5656   46.9274   -7.7343 N.ar    1  UNL1       -0.2392
      7 C         -26.1545   47.8682   -8.6181 C.ar    1  UNL1        0.0990
      8 C         -26.3173   49.2237   -8.3251 C.ar    1  UNL1        0.0193
      9 C         -25.8897   50.2027   -9.2351 C.ar    1  UNL1        0.0015
     10 C         -26.0484   51.5562   -8.9351 C.ar    1  UNL1        0.0000
     11 C         -26.6307   51.9418   -7.7276 C.ar    1  UNL1        0.0000
     12 C         -27.0616   50.9772   -6.8127 C.ar    1  UNL1        0.0002
     13 C         -26.9176   49.6016   -7.0988 C.ar    1  UNL1        0.0059
     14 C         -29.4034   49.3965   -4.8565 C.3     1  UNL1        0.0773
     15 C         -27.9762   48.9524   -4.9059 C.2     1  UNL1        0.1751
     16 O         -27.3018   48.9007   -3.8427 O.2     1  UNL1       -0.2913
     17 C         -30.0548   46.1942   -6.5351 C.3     1  UNL1        0.1007
     18 C         -31.4343   45.6230   -6.1542 C.3     1  UNL1        0.0265
     19 C         -29.7514   46.1055   -8.0321 C.ar    1  UNL1        0.0234
     20 C         -29.3630   44.8946   -8.6491 C.ar    1  UNL1        0.0019
     21 C         -29.0351   44.8545  -10.0062 C.ar    1  UNL1        0.0295
     22 C         -29.0698   46.0198  -10.7704 C.ar    1  UNL1        0.1424
     23 F         -28.7470   45.9784  -12.0865 F       1  UNL1       -0.2041
     24 C         -29.4214   47.2311  -10.1751 C.ar    1  UNL1        0.0590
     25 C         -29.7490   47.2815   -8.8165 C.ar    1  UNL1        0.1399
     26 F         -30.0309   48.4883   -8.2651 F       1  UNL1       -0.2044
     27 C         -29.3186   44.5130   -4.7886 C.3     1  UNL1        0.1207
     28 C         -29.8718   45.0261   -3.4868 C.ar    1  UNL1       -0.0021
     29 C         -30.7788   44.2516   -2.7491 C.ar    1  UNL1       -0.0026
     30 C         -31.2268   44.6913   -1.5023 C.ar    1  UNL1       -0.0001
     31 C         -30.7641   45.8991   -0.9746 C.ar    1  UNL1        0.0064
     32 C         -29.8475   46.6854   -1.6949 C.ar    1  UNL1        0.0752
     33 C         -29.4129   46.2434   -2.9566 C.ar    1  UNL1        0.0038
     34 C         -29.3306   47.9508   -1.1292 C.2     1  UNL1        0.3380
     35 O         -30.0908   48.7166   -0.4772 O.2     1  UNL1       -0.2451
     36 O         -27.9960   48.3060   -1.3079 O.3     1  UNL1       -0.4771
     37 H         -27.6307   49.1683   -0.9215 H       1  UNL1        0.2954
@<TRIPOS>BOND
     1    14    15    1
     2    15    16    2
     3    15     4    1
     4     4     5   ar
     5     5     1    1
     6     1     2    2
     7     1     3   am
     8     3    27    1
     9    27    28    1
    10    28    29   ar
    11    29    30   ar
    12    30    31   ar
    13    31    32   ar
    14    32    34    1
    15    34    35    2
    16    34    36    1
    17    32    33   ar
    18     3    17    1
    19    17    18    1
    20    17    19    1
    21    19    20   ar
    22    20    21   ar
    23    21    22   ar
    24    22    23    1
    25    22    24   ar
    26    24    25   ar
    27    25    26    1
    28     5     6   ar
    29     6     7   ar
    30     7     8   ar
    31     8     9   ar
    32     9    10   ar
    33    10    11   ar
    34    11    12   ar
    35    12    13   ar
    36    13     4   ar
    37    33    28   ar
    38    25    19   ar
    39    13     8   ar
    40    36    37    1
