@<TRIPOS>MOLECULE
*****
 40 44 0 0 0
SMALL
GASTEIGER

@<TRIPOS>ATOM
      1 C         -21.7216   53.1502  -12.0570 C.3     1  UNL1        0.1333
      2 N         -21.7977   52.6420  -10.6868 N.ar    1  UNL1       -0.2950
      3 C         -20.8622   52.7216   -9.6994 C.ar    1  UNL1        0.2019
      4 N         -21.2840   52.2296   -8.5068 N.ar    1  UNL1       -0.2134
      5 C         -22.5264   51.7957   -8.7844 C.ar    1  UNL1        0.1033
      6 C         -23.4215   51.1913   -7.9052 C.ar    1  UNL1        0.0284
      7 C         -24.6910   50.8087   -8.3954 C.ar    1  UNL1        0.0922
      8 C         -24.9979   51.0093   -9.7700 C.ar    1  UNL1        0.1782
      9 C         -24.0752   51.6511  -10.6232 C.ar    1  UNL1        0.1897
     10 C         -22.8391   52.0296  -10.0927 C.ar    1  UNL1        0.1173
     11 O         -24.4142   51.8657  -11.9625 O.3     1  UNL1       -0.4669
     12 C         -25.7578   51.6980  -12.4177 C.3     1  UNL1        0.2527
     13 C         -26.3980   50.4838  -11.7350 C.3     1  UNL1        0.2526
     14 O         -26.2019   50.5518  -10.3206 O.3     1  UNL1       -0.4682
     15 C         -25.6543   50.1666   -7.4764 C.2     1  UNL1        0.2526
     16 O         -25.8548   48.9254   -7.5730 O.2     1  UNL1       -0.2697
     17 N         -26.3514   50.9407   -6.4834 N.am    1  UNL1       -0.2803
     18 H         -26.2026   51.9741   -6.4571 H       1  UNL1        0.1552
     19 C         -27.3138   50.3922   -5.5678 C.ar    1  UNL1        0.0511
     20 C         -28.6398   50.8387   -5.6222 C.ar    1  UNL1        0.0227
     21 C         -29.5915   50.3456   -4.7268 C.ar    1  UNL1        0.0587
     22 I         -31.5839   51.0371   -4.8474 I       1  UNL1       -0.0402
     23 C         -29.2222   49.4060   -3.7571 C.ar    1  UNL1        0.1494
     24 F         -30.1545   48.9457   -2.8836 F       1  UNL1       -0.2038
     25 C         -27.8916   48.9540   -3.6770 C.ar    1  UNL1        0.1004
     26 C         -26.9384   49.4692   -4.5761 C.ar    1  UNL1        0.0208
     27 C         -27.4973   47.9708   -2.6001 C.3     1  UNL1        0.4207
     28 F         -28.1824   46.7848   -2.7900 F       1  UNL1       -0.1658
     29 F         -27.7872   48.4529   -1.3351 F       1  UNL1       -0.1658
     30 F         -26.1378   47.7230   -2.6681 F       1  UNL1       -0.1658
     31 N         -19.5501   53.2760   -9.8668 N.pl3   1  UNL1       -0.2814
     32 H         -19.4852   54.2656  -10.1946 H       1  UNL1        0.1551
     33 C         -18.3410   52.6127   -9.4583 C.ar    1  UNL1        0.0889
     34 C         -17.9653   52.5606   -8.0996 C.ar    1  UNL1        0.1543
     35 F         -18.7225   53.1557   -7.1437 F       1  UNL1       -0.2028
     36 C         -16.7832   51.9179   -7.7205 C.ar    1  UNL1        0.0310
     37 C         -15.9610   51.3333   -8.6848 C.ar    1  UNL1        0.0033
     38 C         -16.3142   51.3939  -10.0340 C.ar    1  UNL1        0.0128
     39 C         -17.4952   52.0345  -10.4262 C.ar    1  UNL1        0.0733
     40 CL        -17.9137   52.0618  -12.1345 Cl      1  UNL1       -0.0809
@<TRIPOS>BOND
     1     1     2    1
     2     2     3   ar
     3     3    31    1
     4    31    33    1
     5    33    34   ar
     6    34    35    1
     7    34    36   ar
     8    36    37   ar
     9    37    38   ar
    10    38    39   ar
    11    39    40    1
    12     3     4   ar
    13     4     5   ar
    14     5     6   ar
    15     6     7   ar
    16     7    15    1
    17    15    16    2
    18    15    17   am
    19    17    19    1
    20    19    20   ar
    21    20    21   ar
    22    21    22    1
    23    21    23   ar
    24    23    24    1
    25    23    25   ar
    26    25    27    1
    27    27    28    1
    28    27    29    1
    29    27    30    1
    30    25    26   ar
    31     7     8   ar
    32     8     9   ar
    33     9    10   ar
    34     9    11    1
    35    11    12    1
    36    12    13    1
    37    13    14    1
    38    10     2   ar
    39    39    33   ar
    40    10     5   ar
    41    26    19   ar
    42    14     8    1
    43    31    32    1
    44    17    18    1
@<TRIPOS>MOLECULE
*****
 40 44 0 0 0
SMALL
GASTEIGER

@<TRIPOS>ATOM
      1 C         -22.2069   53.1696  -11.8611 C.3     1  UNL1        0.1333
      2 N         -22.1668   52.5582  -10.5322 N.ar    1  UNL1       -0.2950
      3 C         -21.1746   52.6188   -9.6002 C.ar    1  UNL1        0.2019
      4 N         -21.4914   52.0166   -8.4258 N.ar    1  UNL1       -0.2134
      5 C         -22.7244   51.5331   -8.6602 C.ar    1  UNL1        0.1033
      6 C         -23.5271   50.8147   -7.7775 C.ar    1  UNL1        0.0284
      7 C         -24.8036   50.3964   -8.2179 C.ar    1  UNL1        0.0922
      8 C         -25.2094   50.6797   -9.5517 C.ar    1  UNL1        0.1782
      9 C         -24.3794   51.4351  -10.4072 C.ar    1  UNL1        0.1897
     10 C         -23.1333   51.8444   -9.9251 C.ar    1  UNL1        0.1173
     11 O         -24.8156   51.7279  -11.7028 O.3     1  UNL1       -0.4669
     12 C         -26.1751   51.5167  -12.0872 C.3     1  UNL1        0.2527
     13 C         -26.7042   50.2204  -11.4628 C.3     1  UNL1        0.2526
     14 O         -26.4206   50.1951  -10.0619 O.3     1  UNL1       -0.4682
     15 C         -25.6697   49.6336   -7.2944 C.2     1  UNL1        0.2526
     16 O         -26.4144   50.2644   -6.4958 O.2     1  UNL1       -0.2697
     17 N         -25.6694   48.1945   -7.3056 N.am    1  UNL1       -0.2803
     18 H         -25.0082   47.6977   -7.9433 H       1  UNL1        0.1552
     19 C         -26.4689   47.3845   -6.4281 C.ar    1  UNL1        0.0511
     20 C         -27.8204   47.1788   -6.7309 C.ar    1  UNL1        0.0227
     21 C         -28.6298   46.4203   -5.8822 C.ar    1  UNL1        0.0587
     22 I         -30.6617   46.1249   -6.3789 I       1  UNL1       -0.0402
     23 C         -28.0961   45.8676   -4.7122 C.ar    1  UNL1        0.1494
     24 F         -28.8979   45.1442   -3.8888 F       1  UNL1       -0.2038
     25 C         -26.7431   46.0734   -4.3827 C.ar    1  UNL1        0.1004
     26 C         -25.9411   46.8518   -5.2390 C.ar    1  UNL1        0.0208
     27 C         -26.1899   45.5060   -3.0968 C.3     1  UNL1        0.4207
     28 F         -26.2315   44.1248   -3.1507 F       1  UNL1       -0.1658
     29 F         -26.9153   45.9290   -1.9961 F       1  UNL1       -0.1658
     30 F         -24.8775   45.9122   -2.9328 F       1  UNL1       -0.1658
     31 N         -19.9075   53.2591   -9.8037 N.pl3   1  UNL1       -0.2814
     32 H         -19.9178   54.2602  -10.1012 H       1  UNL1        0.1551
     33 C         -18.6435   52.6607   -9.4678 C.ar    1  UNL1        0.0889
     34 C         -18.1794   52.6443   -8.1358 C.ar    1  UNL1        0.1543
     35 F         -18.9023   53.2138   -7.1387 F       1  UNL1       -0.2028
     36 C         -16.9451   52.0648   -7.8277 C.ar    1  UNL1        0.0310
     37 C         -16.1584   51.5088   -8.8375 C.ar    1  UNL1        0.0033
     38 C         -16.5998   51.5350  -10.1616 C.ar    1  UNL1        0.0128
     39 C         -17.8338   52.1122  -10.4828 C.ar    1  UNL1        0.0733
     40 CL        -18.3616   52.0974  -12.1606 Cl      1  UNL1       -0.0809
@<TRIPOS>BOND
     1     1     2    1
     2     2     3   ar
     3     3    31    1
     4    31    33    1
     5    33    34   ar
     6    34    35    1
     7    34    36   ar
     8    36    37   ar
     9    37    38   ar
    10    38    39   ar
    11    39    40    1
    12     3     4   ar
    13     4     5   ar
    14     5     6   ar
    15     6     7   ar
    16     7    15    1
    17    15    16    2
    18    15    17   am
    19    17    19    1
    20    19    20   ar
    21    20    21   ar
    22    21    22    1
    23    21    23   ar
    24    23    24    1
    25    23    25   ar
    26    25    27    1
    27    27    28    1
    28    27    29    1
    29    27    30    1
    30    25    26   ar
    31     7     8   ar
    32     8     9   ar
    33     9    10   ar
    34     9    11    1
    35    11    12    1
    36    12    13    1
    37    13    14    1
    38    10     2   ar
    39    39    33   ar
    40    10     5   ar
    41    26    19   ar
    42    14     8    1
    43    31    32    1
    44    17    18    1
@<TRIPOS>MOLECULE
*****
 40 44 0 0 0
SMALL
GASTEIGER

@<TRIPOS>ATOM
      1 C         -23.8524   53.1153  -11.3021 C.3     1  UNL1        0.1333
      2 N         -23.5675   52.3253  -10.1037 N.ar    1  UNL1       -0.2950
      3 C         -22.4175   52.2748   -9.3747 C.ar    1  UNL1        0.2019
      4 N         -22.5120   51.5086   -8.2584 N.ar    1  UNL1       -0.2134
      5 C         -23.7705   51.0385   -8.3235 C.ar    1  UNL1        0.1033
      6 C         -24.3981   50.1885   -7.4162 C.ar    1  UNL1        0.0284
      7 C         -25.7376   49.8108   -7.6643 C.ar    1  UNL1        0.0922
      8 C         -26.3848   50.2694   -8.8453 C.ar    1  UNL1        0.1782
      9 C         -25.7251   51.1528   -9.7261 C.ar    1  UNL1        0.1897
     10 C         -24.4078   51.5151   -9.4330 C.ar    1  UNL1        0.1173
     11 O         -26.3950   51.6149  -10.8629 O.3     1  UNL1       -0.4669
     12 C         -27.8040   51.4328  -11.0119 C.3     1  UNL1        0.2527
     13 C         -28.2155   50.0521  -10.4882 C.3     1  UNL1        0.2526
     14 O         -27.6737   49.8371   -9.1828 O.3     1  UNL1       -0.4682
     15 C         -26.4200   48.9099   -6.7117 C.2     1  UNL1        0.2526
     16 O         -26.9619   47.8583   -7.1484 O.2     1  UNL1       -0.2697
     17 N         -26.4645   49.2217   -5.3075 N.am    1  UNL1       -0.2803
     18 H         -26.0497   50.1225   -4.9800 H       1  UNL1        0.1552
     19 C         -27.1227   48.4060   -4.3243 C.ar    1  UNL1        0.0511
     20 C         -28.3446   48.8327   -3.7900 C.ar    1  UNL1        0.0227
     21 C         -28.9940   48.0759   -2.8122 C.ar    1  UNL1        0.0587
     22 I         -30.8407   48.7488   -2.0380 I       1  UNL1       -0.0402
     23 C         -28.4199   46.8862   -2.3492 C.ar    1  UNL1        0.1494
     24 F         -29.0552   46.1676   -1.3879 F       1  UNL1       -0.2038
     25 C         -27.1858   46.4462   -2.8638 C.ar    1  UNL1        0.1004
     26 C         -26.5340   47.2253   -3.8389 C.ar    1  UNL1        0.0208
     27 C         -26.5572   45.1821   -2.3265 C.3     1  UNL1        0.4207
     28 F         -26.9001   44.1185   -3.1409 F       1  UNL1       -0.1658
     29 F         -26.9800   44.9078   -1.0370 F       1  UNL1       -0.1658
     30 F         -25.1801   45.3143   -2.3118 F       1  UNL1       -0.1658
     31 N         -21.2067   52.9618   -9.7196 N.pl3   1  UNL1       -0.2814
     32 H         -21.2984   53.8810  -10.2070 H       1  UNL1        0.1551
     33 C         -19.8981   52.5439   -9.2931 C.ar    1  UNL1        0.0889
     34 C         -19.4721   52.7380   -7.9624 C.ar    1  UNL1        0.1543
     35 F         -20.2767   53.3458   -7.0545 F       1  UNL1       -0.2028
     36 C         -18.1943   52.3323   -7.5664 C.ar    1  UNL1        0.0310
     37 C         -17.3273   51.7430   -8.4876 C.ar    1  UNL1        0.0033
     38 C         -17.7320   51.5619   -9.8113 C.ar    1  UNL1        0.0128
     39 C         -19.0089   51.9638  -10.2201 C.ar    1  UNL1        0.0733
     40 CL        -19.4855   51.6902  -11.8910 Cl      1  UNL1       -0.0809
@<TRIPOS>BOND
     1     1     2    1
     2     2     3   ar
     3     3    31    1
     4    31    33    1
     5    33    34   ar
     6    34    35    1
     7    34    36   ar
     8    36    37   ar
     9    37    38   ar
    10    38    39   ar
    11    39    40    1
    12     3     4   ar
    13     4     5   ar
    14     5     6   ar
    15     6     7   ar
    16     7    15    1
    17    15    16    2
    18    15    17   am
    19    17    19    1
    20    19    20   ar
    21    20    21   ar
    22    21    22    1
    23    21    23   ar
    24    23    24    1
    25    23    25   ar
    26    25    27    1
    27    27    28    1
    28    27    29    1
    29    27    30    1
    30    25    26   ar
    31     7     8   ar
    32     8     9   ar
    33     9    10   ar
    34     9    11    1
    35    11    12    1
    36    12    13    1
    37    13    14    1
    38    10     2   ar
    39    39    33   ar
    40    10     5   ar
    41    26    19   ar
    42    14     8    1
    43    31    32    1
    44    17    18    1
@<TRIPOS>MOLECULE
*****
 40 44 0 0 0
SMALL
GASTEIGER

@<TRIPOS>ATOM
      1 C         -23.7473   53.0545  -11.3799 C.3     1  UNL1        0.1333
      2 N         -23.4794   52.3068  -10.1508 N.ar    1  UNL1       -0.2950
      3 C         -22.3371   52.2759   -9.4087 C.ar    1  UNL1        0.2019
      4 N         -22.4476   51.5512   -8.2664 N.ar    1  UNL1       -0.2134
      5 C         -23.7083   51.0864   -8.3275 C.ar    1  UNL1        0.1033
      6 C         -24.3502   50.2734   -7.3966 C.ar    1  UNL1        0.0284
      7 C         -25.6894   49.8947   -7.6447 C.ar    1  UNL1        0.0922
      8 C         -26.3218   50.3141   -8.8481 C.ar    1  UNL1        0.1782
      9 C         -25.6479   51.1612   -9.7533 C.ar    1  UNL1        0.1897
     10 C         -24.3313   51.5262   -9.4600 C.ar    1  UNL1        0.1173
     11 O         -26.3034   51.5858  -10.9129 O.3     1  UNL1       -0.4669
     12 C         -27.7120   51.4065  -11.0698 C.3     1  UNL1        0.2527
     13 C         -28.1371   50.0481  -10.5008 C.3     1  UNL1        0.2526
     14 O         -27.6099   49.8774   -9.1830 O.3     1  UNL1       -0.4682
     15 C         -26.3869   49.0328   -6.6673 C.2     1  UNL1        0.2526
     16 O         -26.9165   47.9610   -7.0683 O.2     1  UNL1       -0.2697
     17 N         -26.4597   49.4049   -5.2790 N.am    1  UNL1       -0.2803
     18 H         -26.0545   50.3208   -4.9829 H       1  UNL1        0.1552
     19 C         -27.1339   48.6295   -4.2742 C.ar    1  UNL1        0.0511
     20 C         -26.5574   47.4312   -3.8354 C.ar    1  UNL1        0.0227
     21 C         -27.2027   46.6416   -2.8811 C.ar    1  UNL1        0.0587
     22 I         -26.2958   44.8454   -2.2378 I       1  UNL1       -0.0402
     23 C         -28.4409   47.0385   -2.3628 C.ar    1  UNL1        0.1494
     24 F         -29.0640   46.2539   -1.4460 F       1  UNL1       -0.2038
     25 C         -29.0437   48.2329   -2.8002 C.ar    1  UNL1        0.1004
     26 C         -28.3901   49.0130   -3.7732 C.ar    1  UNL1        0.0208
     27 C         -30.3990   48.6291   -2.2634 C.3     1  UNL1        0.4207
     28 F         -30.3052   48.8494   -0.9015 F       1  UNL1       -0.1658
     29 F         -31.3471   47.6458   -2.4895 F       1  UNL1       -0.1658
     30 F         -30.8250   49.7916   -2.8809 F       1  UNL1       -0.1658
     31 N         -21.1186   52.9430   -9.7656 N.pl3   1  UNL1       -0.2814
     32 H         -21.1999   53.8492  -10.2787 H       1  UNL1        0.1551
     33 C         -19.8160   52.5261   -9.3207 C.ar    1  UNL1        0.0889
     34 C         -19.4139   52.7087   -7.9810 C.ar    1  UNL1        0.1543
     35 F         -20.2365   53.3044   -7.0812 F       1  UNL1       -0.2028
     36 C         -18.1414   52.3041   -7.5668 C.ar    1  UNL1        0.0310
     37 C         -17.2562   51.7273   -8.4786 C.ar    1  UNL1        0.0033
     38 C         -17.6373   51.5577   -9.8108 C.ar    1  UNL1        0.0128
     39 C         -18.9085   51.9586  -10.2378 C.ar    1  UNL1        0.0733
     40 CL        -19.3550   51.6997  -11.9193 Cl      1  UNL1       -0.0809
@<TRIPOS>BOND
     1     1     2    1
     2     2     3   ar
     3     3    31    1
     4    31    33    1
     5    33    34   ar
     6    34    35    1
     7    34    36   ar
     8    36    37   ar
     9    37    38   ar
    10    38    39   ar
    11    39    40    1
    12     3     4   ar
    13     4     5   ar
    14     5     6   ar
    15     6     7   ar
    16     7    15    1
    17    15    16    2
    18    15    17   am
    19    17    19    1
    20    19    20   ar
    21    20    21   ar
    22    21    22    1
    23    21    23   ar
    24    23    24    1
    25    23    25   ar
    26    25    27    1
    27    27    28    1
    28    27    29    1
    29    27    30    1
    30    25    26   ar
    31     7     8   ar
    32     8     9   ar
    33     9    10   ar
    34     9    11    1
    35    11    12    1
    36    12    13    1
    37    13    14    1
    38    10     2   ar
    39    39    33   ar
    40    10     5   ar
    41    26    19   ar
    42    14     8    1
    43    31    32    1
    44    17    18    1
@<TRIPOS>MOLECULE
*****
 40 44 0 0 0
SMALL
GASTEIGER

@<TRIPOS>ATOM
      1 C         -23.6993   52.9915  -11.5680 C.3     1  UNL1        0.1333
      2 N         -23.4367   52.2970  -10.3070 N.ar    1  UNL1       -0.2950
      3 C         -22.2952   52.2923   -9.5630 C.ar    1  UNL1        0.2019
      4 N         -22.4109   51.6190   -8.3901 N.ar    1  UNL1       -0.2134
      5 C         -23.6741   51.1591   -8.4321 C.ar    1  UNL1        0.1033
      6 C         -24.3215   50.3914   -7.4671 C.ar    1  UNL1        0.0284
      7 C         -25.6626   50.0098   -7.6999 C.ar    1  UNL1        0.0922
      8 C         -26.2916   50.3795   -8.9212 C.ar    1  UNL1        0.1782
      9 C         -25.6120   51.1822   -9.8620 C.ar    1  UNL1        0.1897
     10 C         -24.2937   51.5523   -9.5835 C.ar    1  UNL1        0.1173
     11 O         -26.2641   51.5591  -11.0399 O.3     1  UNL1       -0.4669
     12 C         -27.6735   51.3812  -11.1903 C.3     1  UNL1        0.2527
     13 C         -28.1070   50.0514  -10.5627 C.3     1  UNL1        0.2526
     14 O         -27.5819   49.9358   -9.2380 O.3     1  UNL1       -0.4682
     15 C         -26.3659   49.1957   -6.6863 C.2     1  UNL1        0.2526
     16 O         -27.0128   49.7810   -5.7758 O.2     1  UNL1       -0.2697
     17 N         -26.3191   47.7582   -6.7360 N.am    1  UNL1       -0.2803
     18 H         -25.7367   47.3001   -7.4720 H       1  UNL1        0.1552
     19 C         -26.9612   46.9003   -5.7783 C.ar    1  UNL1        0.0511
     20 C         -26.1838   46.2613   -4.8047 C.ar    1  UNL1        0.0227
     21 C         -26.7751   45.3993   -3.8784 C.ar    1  UNL1        0.0587
     22 I         -25.5695   44.4617   -2.4190 I       1  UNL1       -0.0402
     23 C         -28.1533   45.1583   -3.9242 C.ar    1  UNL1        0.1494
     24 F         -28.7128   44.3068   -3.0265 F       1  UNL1       -0.2038
     25 C         -28.9506   45.7805   -4.9032 C.ar    1  UNL1        0.1004
     26 C         -28.3406   46.6362   -5.8403 C.ar    1  UNL1        0.0208
     27 C         -30.4296   45.4803   -4.9674 C.3     1  UNL1        0.4207
     28 F         -30.9857   46.1468   -6.0438 F       1  UNL1       -0.1658
     29 F         -31.0837   45.8776   -3.8137 F       1  UNL1       -0.1658
     30 F         -30.6241   44.1200   -5.1289 F       1  UNL1       -0.1658
     31 N         -21.0727   52.9361   -9.9475 N.pl3   1  UNL1       -0.2814
     32 H         -21.1482   53.8125  -10.5108 H       1  UNL1        0.1551
     33 C         -19.7743   52.5421   -9.4704 C.ar    1  UNL1        0.0889
     34 C         -19.3926   52.7713   -8.1319 C.ar    1  UNL1        0.1543
     35 F         -20.2316   53.3912   -7.2642 F       1  UNL1       -0.2028
     36 C         -18.1241   52.3884   -7.6865 C.ar    1  UNL1        0.0310
     37 C         -17.2225   51.7873   -8.5660 C.ar    1  UNL1        0.0033
     38 C         -17.5832   51.5715   -9.8971 C.ar    1  UNL1        0.0128
     39 C         -18.8504   51.9503  -10.3552 C.ar    1  UNL1        0.0733
     40 CL        -19.2711   51.6333  -12.0334 Cl      1  UNL1       -0.0809
@<TRIPOS>BOND
     1     1     2    1
     2     2     3   ar
     3     3    31    1
     4    31    33    1
     5    33    34   ar
     6    34    35    1
     7    34    36   ar
     8    36    37   ar
     9    37    38   ar
    10    38    39   ar
    11    39    40    1
    12     3     4   ar
    13     4     5   ar
    14     5     6   ar
    15     6     7   ar
    16     7    15    1
    17    15    16    2
    18    15    17   am
    19    17    19    1
    20    19    20   ar
    21    20    21   ar
    22    21    22    1
    23    21    23   ar
    24    23    24    1
    25    23    25   ar
    26    25    27    1
    27    27    28    1
    28    27    29    1
    29    27    30    1
    30    25    26   ar
    31     7     8   ar
    32     8     9   ar
    33     9    10   ar
    34     9    11    1
    35    11    12    1
    36    12    13    1
    37    13    14    1
    38    10     2   ar
    39    39    33   ar
    40    10     5   ar
    41    26    19   ar
    42    14     8    1
    43    31    32    1
    44    17    18    1
@<TRIPOS>MOLECULE
*****
 40 44 0 0 0
SMALL
GASTEIGER

@<TRIPOS>ATOM
      1 C         -23.0650   53.0458  -11.6473 C.3     1  UNL1        0.1333
      2 N         -22.9109   52.3778  -10.3545 N.ar    1  UNL1       -0.2950
      3 C         -21.8429   52.4027   -9.5087 C.ar    1  UNL1        0.2019
      4 N         -22.0577   51.7489   -8.3388 N.ar    1  UNL1       -0.2134
      5 C         -23.3057   51.2702   -8.4880 C.ar    1  UNL1        0.1033
      6 C         -24.0295   50.5106   -7.5721 C.ar    1  UNL1        0.0284
      7 C         -25.3385   50.1057   -7.9199 C.ar    1  UNL1        0.0922
      8 C         -25.8569   50.4445   -9.2006 C.ar    1  UNL1        0.1782
      9 C         -25.1037   51.2400  -10.0902 C.ar    1  UNL1        0.1897
     10 C         -23.8215   51.6339   -9.6987 C.ar    1  UNL1        0.1173
     11 O         -25.6492   51.5865  -11.3299 O.3     1  UNL1       -0.4669
     12 C         -27.0364   51.3856  -11.6058 C.3     1  UNL1        0.2527
     13 C         -27.5089   50.0612  -10.9955 C.3     1  UNL1        0.2526
     14 O         -27.1068   49.9767   -9.6263 O.3     1  UNL1       -0.4682
     15 C         -26.1219   49.2998   -6.9599 C.2     1  UNL1        0.2526
     16 O         -26.8264   49.8925   -6.0982 O.2     1  UNL1       -0.2697
     17 N         -26.0873   47.8618   -7.0066 N.am    1  UNL1       -0.2803
     18 H         -25.4584   47.3971   -7.6988 H       1  UNL1        0.1552
     19 C         -26.8061   47.0115   -6.0980 C.ar    1  UNL1        0.0511
     20 C         -28.0882   46.5690   -6.4462 C.ar    1  UNL1        0.0227
     21 C         -28.8229   45.7653   -5.5717 C.ar    1  UNL1        0.0587
     22 I         -30.7498   45.1104   -6.1377 I       1  UNL1       -0.0402
     23 C         -28.2850   45.4043   -4.3308 C.ar    1  UNL1        0.1494
     24 F         -29.0161   44.6342   -3.4842 F       1  UNL1       -0.2038
     25 C         -27.0033   45.8493   -3.9560 C.ar    1  UNL1        0.1004
     26 C         -26.2784   46.6708   -4.8404 C.ar    1  UNL1        0.0208
     27 C         -26.4511   45.4865   -2.5976 C.3     1  UNL1        0.4207
     28 F         -25.2225   46.0971   -2.4249 F       1  UNL1       -0.1658
     29 F         -26.2900   44.1185   -2.4586 F       1  UNL1       -0.1658
     30 F         -27.3155   45.9234   -1.6096 F       1  UNL1       -0.1658
     31 N         -20.5984   53.0571   -9.7914 N.pl3   1  UNL1       -0.2814
     32 H         -20.0977   52.7796  -10.6651 H       1  UNL1        0.1551
     33 C         -20.0898   54.1726   -9.0393 C.ar    1  UNL1        0.0889
     34 C         -20.5164   55.4886   -9.3150 C.ar    1  UNL1        0.1543
     35 F         -21.4004   55.7402  -10.3131 F       1  UNL1       -0.2028
     36 C         -20.0066   56.5623   -8.5790 C.ar    1  UNL1        0.0310
     37 C         -19.0637   56.3406   -7.5743 C.ar    1  UNL1        0.0033
     38 C         -18.6215   55.0443   -7.3047 C.ar    1  UNL1        0.0128
     39 C         -19.1243   53.9610   -8.0346 C.ar    1  UNL1        0.0733
     40 CL        -18.5588   52.3425   -7.6411 Cl      1  UNL1       -0.0809
@<TRIPOS>BOND
     1     1     2    1
     2     2     3   ar
     3     3    31    1
     4    31    33    1
     5    33    34   ar
     6    34    35    1
     7    34    36   ar
     8    36    37   ar
     9    37    38   ar
    10    38    39   ar
    11    39    40    1
    12     3     4   ar
    13     4     5   ar
    14     5     6   ar
    15     6     7   ar
    16     7    15    1
    17    15    16    2
    18    15    17   am
    19    17    19    1
    20    19    20   ar
    21    20    21   ar
    22    21    22    1
    23    21    23   ar
    24    23    24    1
    25    23    25   ar
    26    25    27    1
    27    27    28    1
    28    27    29    1
    29    27    30    1
    30    25    26   ar
    31     7     8   ar
    32     8     9   ar
    33     9    10   ar
    34     9    11    1
    35    11    12    1
    36    12    13    1
    37    13    14    1
    38    10     2   ar
    39    39    33   ar
    40    10     5   ar
    41    26    19   ar
    42    14     8    1
    43    31    32    1
    44    17    18    1
@<TRIPOS>MOLECULE
*****
 40 44 0 0 0
SMALL
GASTEIGER

@<TRIPOS>ATOM
      1 C         -29.8180   46.7372   -7.9149 C.3     1  UNL1        0.1333
      2 N         -28.4962   47.1964   -7.4863 N.ar    1  UNL1       -0.2950
      3 C         -27.6637   46.6405   -6.5620 C.ar    1  UNL1        0.2019
      4 N         -26.4617   47.2634   -6.4654 N.ar    1  UNL1       -0.2134
      5 C         -26.5749   48.2713   -7.3487 C.ar    1  UNL1        0.1033
      6 C         -25.6162   49.2353   -7.6512 C.ar    1  UNL1        0.0284
      7 C         -25.9306   50.2155   -8.6201 C.ar    1  UNL1        0.0922
      8 C         -27.2208   50.2158   -9.2196 C.ar    1  UNL1        0.1782
      9 C         -28.1551   49.2052   -8.9080 C.ar    1  UNL1        0.1897
     10 C         -27.7963   48.2450   -7.9583 C.ar    1  UNL1        0.1173
     11 O         -29.4044   49.2093   -9.5356 O.3     1  UNL1       -0.4669
     12 C         -29.6561   50.0416  -10.6690 C.3     1  UNL1        0.2527
     13 C         -28.9781   51.4039  -10.4837 C.3     1  UNL1        0.2526
     14 O         -27.6106   51.2280  -10.1059 O.3     1  UNL1       -0.4682
     15 C         -24.9251   51.2460   -8.9545 C.2     1  UNL1        0.2526
     16 O         -25.3183   52.4013   -9.2718 O.2     1  UNL1       -0.2697
     17 N         -23.5191   50.9414   -8.9163 N.am    1  UNL1       -0.2803
     18 H         -23.2230   49.9641   -8.6973 H       1  UNL1        0.1552
     19 C         -22.4843   51.8831   -9.2445 C.ar    1  UNL1        0.0511
     20 C         -22.4575   52.4496  -10.5247 C.ar    1  UNL1        0.0227
     21 C         -21.4480   53.3458  -10.8826 C.ar    1  UNL1        0.0587
     22 I         -21.4478   54.1863  -12.8207 I       1  UNL1       -0.0402
     23 C         -20.4451   53.6767   -9.9638 C.ar    1  UNL1        0.1494
     24 F         -19.4615   54.5385  -10.3299 F       1  UNL1       -0.2038
     25 C         -20.4464   53.1083   -8.6761 C.ar    1  UNL1        0.1004
     26 C         -21.4614   52.1952   -8.3321 C.ar    1  UNL1        0.0208
     27 C         -19.3358   53.4422   -7.7081 C.3     1  UNL1        0.4207
     28 F         -19.5487   52.7707   -6.5181 F       1  UNL1       -0.1658
     29 F         -19.2752   54.8003   -7.4464 F       1  UNL1       -0.1658
     30 F         -18.1198   53.0485   -8.2376 F       1  UNL1       -0.1658
     31 N         -27.9903   45.4990   -5.7575 N.pl3   1  UNL1       -0.2814
     32 H         -28.3810   44.6629   -6.2465 H       1  UNL1        0.1551
     33 C         -27.6624   45.3811   -4.3620 C.ar    1  UNL1        0.0889
     34 C         -26.4508   44.7885   -3.9487 C.ar    1  UNL1        0.1543
     35 F         -25.5725   44.2921   -4.8561 F       1  UNL1       -0.2028
     36 C         -26.1510   44.6754   -2.5880 C.ar    1  UNL1        0.0310
     37 C         -27.0534   45.1377   -1.6290 C.ar    1  UNL1        0.0033
     38 C         -28.2630   45.7101   -2.0262 C.ar    1  UNL1        0.0128
     39 C         -28.5748   45.8290   -3.3855 C.ar    1  UNL1        0.0733
     40 CL        -30.0981   46.5823   -3.8396 Cl      1  UNL1       -0.0809
@<TRIPOS>BOND
     1     1     2    1
     2     2     3   ar
     3     3    31    1
     4    31    33    1
     5    33    34   ar
     6    34    35    1
     7    34    36   ar
     8    36    37   ar
     9    37    38   ar
    10    38    39   ar
    11    39    40    1
    12     3     4   ar
    13     4     5   ar
    14     5     6   ar
    15     6     7   ar
    16     7    15    1
    17    15    16    2
    18    15    17   am
    19    17    19    1
    20    19    20   ar
    21    20    21   ar
    22    21    22    1
    23    21    23   ar
    24    23    24    1
    25    23    25   ar
    26    25    27    1
    27    27    28    1
    28    27    29    1
    29    27    30    1
    30    25    26   ar
    31     7     8   ar
    32     8     9   ar
    33     9    10   ar
    34     9    11    1
    35    11    12    1
    36    12    13    1
    37    13    14    1
    38    10     2   ar
    39    39    33   ar
    40    10     5   ar
    41    26    19   ar
    42    14     8    1
    43    31    32    1
    44    17    18    1
@<TRIPOS>MOLECULE
*****
 40 44 0 0 0
SMALL
GASTEIGER

@<TRIPOS>ATOM
      1 C         -22.7715   53.2308  -11.7540 C.3     1  UNL1        0.1333
      2 N         -22.6244   52.6064  -10.4387 N.ar    1  UNL1       -0.2950
      3 C         -21.5895   52.7152   -9.5590 C.ar    1  UNL1        0.2019
      4 N         -21.8069   52.0804   -8.3792 N.ar    1  UNL1       -0.2134
      5 C         -23.0196   51.5263   -8.5563 C.ar    1  UNL1        0.1033
      6 C         -23.7300   50.7497   -7.6442 C.ar    1  UNL1        0.0284
      7 C         -25.0009   50.2605   -8.0238 C.ar    1  UNL1        0.0922
      8 C         -25.4931   50.5354   -9.3299 C.ar    1  UNL1        0.1782
      9 C         -24.7563   51.3502  -10.2157 C.ar    1  UNL1        0.1897
     10 C         -23.5130   51.8280   -9.7931 C.ar    1  UNL1        0.1173
     11 O         -25.2774   51.6322  -11.4820 O.3     1  UNL1       -0.4669
     12 C         -26.6404   51.3440  -11.7981 C.3     1  UNL1        0.2527
     13 C         -27.0572   50.0105  -11.1672 C.3     1  UNL1        0.2526
     14 O         -26.6986   49.9849   -9.7836 O.3     1  UNL1       -0.4682
     15 C         -25.7696   49.4354   -7.0683 C.2     1  UNL1        0.2526
     16 O         -26.2635   49.9859   -6.0469 O.2     1  UNL1       -0.2697
     17 N         -25.9573   48.0271   -7.2978 N.am    1  UNL1       -0.2803
     18 H         -25.4971   47.5878   -8.1260 H       1  UNL1        0.1552
     19 C         -26.6758   47.1573   -6.4076 C.ar    1  UNL1        0.0511
     20 C         -26.0124   46.6137   -5.3007 C.ar    1  UNL1        0.0227
     21 C         -26.6758   45.7425   -4.4338 C.ar    1  UNL1        0.0587
     22 I         -25.6430   44.9509   -2.7697 I       1  UNL1       -0.0402
     23 C         -28.0109   45.3963   -4.6727 C.ar    1  UNL1        0.1494
     24 F         -28.6394   44.5369   -3.8297 F       1  UNL1       -0.2038
     25 C         -28.6920   45.9214   -5.7870 C.ar    1  UNL1        0.1004
     26 C         -28.0081   46.7873   -6.6615 C.ar    1  UNL1        0.0208
     27 C         -30.1197   45.5079   -6.0562 C.3     1  UNL1        0.4207
     28 F         -30.5703   46.1376   -7.2019 F       1  UNL1       -0.1658
     29 F         -30.9573   45.8443   -5.0065 F       1  UNL1       -0.1658
     30 F         -30.1832   44.1379   -6.2390 F       1  UNL1       -0.1658
     31 N         -20.3755   53.4334   -9.8184 N.pl3   1  UNL1       -0.2814
     32 H         -19.9180   53.2840  -10.7454 H       1  UNL1        0.1551
     33 C         -19.8485   54.4560   -8.9551 C.ar    1  UNL1        0.0889
     34 C         -18.8692   54.1538   -7.9858 C.ar    1  UNL1        0.1543
     35 F         -18.4151   52.8852   -7.8256 F       1  UNL1       -0.2028
     36 C         -18.3728   55.1584   -7.1500 C.ar    1  UNL1        0.0310
     37 C         -18.8510   56.4648   -7.2612 C.ar    1  UNL1        0.0033
     38 C         -19.8326   56.7716   -8.2052 C.ar    1  UNL1        0.0128
     39 C         -20.3376   55.7746   -9.0478 C.ar    1  UNL1        0.0733
     40 CL        -21.5533   56.2134  -10.2409 Cl      1  UNL1       -0.0809
@<TRIPOS>BOND
     1     1     2    1
     2     2     3   ar
     3     3    31    1
     4    31    33    1
     5    33    34   ar
     6    34    35    1
     7    34    36   ar
     8    36    37   ar
     9    37    38   ar
    10    38    39   ar
    11    39    40    1
    12     3     4   ar
    13     4     5   ar
    14     5     6   ar
    15     6     7   ar
    16     7    15    1
    17    15    16    2
    18    15    17   am
    19    17    19    1
    20    19    20   ar
    21    20    21   ar
    22    21    22    1
    23    21    23   ar
    24    23    24    1
    25    23    25   ar
    26    25    27    1
    27    27    28    1
    28    27    29    1
    29    27    30    1
    30    25    26   ar
    31     7     8   ar
    32     8     9   ar
    33     9    10   ar
    34     9    11    1
    35    11    12    1
    36    12    13    1
    37    13    14    1
    38    10     2   ar
    39    39    33   ar
    40    10     5   ar
    41    26    19   ar
    42    14     8    1
    43    31    32    1
    44    17    18    1
@<TRIPOS>MOLECULE
*****
 40 44 0 0 0
SMALL
GASTEIGER

@<TRIPOS>ATOM
      1 C         -30.7779   48.3602   -7.4096 C.3     1  UNL1        0.1333
      2 N         -29.4436   48.7509   -6.9529 N.ar    1  UNL1       -0.2950
      3 C         -28.7893   48.3691   -5.8203 C.ar    1  UNL1        0.2019
      4 N         -27.5190   48.8403   -5.7387 N.ar    1  UNL1       -0.2134
      5 C         -27.3996   49.5751   -6.8589 C.ar    1  UNL1        0.1033
      6 C         -26.2822   50.2930   -7.2779 C.ar    1  UNL1        0.0284
      7 C         -26.3577   51.0030   -8.4980 C.ar    1  UNL1        0.0922
      8 C         -27.5757   51.0001   -9.2330 C.ar    1  UNL1        0.1782
      9 C         -28.6772   50.2372   -8.7903 C.ar    1  UNL1        0.1897
     10 C         -28.5532   49.5356   -7.5882 C.ar    1  UNL1        0.1173
     11 O         -29.8520   50.2252   -9.5481 O.3     1  UNL1       -0.4669
     12 C         -29.8741   50.7414  -10.8800 C.3     1  UNL1        0.2527
     13 C         -29.0142   52.0074  -10.9691 C.3     1  UNL1        0.2526
     14 O         -27.7277   51.7726  -10.3916 O.3     1  UNL1       -0.4682
     15 C         -25.1812   51.7699   -8.9589 C.2     1  UNL1        0.2526
     16 O         -25.3627   52.8731   -9.5421 O.2     1  UNL1       -0.2697
     17 N         -23.8482   51.2715   -8.7443 N.am    1  UNL1       -0.2803
     18 H         -23.7285   50.3330   -8.3021 H       1  UNL1        0.1552
     19 C         -22.6579   51.9498   -9.1782 C.ar    1  UNL1        0.0511
     20 C         -22.6285   52.5303  -10.4521 C.ar    1  UNL1        0.0227
     21 C         -21.4764   53.1713  -10.9129 C.ar    1  UNL1        0.0587
     22 I         -21.4750   54.0431  -12.8371 I       1  UNL1       -0.0402
     23 C         -20.3343   53.2282  -10.1055 C.ar    1  UNL1        0.1494
     24 F         -19.2163   53.8421  -10.5718 F       1  UNL1       -0.2038
     25 C         -20.3387   52.6396   -8.8269 C.ar    1  UNL1        0.1004
     26 C         -21.5016   51.9839   -8.3794 C.ar    1  UNL1        0.0208
     27 C         -19.0869   52.6723   -7.9821 C.3     1  UNL1        0.4207
     28 F         -18.1398   51.8298   -8.5345 F       1  UNL1       -0.1658
     29 F         -19.3357   52.2680   -6.6816 F       1  UNL1       -0.1658
     30 F         -18.5805   53.9593   -7.9461 F       1  UNL1       -0.1658
     31 N         -29.3552   47.5402   -4.7959 N.pl3   1  UNL1       -0.2814
     32 H         -30.3872   47.5993   -4.6460 H       1  UNL1        0.1551
     33 C         -28.6203   46.5276   -4.0865 C.ar    1  UNL1        0.0889
     34 C         -27.9856   46.8165   -2.8603 C.ar    1  UNL1        0.1543
     35 F         -28.0312   48.0640   -2.3286 F       1  UNL1       -0.2028
     36 C         -27.2693   45.8224   -2.1872 C.ar    1  UNL1        0.0310
     37 C         -27.1678   44.5404   -2.7296 C.ar    1  UNL1        0.0033
     38 C         -27.7773   44.2481   -3.9509 C.ar    1  UNL1        0.0128
     39 C         -28.4973   45.2348   -4.6344 C.ar    1  UNL1        0.0733
     40 CL        -29.2718   44.8131   -6.1563 Cl      1  UNL1       -0.0809
@<TRIPOS>BOND
     1     1     2    1
     2     2     3   ar
     3     3    31    1
     4    31    33    1
     5    33    34   ar
     6    34    35    1
     7    34    36   ar
     8    36    37   ar
     9    37    38   ar
    10    38    39   ar
    11    39    40    1
    12     3     4   ar
    13     4     5   ar
    14     5     6   ar
    15     6     7   ar
    16     7    15    1
    17    15    16    2
    18    15    17   am
    19    17    19    1
    20    19    20   ar
    21    20    21   ar
    22    21    22    1
    23    21    23   ar
    24    23    24    1
    25    23    25   ar
    26    25    27    1
    27    27    28    1
    28    27    29    1
    29    27    30    1
    30    25    26   ar
    31     7     8   ar
    32     8     9   ar
    33     9    10   ar
    34     9    11    1
    35    11    12    1
    36    12    13    1
    37    13    14    1
    38    10     2   ar
    39    39    33   ar
    40    10     5   ar
    41    26    19   ar
    42    14     8    1
    43    31    32    1
    44    17    18    1
