@<TRIPOS>MOLECULE
*****
 57 64 0 0 0
SMALL
GASTEIGER

@<TRIPOS>ATOM
      1 O          60.5172   86.6183   15.5191 O.3     1  UNL1       -0.4727
      2 C          60.4498   87.2076   14.2459 C.ar    1  UNL1        0.1388
      3 C          61.5741   87.7540   13.5972 C.ar    1  UNL1        0.0382
      4 C          61.4462   88.3303   12.3301 C.ar    1  UNL1        0.0176
      5 C          60.1995   88.3675   11.6874 C.ar    1  UNL1        0.0481
      6 C          59.0803   87.8190   12.3340 C.ar    1  UNL1        0.0176
      7 C          59.2086   87.2423   13.6005 C.ar    1  UNL1        0.0382
      8 N          60.0748   88.9680   10.3845 N.pl3   1  UNL1       -0.3041
      9 C          60.5285   90.3445   10.1522 C.3     1  UNL1        0.1122
     10 C          61.1730   90.4559    8.7701 C.3     1  UNL1        0.1122
     11 N          60.3073   89.8393    7.7576 N.pl3   1  UNL1       -0.3041
     12 C          59.8533   88.4630    7.9901 C.3     1  UNL1        0.1122
     13 C          59.2087   88.3517    9.3721 C.3     1  UNL1        0.1122
     14 C          60.1872   90.4373    6.4531 C.ar    1  UNL1        0.0480
     15 C          58.9237   90.7779    5.9474 C.ar    1  UNL1        0.0160
     16 C          58.7993   91.3549    4.6805 C.ar    1  UNL1        0.0190
     17 C          59.9376   91.5989    3.8929 C.ar    1  UNL1        0.0699
     18 C          61.2027   91.2629    4.4041 C.ar    1  UNL1        0.0190
     19 C          61.3262   90.6838    5.6700 C.ar    1  UNL1        0.0160
     20 N          59.8172   92.1991    2.5886 N.ar    1  UNL1       -0.2398
     21 C          58.7224   92.7764    2.0427 C.ar    1  UNL1        0.2073
     22 N          58.9767   93.2559    0.8058 N.ar    1  UNL1       -0.1442
     23 N          60.2477   92.9778    0.5511 N.ar    1  UNL1       -0.2024
     24 C          60.7528   92.3555    1.6311 C.ar    1  UNL1        0.3522
     25 O          61.9587   92.0057    1.7451 O.2     1  UNL1       -0.2444
     26 C          60.9780   93.3890   -0.6546 C.3     1  UNL1        0.1099
     27 C          60.0359   93.5142   -1.8604 C.3     1  UNL1        0.0265
     28 C          61.7891   94.6777   -0.4001 C.3     1  UNL1        0.0245
     29 C          63.3048   94.4689   -0.3709 C.3     1  UNL1        0.0021
     30 C          61.6284   85.8864   16.0375 C.3     1  UNL1        0.2374
     31 C          61.7277   83.4801   13.4997 C.3     1  UNL1        0.2315
     32 O          62.8765   83.0554   14.2062 O.3     1  UNL1       -0.3266
     33 C          62.9831   83.8885   15.3128 C.3     1  UNL1        0.1783
     34 C          61.6056   84.4374   15.5341 C.3     1  UNL1        0.1909
     35 O          60.9659   84.3673   14.2992 O.3     1  UNL1       -0.3254
     36 C          60.8426   82.2887   13.1110 C.ar    1  UNL1        0.0410
     37 C          61.3383   80.9899   13.3635 C.ar    1  UNL1        0.0022
     38 C          60.5850   79.8555   13.0607 C.ar    1  UNL1        0.0113
     39 C          59.3112   79.9878   12.5136 C.ar    1  UNL1        0.0585
     40 CL         58.3647   78.5598   12.1365 Cl      1  UNL1       -0.0822
     41 C          58.7848   81.2575   12.2787 C.ar    1  UNL1        0.0226
     42 C          59.5267   82.4084   12.5774 C.ar    1  UNL1        0.0591
     43 CL         58.7220   83.9455   12.2748 Cl      1  UNL1       -0.0824
     44 C          62.1609   84.2488   12.2322 C.3     1  UNL1        0.1914
     45 C          63.1593   82.8570   10.3554 C.ar    1  UNL1        0.1837
     46 N          64.3931   82.4691    9.9825 N.ar    1  UNL1       -0.1081
     47 N          65.2037   82.9451   10.9187 N.ar    1  UNL1       -0.0227
     48 N          64.5060   83.6019   11.8337 N.ar    1  UNL1       -0.0427
     49 N          63.2269   83.5545   11.5073 N.ar    1  UNL1       -0.2079
     50 C          61.2386   83.4784    8.8215 C.ar    1  UNL1       -0.0192
     51 C          60.0713   83.0918    8.1389 C.ar    1  UNL1       -0.0042
     52 C          59.5859   81.7873    8.2406 C.ar    1  UNL1       -0.0003
     53 C          60.2655   80.8473    9.0133 C.ar    1  UNL1        0.0001
     54 C          61.4308   81.2093    9.6901 C.ar    1  UNL1        0.0028
     55 C          61.9247   82.5222    9.6142 C.ar    1  UNL1        0.0334
     56 C          62.5980   85.0527    7.4317 C.3     1  UNL1        0.0050
     57 C          61.7200   84.9027    8.6702 C.3     1  UNL1        0.0265
@<TRIPOS>BOND
     1    56    57    1
     2    57    50    1
     3    50    51   ar
     4    51    52   ar
     5    52    53   ar
     6    53    54   ar
     7    54    55   ar
     8    55    45    1
     9    45    46   ar
    10    46    47   ar
    11    47    48   ar
    12    48    49   ar
    13    49    44    1
    14    31    44    1
    15    31    36    1
    16    36    37   ar
    17    37    38   ar
    18    38    39   ar
    19    39    40    1
    20    39    41   ar
    21    41    42   ar
    22    42    43    1
    23    31    32    1
    24    32    33    1
    25    33    34    1
    26    34    30    1
    27    30     1    1
    28     1     2    1
    29     2     3   ar
    30     3     4   ar
    31     4     5   ar
    32     5     8    1
    33     8     9    1
    34     9    10    1
    35    10    11    1
    36    11    14    1
    37    14    15   ar
    38    15    16   ar
    39    16    17   ar
    40    17    20    1
    41    20    21   ar
    42    21    22   ar
    43    22    23   ar
    44    23    26    1
    45    26    27    1
    46    26    28    1
    47    28    29    1
    48    23    24   ar
    49    24    25    2
    50    17    18   ar
    51    18    19   ar
    52    11    12    1
    53    12    13    1
    54     5     6   ar
    55     6     7   ar
    56    34    35    1
    57    55    50   ar
    58    49    45   ar
    59    35    31    1
    60    42    36   ar
    61     7     2   ar
    62    13     8    1
    63    19    14   ar
    64    24    20   ar
@<TRIPOS>MOLECULE
*****
 57 64 0 0 0
SMALL
GASTEIGER

@<TRIPOS>ATOM
      1 O          58.1089   81.2302   13.4244 O.3     1  UNL1       -0.4727
      2 C          58.2219   82.3517   12.5863 C.ar    1  UNL1        0.1388
      3 C          58.3119   83.6675   13.0800 C.ar    1  UNL1        0.0382
      4 C          58.4203   84.7460   12.1973 C.ar    1  UNL1        0.0176
      5 C          58.4454   84.5315   10.8109 C.ar    1  UNL1        0.0481
      6 C          58.3591   83.2186   10.3205 C.ar    1  UNL1        0.0176
      7 C          58.2515   82.1407   11.2032 C.ar    1  UNL1        0.0382
      8 N          58.5515   85.6482    9.9078 N.pl3   1  UNL1       -0.3041
      9 C          58.7846   87.0029   10.4224 C.3     1  UNL1        0.1122
     10 C          59.7316   87.7600    9.4908 C.3     1  UNL1        0.1122
     11 N          59.2876   87.6225    8.0983 N.pl3   1  UNL1       -0.3041
     12 C          59.0542   86.2679    7.5838 C.3     1  UNL1        0.1122
     13 C          58.1071   85.5109    8.5154 C.3     1  UNL1        0.1122
     14 C          59.3990   88.7379    7.1944 C.ar    1  UNL1        0.0480
     15 C          60.6488   89.3285    6.9544 C.ar    1  UNL1        0.0160
     16 C          60.7639   90.4139    6.0814 C.ar    1  UNL1        0.0190
     17 C          59.6289   90.9321    5.4340 C.ar    1  UNL1        0.0699
     18 C          58.3791   90.3348    5.6709 C.ar    1  UNL1        0.0190
     19 C          58.2645   89.2511    6.5458 C.ar    1  UNL1        0.0160
     20 N          59.7412   92.0469    4.5281 N.ar    1  UNL1       -0.2398
     21 C          59.0277   93.1960    4.5398 C.ar    1  UNL1        0.2073
     22 N          59.4148   94.0325    3.5523 N.ar    1  UNL1       -0.1442
     23 N          60.3836   93.4112    2.8944 N.ar    1  UNL1       -0.2024
     24 C          60.5864   92.2242    3.4933 C.ar    1  UNL1        0.3522
     25 O          61.4833   91.4058    3.1537 O.2     1  UNL1       -0.2444
     26 C          61.1572   93.9863    1.7867 C.3     1  UNL1        0.1099
     27 C          62.5932   93.4431    1.7697 C.3     1  UNL1        0.0265
     28 C          60.4315   93.7846    0.4391 C.3     1  UNL1        0.0245
     29 C          60.5821   92.3802   -0.1499 C.3     1  UNL1        0.0021
     30 C          59.1689   80.3342   13.7598 C.3     1  UNL1        0.2374
     31 C          61.9191   82.3916   13.0936 C.3     1  UNL1        0.2315
     32 O          62.6376   81.2237   13.4382 O.3     1  UNL1       -0.3266
     33 C          61.6870   80.2452   13.7009 C.3     1  UNL1        0.1783
     34 C          60.4459   80.6921   12.9885 C.3     1  UNL1        0.1909
     35 O          60.5586   82.0740   12.8597 O.3     1  UNL1       -0.3254
     36 C          62.4936   83.0446   11.8296 C.ar    1  UNL1        0.0410
     37 C          61.6844   83.9790   11.1451 C.ar    1  UNL1        0.0022
     38 C          62.1427   84.6336   10.0016 C.ar    1  UNL1        0.0113
     39 C          63.4259   84.3853    9.5210 C.ar    1  UNL1        0.0585
     40 CL         64.0009   85.2119    8.0846 Cl      1  UNL1       -0.0822
     41 C          64.2571   83.4886   10.1914 C.ar    1  UNL1        0.0226
     42 C          63.8142   82.8225   11.3422 C.ar    1  UNL1        0.0591
     43 CL         64.9831   81.7553   12.1144 Cl      1  UNL1       -0.0824
     44 C          61.9698   83.3903   14.2706 C.3     1  UNL1        0.1914
     45 C          63.6281   85.3129   14.3694 C.ar    1  UNL1        0.1837
     46 N          64.9381   85.4544   14.6448 N.ar    1  UNL1       -0.1081
     47 N          65.3828   84.2224   14.8558 N.ar    1  UNL1       -0.0227
     48 N          64.3934   83.3518   14.7193 N.ar    1  UNL1       -0.0427
     49 N          63.2899   84.0083   14.4089 N.ar    1  UNL1       -0.2079
     50 C          61.7968   86.9577   14.9765 C.ar    1  UNL1       -0.0192
     51 C          60.9684   88.0290   14.5970 C.ar    1  UNL1       -0.0042
     52 C          61.0487   88.5713   13.3136 C.ar    1  UNL1       -0.0003
     53 C          61.9654   88.0615   12.3959 C.ar    1  UNL1        0.0001
     54 C          62.8027   87.0053   12.7571 C.ar    1  UNL1        0.0028
     55 C          62.7239   86.4346   14.0383 C.ar    1  UNL1        0.0334
     56 C          62.6583   87.0966   17.3209 C.3     1  UNL1        0.0050
     57 C          61.6693   86.4145   16.3808 C.3     1  UNL1        0.0265
@<TRIPOS>BOND
     1    56    57    1
     2    57    50    1
     3    50    51   ar
     4    51    52   ar
     5    52    53   ar
     6    53    54   ar
     7    54    55   ar
     8    55    45    1
     9    45    46   ar
    10    46    47   ar
    11    47    48   ar
    12    48    49   ar
    13    49    44    1
    14    31    44    1
    15    31    36    1
    16    36    37   ar
    17    37    38   ar
    18    38    39   ar
    19    39    40    1
    20    39    41   ar
    21    41    42   ar
    22    42    43    1
    23    31    32    1
    24    32    33    1
    25    33    34    1
    26    34    30    1
    27    30     1    1
    28     1     2    1
    29     2     3   ar
    30     3     4   ar
    31     4     5   ar
    32     5     8    1
    33     8     9    1
    34     9    10    1
    35    10    11    1
    36    11    14    1
    37    14    15   ar
    38    15    16   ar
    39    16    17   ar
    40    17    20    1
    41    20    21   ar
    42    21    22   ar
    43    22    23   ar
    44    23    26    1
    45    26    27    1
    46    26    28    1
    47    28    29    1
    48    23    24   ar
    49    24    25    2
    50    17    18   ar
    51    18    19   ar
    52    11    12    1
    53    12    13    1
    54     5     6   ar
    55     6     7   ar
    56    34    35    1
    57    55    50   ar
    58    49    45   ar
    59    35    31    1
    60    42    36   ar
    61     7     2   ar
    62    13     8    1
    63    19    14   ar
    64    24    20   ar
@<TRIPOS>MOLECULE
*****
 57 64 0 0 0
SMALL
GASTEIGER

@<TRIPOS>ATOM
      1 O          60.3903   86.8343   15.1290 O.3     1  UNL1       -0.4727
      2 C          60.3750   87.3203   13.8113 C.ar    1  UNL1        0.1388
      3 C          59.3469   87.0170   12.8978 C.ar    1  UNL1        0.0382
      4 C          59.3860   87.5278   11.5971 C.ar    1  UNL1        0.0176
      5 C          60.4454   88.3514   11.1872 C.ar    1  UNL1        0.0481
      6 C          61.4677   88.6557   12.1004 C.ar    1  UNL1        0.0176
      7 C          61.4280   88.1456   13.4008 C.ar    1  UNL1        0.0382
      8 N          60.4815   88.8691    9.8439 N.pl3   1  UNL1       -0.3041
      9 C          59.9475   88.0804    8.7271 C.3     1  UNL1        0.1122
     10 C          59.2378   88.9985    7.7314 C.3     1  UNL1        0.1122
     11 N          60.0889   90.1511    7.4116 N.pl3   1  UNL1       -0.3041
     12 C          60.6231   90.9395    8.5284 C.3     1  UNL1        0.1122
     13 C          61.3328   90.0214    9.5239 C.3     1  UNL1        0.1122
     14 C          60.1203   90.6716    6.0693 C.ar    1  UNL1        0.0480
     15 C          61.3102   90.6357    5.3270 C.ar    1  UNL1        0.0160
     16 C          61.3492   91.1427    4.0252 C.ar    1  UNL1        0.0190
     17 C          60.1980   91.6996    3.4419 C.ar    1  UNL1        0.0699
     18 C          59.0055   91.7287    4.1849 C.ar    1  UNL1        0.0190
     19 C          58.9679   91.2236    5.4874 C.ar    1  UNL1        0.0160
     20 N          60.2294   92.2186    2.0981 N.ar    1  UNL1       -0.2398
     21 C          60.5364   91.5517    0.9620 C.ar    1  UNL1        0.2073
     22 N          60.4426   92.3491   -0.1243 N.ar    1  UNL1       -0.1442
     23 N          60.0775   93.5439    0.3195 N.ar    1  UNL1       -0.2024
     24 C          59.9365   93.4570    1.6542 C.ar    1  UNL1        0.3522
     25 O          59.5381   94.4036    2.3854 O.2     1  UNL1       -0.2444
     26 C          59.7766   94.7049   -0.5277 C.3     1  UNL1        0.1099
     27 C          60.5105   94.6170   -1.8735 C.3     1  UNL1        0.0265
     28 C          58.2531   94.8904   -0.6947 C.3     1  UNL1        0.0245
     29 C          57.4993   93.6047   -1.0420 C.3     1  UNL1        0.0021
     30 C          61.4810   86.1532   15.7501 C.3     1  UNL1        0.2374
     31 C          61.6704   83.5876   13.3789 C.3     1  UNL1        0.2315
     32 O          62.8190   83.2383   14.1256 O.3     1  UNL1       -0.3266
     33 C          62.8913   84.1449   15.1758 C.3     1  UNL1        0.1783
     34 C          61.4986   84.6740   15.3437 C.3     1  UNL1        0.1909
     35 O          60.8774   84.5072   14.1086 O.3     1  UNL1       -0.3254
     36 C          60.8184   82.3523   13.0595 C.ar    1  UNL1        0.0410
     37 C          61.3576   81.0830   13.3671 C.ar    1  UNL1        0.0022
     38 C          60.6366   79.9127   13.1291 C.ar    1  UNL1        0.0113
     39 C          59.3529   79.9792   12.5935 C.ar    1  UNL1        0.0585
     40 CL         58.4471   78.5063   12.2979 Cl      1  UNL1       -0.0822
     41 C          58.7841   81.2193   12.3053 C.ar    1  UNL1        0.0226
     42 C          59.4931   82.4056   12.5386 C.ar    1  UNL1        0.0591
     43 CL         58.6370   83.9008   12.1738 Cl      1  UNL1       -0.0824
     44 C          62.1027   84.2812   12.0685 C.3     1  UNL1        0.1914
     45 C          63.0841   82.8023   10.2502 C.ar    1  UNL1        0.1837
     46 N          64.3117   82.3744    9.9016 N.ar    1  UNL1       -0.1081
     47 N          65.1256   82.8653   10.8272 N.ar    1  UNL1       -0.0227
     48 N          64.4357   83.5692   11.7127 N.ar    1  UNL1       -0.0427
     49 N          63.1584   83.5384   11.3774 N.ar    1  UNL1       -0.2079
     50 C          61.1642   83.4243    8.7157 C.ar    1  UNL1       -0.0192
     51 C          59.9952   83.0389    8.0352 C.ar    1  UNL1       -0.0042
     52 C          59.5063   81.7361    8.1412 C.ar    1  UNL1       -0.0003
     53 C          60.1836   80.7966    8.9164 C.ar    1  UNL1        0.0001
     54 C          61.3505   81.1574    9.5912 C.ar    1  UNL1        0.0028
     55 C          61.8481   82.4687    9.5109 C.ar    1  UNL1        0.0334
     56 C          62.8050   84.9226    7.5665 C.3     1  UNL1        0.0050
     57 C          61.6494   84.8468    8.5597 C.3     1  UNL1        0.0265
@<TRIPOS>BOND
     1    56    57    1
     2    57    50    1
     3    50    51   ar
     4    51    52   ar
     5    52    53   ar
     6    53    54   ar
     7    54    55   ar
     8    55    45    1
     9    45    46   ar
    10    46    47   ar
    11    47    48   ar
    12    48    49   ar
    13    49    44    1
    14    31    44    1
    15    31    36    1
    16    36    37   ar
    17    37    38   ar
    18    38    39   ar
    19    39    40    1
    20    39    41   ar
    21    41    42   ar
    22    42    43    1
    23    31    32    1
    24    32    33    1
    25    33    34    1
    26    34    30    1
    27    30     1    1
    28     1     2    1
    29     2     3   ar
    30     3     4   ar
    31     4     5   ar
    32     5     8    1
    33     8     9    1
    34     9    10    1
    35    10    11    1
    36    11    14    1
    37    14    15   ar
    38    15    16   ar
    39    16    17   ar
    40    17    20    1
    41    20    21   ar
    42    21    22   ar
    43    22    23   ar
    44    23    26    1
    45    26    27    1
    46    26    28    1
    47    28    29    1
    48    23    24   ar
    49    24    25    2
    50    17    18   ar
    51    18    19   ar
    52    11    12    1
    53    12    13    1
    54     5     6   ar
    55     6     7   ar
    56    34    35    1
    57    55    50   ar
    58    49    45   ar
    59    35    31    1
    60    42    36   ar
    61     7     2   ar
    62    13     8    1
    63    19    14   ar
    64    24    20   ar
@<TRIPOS>MOLECULE
*****
 57 64 0 0 0
SMALL
GASTEIGER

@<TRIPOS>ATOM
      1 O          59.5871   84.7778   13.6720 O.3     1  UNL1       -0.4727
      2 C          59.6481   85.5466   12.4981 C.ar    1  UNL1        0.1388
      3 C          59.4403   85.0008   11.2166 C.ar    1  UNL1        0.0382
      4 C          59.5159   85.8149   10.0827 C.ar    1  UNL1        0.0176
      5 C          59.7945   87.1844   10.2068 C.ar    1  UNL1        0.0481
      6 C          59.9977   87.7277   11.4856 C.ar    1  UNL1        0.0176
      7 C          59.9214   86.9138   12.6189 C.ar    1  UNL1        0.0382
      8 N          59.8763   88.0154    9.0335 N.pl3   1  UNL1       -0.3041
      9 C          59.5191   87.4793    7.7146 C.3     1  UNL1        0.1122
     10 C          58.7913   88.5465    6.8964 C.3     1  UNL1        0.1122
     11 N          59.5328   89.8125    6.9439 N.pl3   1  UNL1       -0.3041
     12 C          59.8902   90.3485    8.2628 C.3     1  UNL1        0.1122
     13 C          60.6181   89.2813    9.0809 C.3     1  UNL1        0.1122
     14 C          59.6096   90.6456    5.7719 C.ar    1  UNL1        0.0480
     15 C          60.8268   90.7923    5.0899 C.ar    1  UNL1        0.0160
     16 C          60.9097   91.6023    3.9540 C.ar    1  UNL1        0.0190
     17 C          59.7760   92.2851    3.4804 C.ar    1  UNL1        0.0699
     18 C          58.5563   92.1316    4.1614 C.ar    1  UNL1        0.0190
     19 C          58.4747   91.3233    5.2985 C.ar    1  UNL1        0.0160
     20 N          59.8529   93.1170    2.3066 N.ar    1  UNL1       -0.2398
     21 C          60.1197   94.4418    2.2489 C.ar    1  UNL1        0.2073
     22 N          60.1335   94.8920    0.9755 N.ar    1  UNL1       -0.1442
     23 N          59.8660   93.8459    0.2062 N.ar    1  UNL1       -0.2024
     24 C          59.7124   92.7783    1.0096 C.ar    1  UNL1        0.3522
     25 O          59.5077   91.6056    0.5944 O.2     1  UNL1       -0.2444
     26 C          59.8588   93.8559   -1.2621 C.3     1  UNL1        0.1099
     27 C          61.2008   93.3710   -1.8287 C.3     1  UNL1        0.0265
     28 C          58.6587   93.0588   -1.8169 C.3     1  UNL1        0.0245
     29 C          57.3123   93.7719   -1.6736 C.3     1  UNL1        0.0021
     30 C          60.1186   83.4620   13.8312 C.3     1  UNL1        0.2374
     31 C          60.3303   81.4073   11.0075 C.3     1  UNL1        0.2315
     32 O          59.9332   80.4146   11.9326 O.3     1  UNL1       -0.3266
     33 C          59.7477   81.0651   13.1461 C.3     1  UNL1        0.1783
     34 C          59.5141   82.5042   12.7964 C.3     1  UNL1        0.1909
     35 O          60.1150   82.6959   11.5550 O.3     1  UNL1       -0.3254
     36 C          59.5401   81.2937    9.6973 C.ar    1  UNL1        0.0410
     37 C          59.9884   82.0488    8.5903 C.ar    1  UNL1        0.0022
     38 C          59.3387   81.9826    7.3576 C.ar    1  UNL1        0.0113
     39 C          58.2353   81.1493    7.1927 C.ar    1  UNL1        0.0585
     40 CL         57.4219   81.0656    5.6407 Cl      1  UNL1       -0.0822
     41 C          57.7867   80.3717    8.2598 C.ar    1  UNL1        0.0226
     42 C          58.4274   80.4244    9.5052 C.ar    1  UNL1        0.0591
     43 CL         57.7859   79.3553   10.7490 Cl      1  UNL1       -0.0824
     44 C          61.8419   81.2674   10.7234 C.3     1  UNL1        0.1914
     45 C          63.1459   83.0383   11.9961 C.ar    1  UNL1        0.1837
     46 N          63.7566   83.1244   13.1925 N.ar    1  UNL1       -0.1081
     47 N          63.6248   81.9215   13.7362 N.ar    1  UNL1       -0.0227
     48 N          62.9602   81.1215   12.9154 N.ar    1  UNL1       -0.0427
     49 N          62.6569   81.7942   11.8198 N.ar    1  UNL1       -0.2079
     50 C          62.9998   85.5049   11.4283 C.ar    1  UNL1       -0.0192
     51 C          62.9334   86.5114   10.4482 C.ar    1  UNL1       -0.0042
     52 C          62.9307   86.1849    9.0913 C.ar    1  UNL1       -0.0003
     53 C          63.0076   84.8515    8.6934 C.ar    1  UNL1        0.0001
     54 C          63.0840   83.8393    9.6509 C.ar    1  UNL1        0.0028
     55 C          63.0699   84.1473   11.0215 C.ar    1  UNL1        0.0334
     56 C          63.5236   87.3434   13.0417 C.3     1  UNL1        0.0050
     57 C          63.0045   85.9178   12.8818 C.3     1  UNL1        0.0265
@<TRIPOS>BOND
     1    56    57    1
     2    57    50    1
     3    50    51   ar
     4    51    52   ar
     5    52    53   ar
     6    53    54   ar
     7    54    55   ar
     8    55    45    1
     9    45    46   ar
    10    46    47   ar
    11    47    48   ar
    12    48    49   ar
    13    49    44    1
    14    31    44    1
    15    31    36    1
    16    36    37   ar
    17    37    38   ar
    18    38    39   ar
    19    39    40    1
    20    39    41   ar
    21    41    42   ar
    22    42    43    1
    23    31    32    1
    24    32    33    1
    25    33    34    1
    26    34    30    1
    27    30     1    1
    28     1     2    1
    29     2     3   ar
    30     3     4   ar
    31     4     5   ar
    32     5     8    1
    33     8     9    1
    34     9    10    1
    35    10    11    1
    36    11    14    1
    37    14    15   ar
    38    15    16   ar
    39    16    17   ar
    40    17    20    1
    41    20    21   ar
    42    21    22   ar
    43    22    23   ar
    44    23    26    1
    45    26    27    1
    46    26    28    1
    47    28    29    1
    48    23    24   ar
    49    24    25    2
    50    17    18   ar
    51    18    19   ar
    52    11    12    1
    53    12    13    1
    54     5     6   ar
    55     6     7   ar
    56    34    35    1
    57    55    50   ar
    58    49    45   ar
    59    35    31    1
    60    42    36   ar
    61     7     2   ar
    62    13     8    1
    63    19    14   ar
    64    24    20   ar
@<TRIPOS>MOLECULE
*****
 57 64 0 0 0
SMALL
GASTEIGER

@<TRIPOS>ATOM
      1 O          60.5349   86.7506   15.3468 O.3     1  UNL1       -0.4727
      2 C          60.4968   87.2556   14.0367 C.ar    1  UNL1        0.1388
      3 C          59.3521   87.1743   13.2204 C.ar    1  UNL1        0.0382
      4 C          59.3735   87.6927   11.9223 C.ar    1  UNL1        0.0176
      5 C          60.5318   88.3036   11.4186 C.ar    1  UNL1        0.0481
      6 C          61.6711   88.3870   12.2351 C.ar    1  UNL1        0.0176
      7 C          61.6492   87.8693   13.5330 C.ar    1  UNL1        0.0382
      8 N          60.5477   88.8301   10.0783 N.pl3   1  UNL1       -0.3041
      9 C          60.1679   87.9837    8.9409 C.3     1  UNL1        0.1122
     10 C          59.3782   88.8037    7.9201 C.3     1  UNL1        0.1122
     11 N          60.0765   90.0629    7.6346 N.pl3   1  UNL1       -0.3041
     12 C          60.4565   90.9092    8.7720 C.3     1  UNL1        0.1122
     13 C          61.2463   90.0892    9.7926 C.3     1  UNL1        0.1122
     14 C          60.0874   90.5917    6.2952 C.ar    1  UNL1        0.0480
     15 C          61.2760   90.5990    5.5500 C.ar    1  UNL1        0.0160
     16 C          61.2950   91.1143    4.2509 C.ar    1  UNL1        0.0190
     17 C          60.1246   91.6363    3.6734 C.ar    1  UNL1        0.0699
     18 C          58.9337   91.6219    4.4193 C.ar    1  UNL1        0.0190
     19 C          58.9160   91.1087    5.7191 C.ar    1  UNL1        0.0160
     20 N          60.1356   92.1634    2.3325 N.ar    1  UNL1       -0.2398
     21 C          59.1001   92.6999    1.6473 C.ar    1  UNL1        0.2073
     22 N          59.4774   93.1137    0.4181 N.ar    1  UNL1       -0.1442
     23 N          60.7688   92.8341    0.3096 N.ar    1  UNL1       -0.2024
     24 C          61.1634   92.2762    1.4680 C.ar    1  UNL1        0.3522
     25 O          62.3527   91.9445    1.7231 O.2     1  UNL1       -0.2444
     26 C          61.6167   93.1859   -0.8364 C.3     1  UNL1        0.1099
     27 C          60.7704   93.5207   -2.0730 C.3     1  UNL1        0.0265
     28 C          62.6041   94.3149   -0.4708 C.3     1  UNL1        0.0245
     29 C          64.0256   94.0986   -0.9948 C.3     1  UNL1        0.0021
     30 C          61.6434   86.0784   15.9455 C.3     1  UNL1        0.2374
     31 C          61.8742   83.5477   13.5407 C.3     1  UNL1        0.2315
     32 O          63.0216   83.1998   14.2900 O.3     1  UNL1       -0.3266
     33 C          63.0779   84.0926   15.3529 C.3     1  UNL1        0.1783
     34 C          61.6788   84.6051   15.5190 C.3     1  UNL1        0.1909
     35 O          61.0672   84.4490   14.2778 O.3     1  UNL1       -0.3254
     36 C          61.0370   82.3083   13.1988 C.ar    1  UNL1        0.0410
     37 C          59.7229   82.5124   12.7215 C.ar    1  UNL1        0.0022
     38 C          58.9062   81.4385   12.3666 C.ar    1  UNL1        0.0113
     39 C          59.3850   80.1344   12.4631 C.ar    1  UNL1        0.0585
     40 CL         58.3571   78.7859   12.0134 Cl      1  UNL1       -0.0822
     41 C          60.6873   79.9037   12.9050 C.ar    1  UNL1        0.0226
     42 C          61.5224   80.9701   13.2650 C.ar    1  UNL1        0.0591
     43 CL         63.1564   80.5378   13.7596 Cl      1  UNL1       -0.0824
     44 C          62.3077   84.2636   12.2427 C.3     1  UNL1        0.1914
     45 C          63.5256   83.3630   10.2026 C.ar    1  UNL1        0.1837
     46 N          64.6705   82.6946    9.9697 N.ar    1  UNL1       -0.1081
     47 N          65.1846   82.4593   11.1699 N.ar    1  UNL1       -0.0227
     48 N          64.3956   82.9601   12.1091 N.ar    1  UNL1       -0.0427
     49 N          63.3503   83.5228   11.5299 N.ar    1  UNL1       -0.2079
     50 C          61.4257   83.0818    8.8102 C.ar    1  UNL1       -0.0192
     51 C          60.5822   83.5669    7.7947 C.ar    1  UNL1       -0.0042
     52 C          60.8903   84.7469    7.1164 C.ar    1  UNL1       -0.0003
     53 C          62.0363   85.4662    7.4507 C.ar    1  UNL1        0.0001
     54 C          62.8803   85.0061    8.4622 C.ar    1  UNL1        0.0028
     55 C          62.5962   83.8110    9.1439 C.ar    1  UNL1        0.0334
     56 C          59.9721   81.0476    8.7259 C.3     1  UNL1        0.0050
     57 C          61.0390   81.8016    9.5137 C.3     1  UNL1        0.0265
@<TRIPOS>BOND
     1    56    57    1
     2    57    50    1
     3    50    51   ar
     4    51    52   ar
     5    52    53   ar
     6    53    54   ar
     7    54    55   ar
     8    55    45    1
     9    45    46   ar
    10    46    47   ar
    11    47    48   ar
    12    48    49   ar
    13    49    44    1
    14    31    44    1
    15    31    36    1
    16    36    37   ar
    17    37    38   ar
    18    38    39   ar
    19    39    40    1
    20    39    41   ar
    21    41    42   ar
    22    42    43    1
    23    31    32    1
    24    32    33    1
    25    33    34    1
    26    34    30    1
    27    30     1    1
    28     1     2    1
    29     2     3   ar
    30     3     4   ar
    31     4     5   ar
    32     5     8    1
    33     8     9    1
    34     9    10    1
    35    10    11    1
    36    11    14    1
    37    14    15   ar
    38    15    16   ar
    39    16    17   ar
    40    17    20    1
    41    20    21   ar
    42    21    22   ar
    43    22    23   ar
    44    23    26    1
    45    26    27    1
    46    26    28    1
    47    28    29    1
    48    23    24   ar
    49    24    25    2
    50    17    18   ar
    51    18    19   ar
    52    11    12    1
    53    12    13    1
    54     5     6   ar
    55     6     7   ar
    56    34    35    1
    57    55    50   ar
    58    49    45   ar
    59    35    31    1
    60    42    36   ar
    61     7     2   ar
    62    13     8    1
    63    19    14   ar
    64    24    20   ar
@<TRIPOS>MOLECULE
*****
 57 64 0 0 0
SMALL
GASTEIGER

@<TRIPOS>ATOM
      1 O          60.8901   85.8784   15.2224 O.3     1  UNL1       -0.4727
      2 C          60.7420   86.5515   13.9986 C.ar    1  UNL1        0.1388
      3 C          61.8382   86.9553   13.2121 C.ar    1  UNL1        0.0382
      4 C          61.6298   87.6248   12.0028 C.ar    1  UNL1        0.0176
      5 C          60.3284   87.8983   11.5555 C.ar    1  UNL1        0.0481
      6 C          59.2365   87.4917   12.3391 C.ar    1  UNL1        0.0176
      7 C          59.4451   86.8219   13.5477 C.ar    1  UNL1        0.0382
      8 N          60.1220   88.5935   10.3113 N.pl3   1  UNL1       -0.3041
      9 C          60.5159   90.0004   10.1699 C.3     1  UNL1        0.1122
     10 C          61.0909   90.2442    8.7742 C.3     1  UNL1        0.1122
     11 N          60.2010   89.6755    7.7546 N.pl3   1  UNL1       -0.3041
     12 C          59.8070   88.2687    7.8962 C.3     1  UNL1        0.1122
     13 C          59.2318   88.0250    9.2918 C.3     1  UNL1        0.1122
     14 C          59.9994   90.3684    6.5085 C.ar    1  UNL1        0.0480
     15 C          58.7073   90.7456    6.1128 C.ar    1  UNL1        0.0160
     16 C          58.5036   91.4149    4.9028 C.ar    1  UNL1        0.0190
     17 C          59.5895   91.7164    4.0628 C.ar    1  UNL1        0.0699
     18 C          60.8836   91.3433    4.4642 C.ar    1  UNL1        0.0190
     19 C          61.0862   90.6721    5.6731 C.ar    1  UNL1        0.0160
     20 N          59.3875   92.4114    2.8170 N.ar    1  UNL1       -0.2398
     21 C          58.3723   92.2522    1.9373 C.ar    1  UNL1        0.2073
     22 N          58.4912   93.0883    0.8831 N.ar    1  UNL1       -0.1442
     23 N          59.5990   93.7883    1.0841 N.ar    1  UNL1       -0.2024
     24 C          60.1266   93.3883    2.2548 C.ar    1  UNL1        0.3522
     25 O          61.1560   93.8966    2.7759 O.2     1  UNL1       -0.2444
     26 C          60.0783   94.8781    0.2246 C.3     1  UNL1        0.1099
     27 C          61.6052   94.8348    0.0704 C.3     1  UNL1        0.0265
     28 C          59.3453   94.8770   -1.1341 C.3     1  UNL1        0.0245
     29 C          59.7050   93.6968   -2.0395 C.3     1  UNL1        0.0021
     30 C          62.0228   85.1002   15.6103 C.3     1  UNL1        0.2374
     31 C          61.6610   83.1389   12.7358 C.3     1  UNL1        0.2315
     32 O          63.0155   82.8335   13.0021 O.3     1  UNL1       -0.3266
     33 C          63.3432   83.5056   14.1730 C.3     1  UNL1        0.1783
     34 C          62.0387   83.7580   14.8674 C.3     1  UNL1        0.1909
     35 O          61.0687   83.7498   13.8684 O.3     1  UNL1       -0.3254
     36 C          60.8642   81.8745   12.3889 C.ar    1  UNL1        0.0410
     37 C          59.7509   81.5549   13.1982 C.ar    1  UNL1        0.0022
     38 C          58.9614   80.4354   12.9346 C.ar    1  UNL1        0.0113
     39 C          59.2520   79.6153   11.8473 C.ar    1  UNL1        0.0585
     40 CL         58.2558   78.2099   11.5161 Cl      1  UNL1       -0.0822
     41 C          60.3281   79.9212   11.0149 C.ar    1  UNL1        0.0226
     42 C          61.1318   81.0421   11.2636 C.ar    1  UNL1        0.0591
     43 CL         62.4262   81.3359   10.1061 Cl      1  UNL1       -0.0824
     44 C          61.5830   84.1464   11.5678 C.3     1  UNL1        0.1914
     45 C          59.7535   84.3655    9.8181 C.ar    1  UNL1        0.1837
     46 N          58.4094   84.4364    9.8199 N.ar    1  UNL1       -0.1081
     47 N          58.0637   84.4288   11.1007 N.ar    1  UNL1       -0.0227
     48 N          59.1446   84.3551   11.8633 N.ar    1  UNL1       -0.0427
     49 N          60.2117   84.3215   11.0854 N.ar    1  UNL1       -0.2079
     50 C          60.2793   83.5627    7.4714 C.ar    1  UNL1       -0.0192
     51 C          61.1090   83.6232    6.3374 C.ar    1  UNL1       -0.0042
     52 C          62.2217   84.4651    6.3133 C.ar    1  UNL1       -0.0003
     53 C          62.5144   85.2679    7.4144 C.ar    1  UNL1        0.0001
     54 C          61.6974   85.2290    8.5449 C.ar    1  UNL1        0.0028
     55 C          60.5834   84.3746    8.5947 C.ar    1  UNL1        0.0334
     56 C          59.5204   81.1818    7.5865 C.3     1  UNL1        0.0050
     57 C          59.0857   82.6367    7.4387 C.3     1  UNL1        0.0265
@<TRIPOS>BOND
     1    56    57    1
     2    57    50    1
     3    50    51   ar
     4    51    52   ar
     5    52    53   ar
     6    53    54   ar
     7    54    55   ar
     8    55    45    1
     9    45    46   ar
    10    46    47   ar
    11    47    48   ar
    12    48    49   ar
    13    49    44    1
    14    31    44    1
    15    31    36    1
    16    36    37   ar
    17    37    38   ar
    18    38    39   ar
    19    39    40    1
    20    39    41   ar
    21    41    42   ar
    22    42    43    1
    23    31    32    1
    24    32    33    1
    25    33    34    1
    26    34    30    1
    27    30     1    1
    28     1     2    1
    29     2     3   ar
    30     3     4   ar
    31     4     5   ar
    32     5     8    1
    33     8     9    1
    34     9    10    1
    35    10    11    1
    36    11    14    1
    37    14    15   ar
    38    15    16   ar
    39    16    17   ar
    40    17    20    1
    41    20    21   ar
    42    21    22   ar
    43    22    23   ar
    44    23    26    1
    45    26    27    1
    46    26    28    1
    47    28    29    1
    48    23    24   ar
    49    24    25    2
    50    17    18   ar
    51    18    19   ar
    52    11    12    1
    53    12    13    1
    54     5     6   ar
    55     6     7   ar
    56    34    35    1
    57    55    50   ar
    58    49    45   ar
    59    35    31    1
    60    42    36   ar
    61     7     2   ar
    62    13     8    1
    63    19    14   ar
    64    24    20   ar
@<TRIPOS>MOLECULE
*****
 57 64 0 0 0
SMALL
GASTEIGER

@<TRIPOS>ATOM
      1 O          59.0026   84.9678   13.6955 O.3     1  UNL1       -0.4727
      2 C          59.1311   85.7261   12.5203 C.ar    1  UNL1        0.1388
      3 C          58.2444   85.6050   11.4329 C.ar    1  UNL1        0.0382
      4 C          58.4234   86.3849   10.2867 C.ar    1  UNL1        0.0176
      5 C          59.4839   87.3002   10.2069 C.ar    1  UNL1        0.0481
      6 C          60.3649   87.4223   11.2934 C.ar    1  UNL1        0.0176
      7 C          60.1853   86.6430   12.4393 C.ar    1  UNL1        0.0382
      8 N          59.6650   88.0961    9.0204 N.pl3   1  UNL1       -0.3041
      9 C          59.2170   87.5985    7.7142 C.3     1  UNL1        0.1122
     10 C          58.6351   88.7469    6.8893 C.3     1  UNL1        0.1122
     11 N          59.5479   89.8964    6.9088 N.pl3   1  UNL1       -0.3041
     12 C          59.9960   90.3937    8.2151 C.3     1  UNL1        0.1122
     13 C          60.5782   89.2453    9.0398 C.3     1  UNL1        0.1122
     14 C          59.7244   90.6951    5.7237 C.ar    1  UNL1        0.0480
     15 C          60.9837   90.7784    5.1109 C.ar    1  UNL1        0.0160
     16 C          61.1633   91.5548    3.9627 C.ar    1  UNL1        0.0190
     17 C          60.0861   92.2667    3.4073 C.ar    1  UNL1        0.0699
     18 C          58.8241   92.1766    4.0190 C.ar    1  UNL1        0.0190
     19 C          58.6458   91.4019    5.1684 C.ar    1  UNL1        0.0160
     20 N          60.2627   93.0641    2.2203 N.ar    1  UNL1       -0.2398
     21 C          60.4515   94.4014    2.1440 C.ar    1  UNL1        0.2073
     22 N          60.6024   94.8108    0.8657 N.ar    1  UNL1       -0.1442
     23 N          60.5029   93.7252    0.1112 N.ar    1  UNL1       -0.2024
     24 C          60.3132   92.6757    0.9307 C.ar    1  UNL1        0.3522
     25 O          60.2378   91.4794    0.5402 O.2     1  UNL1       -0.2444
     26 C          60.6858   93.6880   -1.3452 C.3     1  UNL1        0.1099
     27 C          59.4410   94.2111   -2.0760 C.3     1  UNL1        0.0265
     28 C          61.9734   94.4307   -1.7623 C.3     1  UNL1        0.0245
     29 C          63.2540   93.8558   -1.1528 C.3     1  UNL1        0.0021
     30 C          59.7851   83.8224   14.0342 C.3     1  UNL1        0.2374
     31 C          60.6968   82.8594   10.7966 C.3     1  UNL1        0.2315
     32 O          61.3723   81.8324   11.4951 O.3     1  UNL1       -0.3266
     33 C          61.0845   82.0224   12.8409 C.3     1  UNL1        0.1783
     34 C          59.8181   82.8245   12.8695 C.3     1  UNL1        0.1909
     35 O          59.7703   83.5023   11.6540 O.3     1  UNL1       -0.3254
     36 C          59.9375   82.3014    9.5858 C.ar    1  UNL1        0.0410
     37 C          58.8619   83.0622    9.0752 C.ar    1  UNL1        0.0022
     38 C          58.1366   82.6353    7.9626 C.ar    1  UNL1        0.0113
     39 C          58.4761   81.4470    7.3207 C.ar    1  UNL1        0.0585
     40 CL         57.5644   80.9139    5.9200 Cl      1  UNL1       -0.0822
     41 C          59.5502   80.6890    7.7856 C.ar    1  UNL1        0.0226
     42 C          60.2908   81.1025    8.9013 C.ar    1  UNL1        0.0591
     43 CL         61.6489   80.0751    9.3502 Cl      1  UNL1       -0.0824
     44 C          61.7181   83.9211   10.3330 C.3     1  UNL1        0.1914
     45 C          63.9763   83.6456   11.4649 C.ar    1  UNL1        0.1837
     46 N          65.1030   82.9473   11.2308 N.ar    1  UNL1       -0.1081
     47 N          64.8907   82.3231   10.0795 N.ar    1  UNL1       -0.0227
     48 N          63.6846   82.6182    9.6174 N.ar    1  UNL1       -0.0427
     49 N          63.0977   83.4476   10.4615 N.ar    1  UNL1       -0.2079
     50 C          63.9631   84.0620   13.9658 C.ar    1  UNL1       -0.0192
     51 C          63.7554   84.9508   15.0358 C.ar    1  UNL1       -0.0042
     52 C          63.3610   86.2687   14.8005 C.ar    1  UNL1       -0.0003
     53 C          63.1816   86.7217   13.4948 C.ar    1  UNL1        0.0001
     54 C          63.3924   85.8576   12.4197 C.ar    1  UNL1        0.0028
     55 C          63.7721   84.5227   12.6374 C.ar    1  UNL1        0.0334
     56 C          63.4525   82.0039   15.2928 C.3     1  UNL1        0.0050
     57 C          64.3943   82.6484   14.2804 C.3     1  UNL1        0.0265
@<TRIPOS>BOND
     1    56    57    1
     2    57    50    1
     3    50    51   ar
     4    51    52   ar
     5    52    53   ar
     6    53    54   ar
     7    54    55   ar
     8    55    45    1
     9    45    46   ar
    10    46    47   ar
    11    47    48   ar
    12    48    49   ar
    13    49    44    1
    14    31    44    1
    15    31    36    1
    16    36    37   ar
    17    37    38   ar
    18    38    39   ar
    19    39    40    1
    20    39    41   ar
    21    41    42   ar
    22    42    43    1
    23    31    32    1
    24    32    33    1
    25    33    34    1
    26    34    30    1
    27    30     1    1
    28     1     2    1
    29     2     3   ar
    30     3     4   ar
    31     4     5   ar
    32     5     8    1
    33     8     9    1
    34     9    10    1
    35    10    11    1
    36    11    14    1
    37    14    15   ar
    38    15    16   ar
    39    16    17   ar
    40    17    20    1
    41    20    21   ar
    42    21    22   ar
    43    22    23   ar
    44    23    26    1
    45    26    27    1
    46    26    28    1
    47    28    29    1
    48    23    24   ar
    49    24    25    2
    50    17    18   ar
    51    18    19   ar
    52    11    12    1
    53    12    13    1
    54     5     6   ar
    55     6     7   ar
    56    34    35    1
    57    55    50   ar
    58    49    45   ar
    59    35    31    1
    60    42    36   ar
    61     7     2   ar
    62    13     8    1
    63    19    14   ar
    64    24    20   ar
@<TRIPOS>MOLECULE
*****
 57 64 0 0 0
SMALL
GASTEIGER

@<TRIPOS>ATOM
      1 O          60.9092   85.3098   14.2258 O.3     1  UNL1       -0.4727
      2 C          60.8782   86.0796   13.0514 C.ar    1  UNL1        0.1388
      3 C          61.7782   87.1347   12.8063 C.ar    1  UNL1        0.0382
      4 C          61.6980   87.8685   11.6192 C.ar    1  UNL1        0.0176
      5 C          60.7248   87.5610   10.6564 C.ar    1  UNL1        0.0481
      6 C          59.8306   86.5064   10.9008 C.ar    1  UNL1        0.0176
      7 C          59.9114   85.7725   12.0873 C.ar    1  UNL1        0.0382
      8 N          60.6450   88.3253    9.4385 N.pl3   1  UNL1       -0.3041
      9 C          60.3758   87.6602    8.1580 C.3     1  UNL1        0.1122
     10 C          59.4609   88.5329    7.2982 C.3     1  UNL1        0.1122
     11 N          59.9648   89.9112    7.2622 N.pl3   1  UNL1       -0.3041
     12 C          60.2342   90.5762    8.5427 C.3     1  UNL1        0.1122
     13 C          61.1492   89.7035    9.4024 C.3     1  UNL1        0.1122
     14 C          59.8796   90.6768    6.0456 C.ar    1  UNL1        0.0480
     15 C          58.6535   91.2277    5.6438 C.ar    1  UNL1        0.0160
     16 C          58.5626   91.9685    4.4621 C.ar    1  UNL1        0.0190
     17 C          59.6970   92.1691    3.6568 C.ar    1  UNL1        0.0699
     18 C          60.9255   91.6217    4.0646 C.ar    1  UNL1        0.0190
     19 C          61.0152   90.8792    5.2451 C.ar    1  UNL1        0.0160
     20 N          59.6118   92.9368    2.4406 N.ar    1  UNL1       -0.2398
     21 C          59.6070   94.2833    2.3122 C.ar    1  UNL1        0.2073
     22 N          59.5372   94.6598    1.0168 N.ar    1  UNL1       -0.1442
     23 N          59.4900   93.5425    0.3048 N.ar    1  UNL1       -0.2024
     24 C          59.5497   92.5093    1.1638 C.ar    1  UNL1        0.3522
     25 O          59.5874   91.2993    0.8117 O.2     1  UNL1       -0.2444
     26 C          59.4893   93.4739   -1.1619 C.3     1  UNL1        0.1099
     27 C          60.8671   93.0632   -1.7006 C.3     1  UNL1        0.0265
     28 C          58.3561   92.5593   -1.6745 C.3     1  UNL1        0.0245
     29 C          56.9489   93.1125   -1.4386 C.3     1  UNL1        0.0021
     30 C          61.9908   84.4765   14.6439 C.3     1  UNL1        0.2374
     31 C          62.0877   81.5265   12.7654 C.3     1  UNL1        0.2315
     32 O          62.7538   81.0398   13.9137 O.3     1  UNL1       -0.3266
     33 C          62.7748   82.0880   14.8252 C.3     1  UNL1        0.1783
     34 C          61.6554   82.9971   14.4148 C.3     1  UNL1        0.1909
     35 O          61.4474   82.7555   13.0593 O.3     1  UNL1       -0.3254
     36 C          61.0310   80.5297   12.2718 C.ar    1  UNL1        0.0410
     37 C          59.8510   80.3885   13.0360 C.ar    1  UNL1        0.0022
     38 C          58.8323   79.5207   12.6421 C.ar    1  UNL1        0.0113
     39 C          58.9573   78.7837   11.4671 C.ar    1  UNL1        0.0585
     40 CL         57.6736   77.6953   10.9723 Cl      1  UNL1       -0.0822
     41 C          60.0987   78.9228   10.6782 C.ar    1  UNL1        0.0226
     42 C          61.1318   79.7905   11.0576 C.ar    1  UNL1        0.0591
     43 CL         62.4923   79.9039    9.9450 Cl      1  UNL1       -0.0824
     44 C          63.1206   81.7936   11.6487 C.3     1  UNL1        0.1914
     45 C          62.4893   83.9830   10.5244 C.ar    1  UNL1        0.1837
     46 N          62.8770   85.2690   10.6126 N.ar    1  UNL1       -0.1081
     47 N          63.8657   85.2729   11.4973 N.ar    1  UNL1       -0.0227
     48 N          64.0836   84.0438   11.9416 N.ar    1  UNL1       -0.0427
     49 N          63.2414   83.2205   11.3435 N.ar    1  UNL1       -0.2079
     50 C          61.4739   83.6858    8.2204 C.ar    1  UNL1       -0.0192
     51 C          60.4240   83.1959    7.4230 C.ar    1  UNL1       -0.0042
     52 C          59.3377   82.5381    8.0016 C.ar    1  UNL1       -0.0003
     53 C          59.2902   82.3481    9.3814 C.ar    1  UNL1        0.0001
     54 C          60.3270   82.8182   10.1882 C.ar    1  UNL1        0.0028
     55 C          61.4200   83.4985    9.6259 C.ar    1  UNL1        0.0334
     56 C          62.3524   84.5621    6.0483 C.3     1  UNL1        0.0050
     57 C          62.6267   84.3854    7.5385 C.3     1  UNL1        0.0265
@<TRIPOS>BOND
     1    56    57    1
     2    57    50    1
     3    50    51   ar
     4    51    52   ar
     5    52    53   ar
     6    53    54   ar
     7    54    55   ar
     8    55    45    1
     9    45    46   ar
    10    46    47   ar
    11    47    48   ar
    12    48    49   ar
    13    49    44    1
    14    31    44    1
    15    31    36    1
    16    36    37   ar
    17    37    38   ar
    18    38    39   ar
    19    39    40    1
    20    39    41   ar
    21    41    42   ar
    22    42    43    1
    23    31    32    1
    24    32    33    1
    25    33    34    1
    26    34    30    1
    27    30     1    1
    28     1     2    1
    29     2     3   ar
    30     3     4   ar
    31     4     5   ar
    32     5     8    1
    33     8     9    1
    34     9    10    1
    35    10    11    1
    36    11    14    1
    37    14    15   ar
    38    15    16   ar
    39    16    17   ar
    40    17    20    1
    41    20    21   ar
    42    21    22   ar
    43    22    23   ar
    44    23    26    1
    45    26    27    1
    46    26    28    1
    47    28    29    1
    48    23    24   ar
    49    24    25    2
    50    17    18   ar
    51    18    19   ar
    52    11    12    1
    53    12    13    1
    54     5     6   ar
    55     6     7   ar
    56    34    35    1
    57    55    50   ar
    58    49    45   ar
    59    35    31    1
    60    42    36   ar
    61     7     2   ar
    62    13     8    1
    63    19    14   ar
    64    24    20   ar
