@<TRIPOS>MOLECULE
*****
 41 45 0 0 0
SMALL
GASTEIGER

@<TRIPOS>ATOM
      1 C           6.2656   76.3610   22.1104 C.ar    1  UNL1        0.0450
      2 C           7.3506   76.8226   21.3518 C.ar    1  UNL1        0.0085
      3 C           8.5143   77.2661   21.9879 C.ar    1  UNL1        0.0052
      4 C           8.5901   77.2505   23.3863 C.ar    1  UNL1        0.0529
      5 C           7.5032   76.7934   24.1531 C.ar    1  UNL1        0.1407
      6 C           6.3446   76.3450   23.5101 C.ar    1  UNL1        0.0452
      7 O           7.5769   76.7670   25.5620 O.3     1  UNL1       -0.4770
      8 C           8.6396   77.3487   26.3490 C.3     1  UNL1        0.1673
      9 C           8.1060   78.6209   27.0181 C.3     1  UNL1        0.0498
     10 C           9.0659   76.3298   27.4122 C.3     1  UNL1        0.0498
     11 C           9.8205   77.7015   25.4747 C.ar    1  UNL1        0.0891
     12 N          11.0113   78.1829   25.8612 N.ar    1  UNL1       -0.3380
     13 C          11.6697   78.4271   24.7035 C.ar    1  UNL1        0.1417
     14 N          10.9362   78.1364   23.5999 N.ar    1  UNL1       -0.2271
     15 C           9.7777   77.6844   24.1152 C.ar    1  UNL1        0.1005
     16 H          11.3349   78.3702   26.8362 H       1  UNL1        0.1672
     17 C          13.0438   78.9860   24.6406 C.ar    1  UNL1        0.0531
     18 C          13.2802   80.3481   24.9527 C.ar    1  UNL1        0.0720
     19 C          14.5804   80.8659   24.8934 C.ar    1  UNL1        0.0104
     20 C          15.6490   80.0501   24.5254 C.ar    1  UNL1        0.0014
     21 C          15.4306   78.7104   24.2092 C.ar    1  UNL1        0.0104
     22 C          14.1389   78.1705   24.2606 C.ar    1  UNL1        0.0720
     23 C          12.2144   81.2265   25.3758 C.1     1  UNL1        0.1005
     24 N          11.3602   81.9299   25.7149 N.1     1  UNL1       -0.1908
     25 C          13.9603   76.7925   23.8666 C.1     1  UNL1        0.1005
     26 N          13.8175   75.6883   23.5504 N.1     1  UNL1       -0.1908
     27 C           4.0710   75.5148   20.9031 C.1     1  UNL1       -0.0598
     28 C           5.0718   75.9029   21.4514 C.1     1  UNL1       -0.0597
     29 C           0.5258   74.0554   19.0453 C.ar    1  UNL1       -0.0225
     30 C           1.0614   73.4322   20.1821 C.ar    1  UNL1       -0.0037
     31 C           2.2228   73.9230   20.7778 C.ar    1  UNL1        0.0079
     32 C           2.8722   75.0450   20.2508 C.ar    1  UNL1        0.0458
     33 C           2.3520   75.6915   19.1049 C.ar    1  UNL1        0.0787
     34 C           1.1776   75.1841   18.5139 C.ar    1  UNL1        0.0002
     35 C           3.0418   76.9088   18.5194 C.3     1  UNL1        0.4191
     36 F           3.0749   77.9649   19.4138 F       1  UNL1       -0.1658
     37 F           4.3436   76.5860   18.1810 F       1  UNL1       -0.1658
     38 F           2.3677   77.3224   17.3844 F       1  UNL1       -0.1658
     39 C          -1.9856   74.2058   18.9672 C.3     1  UNL1        0.0047
     40 C          -0.7392   73.5087   18.4089 C.3     1  UNL1        0.0223
     41 C          -0.8330   71.9879   18.5813 C.3     1  UNL1        0.0047
@<TRIPOS>BOND
     1    39    40    1
     2    40    41    1
     3    40    29    1
     4    29    30   ar
     5    30    31   ar
     6    31    32   ar
     7    32    27    1
     8    27    28    3
     9    28     1    1
    10     1     2   ar
    11     2     3   ar
    12     3     4   ar
    13     4     5   ar
    14     5     6   ar
    15     5     7    1
    16     7     8    1
    17     8     9    1
    18     8    10    1
    19     8    11    1
    20    11    12   ar
    21    12    13   ar
    22    13    17    1
    23    17    18   ar
    24    18    23    1
    25    23    24    3
    26    18    19   ar
    27    19    20   ar
    28    20    21   ar
    29    21    22   ar
    30    22    25    1
    31    25    26    3
    32    13    14   ar
    33    14    15   ar
    34    32    33   ar
    35    33    35    1
    36    35    36    1
    37    35    37    1
    38    35    38    1
    39    33    34   ar
    40    34    29   ar
    41     6     1   ar
    42    15    11   ar
    43    15     4    1
    44    22    17   ar
    45    12    16    1
@<TRIPOS>MOLECULE
*****
 41 45 0 0 0
SMALL
GASTEIGER

@<TRIPOS>ATOM
      1 C           6.2757   76.3616   22.1062 C.ar    1  UNL1        0.0450
      2 C           7.3626   76.8118   21.3434 C.ar    1  UNL1        0.0085
      3 C           8.5299   77.2518   21.9753 C.ar    1  UNL1        0.0052
      4 C           8.6075   77.2441   23.3737 C.ar    1  UNL1        0.0529
      5 C           7.5187   76.7984   24.1447 C.ar    1  UNL1        0.1407
      6 C           6.3565   76.3535   23.5059 C.ar    1  UNL1        0.0452
      7 O           7.5941   76.7801   25.5535 O.3     1  UNL1       -0.4770
      8 C           8.6615   77.3597   26.3357 C.3     1  UNL1        0.1673
      9 C           8.1368   78.6393   26.9978 C.3     1  UNL1        0.0498
     10 C           9.0827   76.3446   27.4044 C.3     1  UNL1        0.0498
     11 C           9.8434   77.6998   25.4578 C.ar    1  UNL1        0.0891
     12 N          11.0377   78.1761   25.8399 N.ar    1  UNL1       -0.3380
     13 C          11.6961   78.4092   24.6799 C.ar    1  UNL1        0.1417
     14 N          10.9594   78.1165   23.5790 N.ar    1  UNL1       -0.2271
     15 C           9.7987   77.6749   24.0984 C.ar    1  UNL1        0.1005
     16 H          11.3637   78.3672   26.8132 H       1  UNL1        0.1672
     17 C          13.0736   78.9591   24.6119 C.ar    1  UNL1        0.0531
     18 C          14.1581   78.1337   24.2232 C.ar    1  UNL1        0.0720
     19 C          15.4539   78.6619   24.1590 C.ar    1  UNL1        0.0104
     20 C          15.6880   79.9983   24.4786 C.ar    1  UNL1        0.0014
     21 C          14.6322   80.8201   24.8691 C.ar    1  UNL1        0.0104
     22 C          13.3280   80.3140   24.9413 C.ar    1  UNL1        0.0720
     23 C          13.9645   76.7529   23.8458 C.1     1  UNL1        0.1005
     24 N          13.8097   75.6466   23.5431 N.1     1  UNL1       -0.1908
     25 C          12.2810   81.1927   25.4079 C.1     1  UNL1        0.1005
     26 N          11.4423   81.8973   25.7815 N.1     1  UNL1       -0.1908
     27 C           4.0756   75.5209   20.9050 C.1     1  UNL1       -0.0598
     28 C           5.0782   75.9071   21.4514 C.1     1  UNL1       -0.0597
     29 C           0.5283   74.0652   19.0483 C.ar    1  UNL1       -0.0225
     30 C           1.0648   73.4403   20.1838 C.ar    1  UNL1       -0.0037
     31 C           2.2268   73.9298   20.7792 C.ar    1  UNL1        0.0079
     32 C           2.8761   75.0524   20.2532 C.ar    1  UNL1        0.0458
     33 C           2.3551   75.7006   19.1086 C.ar    1  UNL1        0.0787
     34 C           1.1800   75.1945   18.5179 C.ar    1  UNL1        0.0002
     35 C           3.0447   76.9185   18.5242 C.3     1  UNL1        0.4191
     36 F           3.0788   77.9735   19.4200 F       1  UNL1       -0.1658
     37 F           4.3462   76.5959   18.1844 F       1  UNL1       -0.1658
     38 F           2.3699   77.3339   17.3904 F       1  UNL1       -0.1658
     39 C          -1.9832   74.2148   18.9743 C.3     1  UNL1        0.0047
     40 C          -0.7374   73.5197   18.4122 C.3     1  UNL1        0.0223
     41 C          -0.8304   71.9984   18.5806 C.3     1  UNL1        0.0047
@<TRIPOS>BOND
     1    39    40    1
     2    40    41    1
     3    40    29    1
     4    29    30   ar
     5    30    31   ar
     6    31    32   ar
     7    32    27    1
     8    27    28    3
     9    28     1    1
    10     1     2   ar
    11     2     3   ar
    12     3     4   ar
    13     4     5   ar
    14     5     6   ar
    15     5     7    1
    16     7     8    1
    17     8     9    1
    18     8    10    1
    19     8    11    1
    20    11    12   ar
    21    12    13   ar
    22    13    17    1
    23    17    18   ar
    24    18    23    1
    25    23    24    3
    26    18    19   ar
    27    19    20   ar
    28    20    21   ar
    29    21    22   ar
    30    22    25    1
    31    25    26    3
    32    13    14   ar
    33    14    15   ar
    34    32    33   ar
    35    33    35    1
    36    35    36    1
    37    35    37    1
    38    35    38    1
    39    33    34   ar
    40    34    29   ar
    41     6     1   ar
    42    15    11   ar
    43    15     4    1
    44    22    17   ar
    45    12    16    1
@<TRIPOS>MOLECULE
*****
 41 45 0 0 0
SMALL
GASTEIGER

@<TRIPOS>ATOM
      1 C          11.9613   82.0641   24.9032 C.ar    1  UNL1        0.0450
      2 C          11.8001   81.2662   23.7617 C.ar    1  UNL1        0.0085
      3 C          11.0056   80.1167   23.8147 C.ar    1  UNL1        0.0052
      4 C          10.3743   79.7638   25.0141 C.ar    1  UNL1        0.0529
      5 C          10.5362   80.5573   26.1641 C.ar    1  UNL1        0.1407
      6 C          11.3270   81.7095   26.1022 C.ar    1  UNL1        0.0452
      7 O           9.8957   80.2118   27.3729 O.3     1  UNL1       -0.4770
      8 C           9.1921   78.9735   27.6156 C.3     1  UNL1        0.1673
      9 C          10.0502   78.1024   28.5407 C.3     1  UNL1        0.0498
     10 C           7.8543   79.3025   28.2880 C.3     1  UNL1        0.0498
     11 C           8.9467   78.2356   26.3200 C.ar    1  UNL1        0.0891
     12 N           8.2581   77.0983   26.1426 N.ar    1  UNL1       -0.3380
     13 C           8.4228   76.8038   24.8313 C.ar    1  UNL1        0.1417
     14 N           9.2031   77.6996   24.1762 N.ar    1  UNL1       -0.2271
     15 C           9.5199   78.5871   25.1375 C.ar    1  UNL1        0.1005
     16 H           7.7504   76.5434   26.8668 H       1  UNL1        0.1672
     17 C           7.8374   75.6064   24.1771 C.ar    1  UNL1        0.0531
     18 C           6.4315   75.4494   24.0923 C.ar    1  UNL1        0.0720
     19 C           5.8882   74.3178   23.4707 C.ar    1  UNL1        0.0104
     20 C           6.7222   73.3380   22.9347 C.ar    1  UNL1        0.0014
     21 C           8.1067   73.4756   23.0169 C.ar    1  UNL1        0.0104
     22 C           8.6730   74.5982   23.6345 C.ar    1  UNL1        0.0720
     23 C           5.5233   76.4526   24.5978 C.1     1  UNL1        0.1005
     24 N           4.7954   77.2561   25.0025 N.1     1  UNL1       -0.1908
     25 C          10.1117   74.6624   23.7444 C.1     1  UNL1        0.1005
     26 N          11.2646   74.7133   23.8328 N.1     1  UNL1       -0.1908
     27 C          13.4587   84.2406   24.7975 C.1     1  UNL1       -0.0598
     28 C          12.7771   83.2474   24.8428 C.1     1  UNL1       -0.0597
     29 C          15.8400   87.7728   24.7504 C.ar    1  UNL1       -0.0225
     30 C          15.1772   87.3572   25.9146 C.ar    1  UNL1       -0.0037
     31 C          14.4016   86.1983   25.9126 C.ar    1  UNL1        0.0079
     32 C          14.2724   85.4316   24.7490 C.ar    1  UNL1        0.0458
     33 C          14.9310   85.8295   23.5617 C.ar    1  UNL1        0.0787
     34 C          15.7112   87.0030   23.5790 C.ar    1  UNL1        0.0002
     35 C          14.8029   85.0116   22.2909 C.3     1  UNL1        0.4191
     36 F          15.1648   83.6899   22.4875 F       1  UNL1       -0.1658
     37 F          13.4920   85.0415   21.8504 F       1  UNL1       -0.1658
     38 F          15.6222   85.5446   21.3120 F       1  UNL1       -0.1658
     39 C          17.1781   89.3916   23.3630 C.3     1  UNL1        0.0047
     40 C          16.6803   89.0368   24.7692 C.3     1  UNL1        0.0223
     41 C          17.8494   88.9097   25.7533 C.3     1  UNL1        0.0047
@<TRIPOS>BOND
     1    39    40    1
     2    40    41    1
     3    40    29    1
     4    29    30   ar
     5    30    31   ar
     6    31    32   ar
     7    32    27    1
     8    27    28    3
     9    28     1    1
    10     1     2   ar
    11     2     3   ar
    12     3     4   ar
    13     4     5   ar
    14     5     6   ar
    15     5     7    1
    16     7     8    1
    17     8     9    1
    18     8    10    1
    19     8    11    1
    20    11    12   ar
    21    12    13   ar
    22    13    17    1
    23    17    18   ar
    24    18    23    1
    25    23    24    3
    26    18    19   ar
    27    19    20   ar
    28    20    21   ar
    29    21    22   ar
    30    22    25    1
    31    25    26    3
    32    13    14   ar
    33    14    15   ar
    34    32    33   ar
    35    33    35    1
    36    35    36    1
    37    35    37    1
    38    35    38    1
    39    33    34   ar
    40    34    29   ar
    41     6     1   ar
    42    15    11   ar
    43    15     4    1
    44    22    17   ar
    45    12    16    1
@<TRIPOS>MOLECULE
*****
 41 45 0 0 0
SMALL
GASTEIGER

@<TRIPOS>ATOM
      1 C          11.9653   82.0570   24.9089 C.ar    1  UNL1        0.0450
      2 C          11.8077   81.2553   23.7695 C.ar    1  UNL1        0.0085
      3 C          11.0127   80.1062   23.8238 C.ar    1  UNL1        0.0052
      4 C          10.3772   79.7575   25.0223 C.ar    1  UNL1        0.0529
      5 C          10.5356   80.5549   26.1701 C.ar    1  UNL1        0.1407
      6 C          11.3269   81.7067   26.1070 C.ar    1  UNL1        0.0452
      7 O           9.8909   80.2136   27.3779 O.3     1  UNL1       -0.4770
      8 C           9.1862   78.9764   27.6224 C.3     1  UNL1        0.1673
      9 C          10.0409   78.1081   28.5533 C.3     1  UNL1        0.0498
     10 C           7.8462   79.3080   28.2892 C.3     1  UNL1        0.0498
     11 C           8.9449   78.2341   26.3285 C.ar    1  UNL1        0.0891
     12 N           8.2565   77.0965   26.1526 N.ar    1  UNL1       -0.3380
     13 C           8.4255   76.7975   24.8429 C.ar    1  UNL1        0.1417
     14 N           9.2082   77.6908   24.1874 N.ar    1  UNL1       -0.2271
     15 C           9.5221   78.5815   25.1467 C.ar    1  UNL1        0.1005
     16 H           7.7462   76.5441   26.8770 H       1  UNL1        0.1672
     17 C           7.8419   75.5980   24.1908 C.ar    1  UNL1        0.0531
     18 C           8.6830   74.5963   23.6453 C.ar    1  UNL1        0.0720
     19 C           8.1235   73.4666   23.0345 C.ar    1  UNL1        0.0104
     20 C           6.7397   73.3195   22.9554 C.ar    1  UNL1        0.0014
     21 C           5.9002   74.2998   23.4814 C.ar    1  UNL1        0.0104
     22 C           6.4368   75.4386   24.0961 C.ar    1  UNL1        0.0720
     23 C          10.1223   74.6817   23.7341 C.1     1  UNL1        0.1005
     24 N          11.2753   74.7506   23.8055 N.1     1  UNL1       -0.1908
     25 C           5.5228   76.4507   24.5718 C.1     1  UNL1        0.1005
     26 N           4.7904   77.2616   24.9535 N.1     1  UNL1       -0.1908
     27 C          13.4620   84.2337   24.7991 C.1     1  UNL1       -0.0598
     28 C          12.7816   83.2399   24.8472 C.1     1  UNL1       -0.0597
     29 C          15.8333   87.7725   24.7367 C.ar    1  UNL1       -0.0225
     30 C          15.1733   87.3589   25.9033 C.ar    1  UNL1       -0.0037
     31 C          14.4010   86.1978   25.9064 C.ar    1  UNL1        0.0079
     32 C          14.2723   85.4269   24.7455 C.ar    1  UNL1        0.0458
     33 C          14.9280   85.8227   23.5559 C.ar    1  UNL1        0.0787
     34 C          15.7050   86.9983   23.5681 C.ar    1  UNL1        0.0002
     35 C          14.8004   85.0002   22.2880 C.3     1  UNL1        0.4191
     36 F          15.1680   83.6806   22.4881 F       1  UNL1       -0.1658
     37 F          13.4883   85.0234   21.8504 F       1  UNL1       -0.1658
     38 F          15.6153   85.5333   21.3056 F       1  UNL1       -0.1658
     39 C          17.3428   89.2722   23.3921 C.3     1  UNL1        0.0047
     40 C          16.6701   89.0388   24.7502 C.3     1  UNL1        0.0223
     41 C          17.7052   89.0064   25.8810 C.3     1  UNL1        0.0047
@<TRIPOS>BOND
     1    39    40    1
     2    40    41    1
     3    40    29    1
     4    29    30   ar
     5    30    31   ar
     6    31    32   ar
     7    32    27    1
     8    27    28    3
     9    28     1    1
    10     1     2   ar
    11     2     3   ar
    12     3     4   ar
    13     4     5   ar
    14     5     6   ar
    15     5     7    1
    16     7     8    1
    17     8     9    1
    18     8    10    1
    19     8    11    1
    20    11    12   ar
    21    12    13   ar
    22    13    17    1
    23    17    18   ar
    24    18    23    1
    25    23    24    3
    26    18    19   ar
    27    19    20   ar
    28    20    21   ar
    29    21    22   ar
    30    22    25    1
    31    25    26    3
    32    13    14   ar
    33    14    15   ar
    34    32    33   ar
    35    33    35    1
    36    35    36    1
    37    35    37    1
    38    35    38    1
    39    33    34   ar
    40    34    29   ar
    41     6     1   ar
    42    15    11   ar
    43    15     4    1
    44    22    17   ar
    45    12    16    1
@<TRIPOS>MOLECULE
*****
 41 45 0 0 0
SMALL
GASTEIGER

@<TRIPOS>ATOM
      1 C           6.5758   75.9513   21.4836 C.ar    1  UNL1        0.0450
      2 C           6.8502   77.2906   21.7946 C.ar    1  UNL1        0.0085
      3 C           8.0983   77.6498   22.3130 C.ar    1  UNL1        0.0052
      4 C           9.0720   76.6653   22.5236 C.ar    1  UNL1        0.0529
      5 C           8.8010   75.3192   22.2184 C.ar    1  UNL1        0.1407
      6 C           7.5527   74.9679   21.6939 C.ar    1  UNL1        0.0452
      7 O           9.7809   74.3242   22.4201 O.3     1  UNL1       -0.4770
      8 C          11.0392   74.5238   23.1014 C.3     1  UNL1        0.1673
      9 C          10.9582   73.8485   24.4756 C.3     1  UNL1        0.0498
     10 C          12.1498   73.8833   22.2609 C.3     1  UNL1        0.0498
     11 C          11.3200   75.9972   23.2843 C.ar    1  UNL1        0.0891
     12 N          12.4215   76.5636   23.7991 N.ar    1  UNL1       -0.3380
     13 C          12.1350   77.8864   23.8390 C.ar    1  UNL1        0.1417
     14 N          10.8894   78.1774   23.3869 N.ar    1  UNL1       -0.2271
     15 C          10.3996   76.9704   23.0472 C.ar    1  UNL1        0.1005
     16 H          13.2850   76.0829   24.1361 H       1  UNL1        0.1672
     17 C          13.0726   78.9162   24.3535 C.ar    1  UNL1        0.0531
     18 C          12.5961   80.1953   24.7346 C.ar    1  UNL1        0.0720
     19 C          13.4877   81.1597   25.2218 C.ar    1  UNL1        0.0104
     20 C          14.8471   80.8721   25.3327 C.ar    1  UNL1        0.0014
     21 C          15.3310   79.6208   24.9552 C.ar    1  UNL1        0.0104
     22 C          14.4585   78.6408   24.4646 C.ar    1  UNL1        0.0720
     23 C          11.1926   80.5318   24.6750 C.1     1  UNL1        0.1005
     24 N          10.0681   80.8013   24.6267 N.1     1  UNL1       -0.1908
     25 C          15.0208   77.3823   24.0330 C.1     1  UNL1        0.1005
     26 N          15.4710   76.3736   23.6875 N.1     1  UNL1       -0.1908
     27 C           4.2132   75.2876   20.4997 C.1     1  UNL1       -0.0598
     28 C           5.2914   75.5873   20.9476 C.1     1  UNL1       -0.0597
     29 C           0.3914   74.1705   18.9846 C.ar    1  UNL1       -0.0225
     30 C           1.0017   73.4511   20.0227 C.ar    1  UNL1       -0.0037
     31 C           2.2532   73.8304   20.5069 C.ar    1  UNL1        0.0079
     32 C           2.9200   74.9348   19.9646 C.ar    1  UNL1        0.0458
     33 C           2.3257   75.6769   18.9169 C.ar    1  UNL1        0.0787
     34 C           1.0606   75.2817   18.4380 C.ar    1  UNL1        0.0002
     35 C           3.0330   76.8768   18.3166 C.3     1  UNL1        0.4191
     36 F           3.2147   77.8880   19.2445 F       1  UNL1       -0.1658
     37 F           4.2752   76.4940   17.8435 F       1  UNL1       -0.1658
     38 F           2.2840   77.3798   17.2680 F       1  UNL1       -0.1658
     39 C          -2.0977   74.4493   19.2343 C.3     1  UNL1        0.0047
     40 C          -0.9713   73.7445   18.4690 C.3     1  UNL1        0.0223
     41 C          -1.1335   72.2209   18.5267 C.3     1  UNL1        0.0047
@<TRIPOS>BOND
     1    39    40    1
     2    40    41    1
     3    40    29    1
     4    29    30   ar
     5    30    31   ar
     6    31    32   ar
     7    32    27    1
     8    27    28    3
     9    28     1    1
    10     1     2   ar
    11     2     3   ar
    12     3     4   ar
    13     4     5   ar
    14     5     6   ar
    15     5     7    1
    16     7     8    1
    17     8     9    1
    18     8    10    1
    19     8    11    1
    20    11    12   ar
    21    12    13   ar
    22    13    17    1
    23    17    18   ar
    24    18    23    1
    25    23    24    3
    26    18    19   ar
    27    19    20   ar
    28    20    21   ar
    29    21    22   ar
    30    22    25    1
    31    25    26    3
    32    13    14   ar
    33    14    15   ar
    34    32    33   ar
    35    33    35    1
    36    35    36    1
    37    35    37    1
    38    35    38    1
    39    33    34   ar
    40    34    29   ar
    41     6     1   ar
    42    15    11   ar
    43    15     4    1
    44    22    17   ar
    45    12    16    1
@<TRIPOS>MOLECULE
*****
 41 45 0 0 0
SMALL
GASTEIGER

@<TRIPOS>ATOM
      1 C           6.5895   75.9694   21.4766 C.ar    1  UNL1        0.0450
      2 C           6.8717   77.3089   21.7798 C.ar    1  UNL1        0.0085
      3 C           8.1197   77.6630   22.3017 C.ar    1  UNL1        0.0052
      4 C           9.0856   76.6733   22.5238 C.ar    1  UNL1        0.0529
      5 C           8.8068   75.3271   22.2266 C.ar    1  UNL1        0.1407
      6 C           7.5586   74.9808   21.6984 C.ar    1  UNL1        0.0452
      7 O           9.7788   74.3268   22.4399 O.3     1  UNL1       -0.4770
      8 C          11.0351   74.5224   23.1258 C.3     1  UNL1        0.1673
      9 C          10.9428   73.8572   24.5042 C.3     1  UNL1        0.0498
     10 C          12.1453   73.8685   22.2951 C.3     1  UNL1        0.0498
     11 C          11.3252   75.9951   23.3000 C.ar    1  UNL1        0.0891
     12 N          12.4282   76.5574   23.8162 N.ar    1  UNL1       -0.3380
     13 C          12.1506   77.8824   23.8456 C.ar    1  UNL1        0.1417
     14 N          10.9093   78.1788   23.3855 N.ar    1  UNL1       -0.2271
     15 C          10.4127   76.9729   23.0518 C.ar    1  UNL1        0.1005
     16 H          13.2866   76.0731   24.1607 H       1  UNL1        0.1672
     17 C          13.0929   78.9092   24.3576 C.ar    1  UNL1        0.0531
     18 C          14.4776   78.6257   24.4607 C.ar    1  UNL1        0.0720
     19 C          15.3596   79.6017   24.9421 C.ar    1  UNL1        0.0104
     20 C          14.8847   80.8549   25.3256 C.ar    1  UNL1        0.0014
     21 C          13.5245   81.1455   25.2361 C.ar    1  UNL1        0.0104
     22 C          12.6234   80.1851   24.7584 C.ar    1  UNL1        0.0720
     23 C          15.0264   77.3569   24.0418 C.1     1  UNL1        0.1005
     24 N          15.4663   76.3403   23.7066 N.1     1  UNL1       -0.1908
     25 C          11.2181   80.5182   24.7415 C.1     1  UNL1        0.1005
     26 N          10.0919   80.7847   24.7285 N.1     1  UNL1       -0.1908
     27 C           4.2266   75.3122   20.4893 C.1     1  UNL1       -0.0598
     28 C           5.3052   75.6105   20.9369 C.1     1  UNL1       -0.0597
     29 C           0.4009   74.1904   18.9875 C.ar    1  UNL1       -0.0225
     30 C           1.0131   73.4752   20.0272 C.ar    1  UNL1       -0.0037
     31 C           2.2659   73.8559   20.5070 C.ar    1  UNL1        0.0079
     32 C           2.9320   74.9578   19.9587 C.ar    1  UNL1        0.0458
     33 C           2.3357   75.6957   18.9091 C.ar    1  UNL1        0.0787
     34 C           1.0694   75.2990   18.4347 C.ar    1  UNL1        0.0002
     35 C           3.0422   76.8927   18.3022 C.3     1  UNL1        0.4191
     36 F           4.2984   76.5637   17.8223 F       1  UNL1       -0.1658
     37 F           2.2928   77.3896   17.2510 F       1  UNL1       -0.1658
     38 F           3.1887   77.8795   19.2605 F       1  UNL1       -0.1658
     39 C          -2.0878   74.4548   19.2560 C.3     1  UNL1        0.0047
     40 C          -0.9631   73.7629   18.4767 C.3     1  UNL1        0.0223
     41 C          -1.1177   72.2380   18.5207 C.3     1  UNL1        0.0047
@<TRIPOS>BOND
     1    39    40    1
     2    40    41    1
     3    40    29    1
     4    29    30   ar
     5    30    31   ar
     6    31    32   ar
     7    32    27    1
     8    27    28    3
     9    28     1    1
    10     1     2   ar
    11     2     3   ar
    12     3     4   ar
    13     4     5   ar
    14     5     6   ar
    15     5     7    1
    16     7     8    1
    17     8     9    1
    18     8    10    1
    19     8    11    1
    20    11    12   ar
    21    12    13   ar
    22    13    17    1
    23    17    18   ar
    24    18    23    1
    25    23    24    3
    26    18    19   ar
    27    19    20   ar
    28    20    21   ar
    29    21    22   ar
    30    22    25    1
    31    25    26    3
    32    13    14   ar
    33    14    15   ar
    34    32    33   ar
    35    33    35    1
    36    35    36    1
    37    35    37    1
    38    35    38    1
    39    33    34   ar
    40    34    29   ar
    41     6     1   ar
    42    15    11   ar
    43    15     4    1
    44    22    17   ar
    45    12    16    1
@<TRIPOS>MOLECULE
*****
 41 45 0 0 0
SMALL
GASTEIGER

@<TRIPOS>ATOM
      1 C          11.8703   81.9859   24.8577 C.ar    1  UNL1        0.0450
      2 C          11.3178   81.6786   26.1091 C.ar    1  UNL1        0.0085
      3 C          10.4973   80.5561   26.2581 C.ar    1  UNL1        0.0052
      4 C          10.2268   79.7420   25.1511 C.ar    1  UNL1        0.0529
      5 C          10.7739   80.0478   23.8919 C.ar    1  UNL1        0.1407
      6 C          11.5992   81.1684   23.7513 C.ar    1  UNL1        0.0452
      7 O          10.5121   79.2265   22.7748 O.3     1  UNL1       -0.4770
      8 C           9.5551   78.1446   22.7455 C.3     1  UNL1        0.1673
      9 C           8.3425   78.5931   21.9213 C.3     1  UNL1        0.0498
     10 C          10.2210   76.9291   22.0902 C.3     1  UNL1        0.0498
     11 C           9.1056   77.7907   24.1441 C.ar    1  UNL1        0.0891
     12 N           8.2902   76.7922   24.5146 N.ar    1  UNL1       -0.3380
     13 C           8.1224   76.9687   25.8465 C.ar    1  UNL1        0.1417
     14 N           8.7846   78.0495   26.3302 N.ar    1  UNL1       -0.2271
     15 C           9.3919   78.5481   25.2372 C.ar    1  UNL1        0.1005
     16 H           7.8486   76.0717   23.9013 H       1  UNL1        0.1672
     17 C           7.2756   76.0903   26.6926 C.ar    1  UNL1        0.0531
     18 C           5.8879   75.9646   26.4337 C.ar    1  UNL1        0.0720
     19 C           5.0973   75.1313   27.2354 C.ar    1  UNL1        0.0104
     20 C           5.6656   74.4232   28.2931 C.ar    1  UNL1        0.0014
     21 C           7.0276   74.5424   28.5638 C.ar    1  UNL1        0.0104
     22 C           7.8380   75.3703   27.7762 C.ar    1  UNL1        0.0720
     23 C           5.2567   76.6466   25.3278 C.1     1  UNL1        0.1005
     24 N           4.7509   77.1934   24.4420 N.1     1  UNL1       -0.1908
     25 C           9.2304   75.5028   28.1364 C.1     1  UNL1        0.1005
     26 N          10.3463   75.6091   28.4244 N.1     1  UNL1       -0.1908
     27 C          13.4231   84.1092   24.5914 C.1     1  UNL1       -0.0598
     28 C          12.7163   83.1400   24.7100 C.1     1  UNL1       -0.0597
     29 C          15.8893   87.5690   24.2810 C.ar    1  UNL1       -0.0225
     30 C          15.1660   87.2932   25.4507 C.ar    1  UNL1       -0.0037
     31 C          14.3633   86.1561   25.5355 C.ar    1  UNL1        0.0079
     32 C          14.2669   85.2721   24.4549 C.ar    1  UNL1        0.0458
     33 C          14.9865   85.5280   23.2640 C.ar    1  UNL1        0.0787
     34 C          15.7936   86.6811   23.1931 C.ar    1  UNL1        0.0002
     35 C          14.8947   84.5816   22.0823 C.3     1  UNL1        0.4191
     36 F          13.5881   84.2071   21.8196 F       1  UNL1       -0.1658
     37 F          15.4044   85.1981   20.9538 F       1  UNL1       -0.1658
     38 F          15.6289   83.4391   22.3452 F       1  UNL1       -0.1658
     39 C          17.3097   89.0151   22.7887 C.3     1  UNL1        0.0047
     40 C          16.7585   88.8112   24.2049 C.3     1  UNL1        0.0223
     41 C          17.8919   88.7578   25.2364 C.3     1  UNL1        0.0047
@<TRIPOS>BOND
     1    39    40    1
     2    40    41    1
     3    40    29    1
     4    29    30   ar
     5    30    31   ar
     6    31    32   ar
     7    32    27    1
     8    27    28    3
     9    28     1    1
    10     1     2   ar
    11     2     3   ar
    12     3     4   ar
    13     4     5   ar
    14     5     6   ar
    15     5     7    1
    16     7     8    1
    17     8     9    1
    18     8    10    1
    19     8    11    1
    20    11    12   ar
    21    12    13   ar
    22    13    17    1
    23    17    18   ar
    24    18    23    1
    25    23    24    3
    26    18    19   ar
    27    19    20   ar
    28    20    21   ar
    29    21    22   ar
    30    22    25    1
    31    25    26    3
    32    13    14   ar
    33    14    15   ar
    34    32    33   ar
    35    33    35    1
    36    35    36    1
    37    35    37    1
    38    35    38    1
    39    33    34   ar
    40    34    29   ar
    41     6     1   ar
    42    15    11   ar
    43    15     4    1
    44    22    17   ar
    45    12    16    1
@<TRIPOS>MOLECULE
*****
 41 45 0 0 0
SMALL
GASTEIGER

@<TRIPOS>ATOM
      1 C          11.8700   81.9933   24.8557 C.ar    1  UNL1        0.0450
      2 C          11.3129   81.6901   26.1062 C.ar    1  UNL1        0.0085
      3 C          10.4904   80.5691   26.2555 C.ar    1  UNL1        0.0052
      4 C          10.2223   79.7524   25.1497 C.ar    1  UNL1        0.0529
      5 C          10.7739   80.0542   23.8915 C.ar    1  UNL1        0.1407
      6 C          11.6013   81.1733   23.7507 C.ar    1  UNL1        0.0452
      7 O          10.5146   79.2303   22.7757 O.3     1  UNL1       -0.4770
      8 C           9.5562   78.1497   22.7461 C.3     1  UNL1        0.1673
      9 C           8.3469   78.5978   21.9168 C.3     1  UNL1        0.0498
     10 C          10.2224   76.9316   22.0962 C.3     1  UNL1        0.0498
     11 C           9.1016   77.8001   24.1442 C.ar    1  UNL1        0.0891
     12 N           8.2836   76.8038   24.5146 N.ar    1  UNL1       -0.3380
     13 C           8.1117   76.9840   25.8455 C.ar    1  UNL1        0.1417
     14 N           8.7739   78.0651   26.3285 N.ar    1  UNL1       -0.2271
     15 C           9.3855   78.5600   25.2362 C.ar    1  UNL1        0.1005
     16 H           7.8429   76.0823   23.9018 H       1  UNL1        0.1672
     17 C           7.2609   76.1090   26.6912 C.ar    1  UNL1        0.0531
     18 C           7.8252   75.3848   27.7707 C.ar    1  UNL1        0.0720
     19 C           7.0142   74.5640   28.5650 C.ar    1  UNL1        0.0104
     20 C           5.6505   74.4502   28.2998 C.ar    1  UNL1        0.0014
     21 C           5.0830   75.1513   27.2373 C.ar    1  UNL1        0.0104
     22 C           5.8743   75.9775   26.4288 C.ar    1  UNL1        0.0720
     23 C           9.2245   75.4964   28.1113 C.1     1  UNL1        0.1005
     24 N          10.3456   75.5862   28.3843 N.1     1  UNL1       -0.1908
     25 C           5.2470   76.6349   25.3060 C.1     1  UNL1        0.1005
     26 N           4.7439   77.1617   24.4067 N.1     1  UNL1       -0.1908
     27 C          13.4266   84.1136   24.5890 C.1     1  UNL1       -0.0598
     28 C          12.7181   83.1458   24.7078 C.1     1  UNL1       -0.0597
     29 C          15.8993   87.5688   24.2779 C.ar    1  UNL1       -0.0225
     30 C          15.1754   87.2946   25.4476 C.ar    1  UNL1       -0.0037
     31 C          14.3706   86.1590   25.5326 C.ar    1  UNL1        0.0079
     32 C          14.2726   85.2750   24.4522 C.ar    1  UNL1        0.0458
     33 C          14.9928   85.5292   23.2613 C.ar    1  UNL1        0.0787
     34 C          15.8019   86.6808   23.1901 C.ar    1  UNL1        0.0002
     35 C          14.8992   84.5827   22.0798 C.3     1  UNL1        0.4191
     36 F          13.5920   84.2096   21.8180 F       1  UNL1       -0.1658
     37 F          15.4089   85.1985   20.9509 F       1  UNL1       -0.1658
     38 F          15.6323   83.4394   22.3425 F       1  UNL1       -0.1658
     39 C          17.3050   89.0238   22.7803 C.3     1  UNL1        0.0047
     40 C          16.7708   88.8093   24.2015 C.3     1  UNL1        0.0223
     41 C          17.9167   88.7443   25.2184 C.3     1  UNL1        0.0047
@<TRIPOS>BOND
     1    39    40    1
     2    40    41    1
     3    40    29    1
     4    29    30   ar
     5    30    31   ar
     6    31    32   ar
     7    32    27    1
     8    27    28    3
     9    28     1    1
    10     1     2   ar
    11     2     3   ar
    12     3     4   ar
    13     4     5   ar
    14     5     6   ar
    15     5     7    1
    16     7     8    1
    17     8     9    1
    18     8    10    1
    19     8    11    1
    20    11    12   ar
    21    12    13   ar
    22    13    17    1
    23    17    18   ar
    24    18    23    1
    25    23    24    3
    26    18    19   ar
    27    19    20   ar
    28    20    21   ar
    29    21    22   ar
    30    22    25    1
    31    25    26    3
    32    13    14   ar
    33    14    15   ar
    34    32    33   ar
    35    33    35    1
    36    35    36    1
    37    35    37    1
    38    35    38    1
    39    33    34   ar
    40    34    29   ar
    41     6     1   ar
    42    15    11   ar
    43    15     4    1
    44    22    17   ar
    45    12    16    1
@<TRIPOS>MOLECULE
*****
 41 45 0 0 0
SMALL
GASTEIGER

@<TRIPOS>ATOM
      1 C          11.8391   81.5251   25.3115 C.ar    1  UNL1        0.0450
      2 C          10.9011   81.4215   26.3484 C.ar    1  UNL1        0.0085
      3 C          10.1683   80.2426   26.5174 C.ar    1  UNL1        0.0052
      4 C          10.3727   79.1668   25.6441 C.ar    1  UNL1        0.0529
      5 C          11.3086   79.2664   24.5988 C.ar    1  UNL1        0.1407
      6 C          12.0430   80.4463   24.4396 C.ar    1  UNL1        0.0452
      7 O          11.5252   78.1830   23.7212 O.3     1  UNL1       -0.4770
      8 C          10.7259   76.9805   23.6731 C.3     1  UNL1        0.1673
      9 C           9.8572   77.0267   22.4105 C.3     1  UNL1        0.0498
     10 C          11.6711   75.7746   23.6221 C.3     1  UNL1        0.0498
     11 C           9.8348   76.8821   24.8895 C.ar    1  UNL1        0.0891
     12 N           9.0183   75.8731   25.2276 N.ar    1  UNL1       -0.3380
     13 C           8.3735   76.3152   26.3330 C.ar    1  UNL1        0.1417
     14 N           8.7362   77.5707   26.6972 N.ar    1  UNL1       -0.2271
     15 C           9.6544   77.9028   25.7705 C.ar    1  UNL1        0.1005
     16 H           8.8801   74.9705   24.7211 H       1  UNL1        0.1672
     17 C           7.3490   75.5236   27.0598 C.ar    1  UNL1        0.0531
     18 C           7.6996   74.7861   28.2182 C.ar    1  UNL1        0.0720
     19 C           6.7257   74.0445   28.8991 C.ar    1  UNL1        0.0104
     20 C           5.4086   74.0225   28.4435 C.ar    1  UNL1        0.0014
     21 C           5.0507   74.7374   27.3018 C.ar    1  UNL1        0.0104
     22 C           6.0075   75.4857   26.6039 C.ar    1  UNL1        0.0720
     23 C           9.0411   74.8051   28.7535 C.1     1  UNL1        0.1005
     24 N          10.1159   74.8199   29.1826 N.1     1  UNL1       -0.1908
     25 C           5.5959   76.1598   25.3947 C.1     1  UNL1        0.1005
     26 N           5.2662   76.6995   24.4254 N.1     1  UNL1       -0.1908
     27 C          13.2254   83.7560   25.0087 C.1     1  UNL1       -0.0598
     28 C          12.5928   82.7389   25.1436 C.1     1  UNL1       -0.0597
     29 C          15.4495   87.3468   24.4529 C.ar    1  UNL1       -0.0225
     30 C          14.8798   86.6677   23.3658 C.ar    1  UNL1       -0.0037
     31 C          14.1548   85.4934   23.5655 C.ar    1  UNL1        0.0079
     32 C          13.9840   84.9740   24.8537 C.ar    1  UNL1        0.0458
     33 C          14.5487   85.6403   25.9668 C.ar    1  UNL1        0.0787
     34 C          15.2788   86.8259   25.7494 C.ar    1  UNL1        0.0002
     35 C          14.3743   85.0927   27.3704 C.3     1  UNL1        0.4191
     36 F          14.3565   83.7085   27.3873 F       1  UNL1       -0.1658
     37 F          15.4188   85.5228   28.1689 F       1  UNL1       -0.1658
     38 F          13.1808   85.5484   27.9009 F       1  UNL1       -0.1658
     39 C          16.3222   88.9542   22.7237 C.3     1  UNL1        0.0047
     40 C          16.2358   88.6239   24.2185 C.3     1  UNL1        0.0223
     41 C          17.6319   88.5376   24.8468 C.3     1  UNL1        0.0047
@<TRIPOS>BOND
     1    39    40    1
     2    40    41    1
     3    40    29    1
     4    29    30   ar
     5    30    31   ar
     6    31    32   ar
     7    32    27    1
     8    27    28    3
     9    28     1    1
    10     1     2   ar
    11     2     3   ar
    12     3     4   ar
    13     4     5   ar
    14     5     6   ar
    15     5     7    1
    16     7     8    1
    17     8     9    1
    18     8    10    1
    19     8    11    1
    20    11    12   ar
    21    12    13   ar
    22    13    17    1
    23    17    18   ar
    24    18    23    1
    25    23    24    3
    26    18    19   ar
    27    19    20   ar
    28    20    21   ar
    29    21    22   ar
    30    22    25    1
    31    25    26    3
    32    13    14   ar
    33    14    15   ar
    34    32    33   ar
    35    33    35    1
    36    35    36    1
    37    35    37    1
    38    35    38    1
    39    33    34   ar
    40    34    29   ar
    41     6     1   ar
    42    15    11   ar
    43    15     4    1
    44    22    17   ar
    45    12    16    1
