@<TRIPOS>MOLECULE
*****
 43 49 0 0 0
SMALL
GASTEIGER

@<TRIPOS>ATOM
      1 C         -10.4425   -7.6335   29.7979 C.3     1  UNL1        0.0817
      2 C         -10.2024   -8.4613   28.5153 C.3     1  UNL1        0.0252
      3 C         -10.2016   -9.9462   28.9324 C.3     1  UNL1        0.0278
      4 C         -10.2464   -9.9066   30.4150 C.ar    1  UNL1       -0.0248
      5 C         -10.1945  -11.0008   31.2803 C.ar    1  UNL1       -0.0045
      6 C         -10.2854  -10.7787   32.6691 C.ar    1  UNL1       -0.0002
      7 C         -10.4219   -9.4588   33.1551 C.ar    1  UNL1       -0.0003
      8 C         -10.4766   -8.3771   32.2650 C.ar    1  UNL1       -0.0033
      9 C         -10.3611   -8.6270   30.8965 C.ar    1  UNL1       -0.0117
     10 C          -9.6823   -5.1770   29.8835 C.3     1  UNL1        0.1158
     11 N          -8.5633   -4.4422   30.0981 N.3     1  UNL1       -0.2851
     12 C          -7.6224   -5.3690   30.3226 C.3     1  UNL1        0.0910
     13 C          -6.2871   -5.1406   30.6095 C.3     1  UNL1        0.1018
     14 C          -5.4774   -6.2597   30.8398 C.3     1  UNL1        0.3136
     15 N          -5.9969   -7.5356   30.8036 N.am    1  UNL1       -0.1294
     16 C          -7.3275   -7.7425   30.4938 C.2     1  UNL1        0.4047
     17 O          -7.7951   -8.9105   30.4404 O.2     1  UNL1       -0.2174
     18 C          -8.1463   -6.6234   30.2492 C.3     1  UNL1        0.2038
     19 N          -9.4669   -6.5309   29.9501 N.3     1  UNL1       -0.2473
     20 H          -8.6764   -3.8331   30.9084 H       1  UNL1        0.1244
     21 C         -10.7909   -3.1249   28.9887 C.3     1  UNL1        0.0029
     22 C         -11.0000   -4.4973   29.6194 C.3     1  UNL1        0.0326
     23 C          -5.0854   -8.6667   31.0638 C.3     1  UNL1        0.3394
     24 C          -5.2305   -9.7458   30.0078 C.ar    1  UNL1        0.0505
     25 C          -4.6966   -9.5115   28.7268 C.ar    1  UNL1        0.0021
     26 C          -4.7823  -10.4835   27.7294 C.ar    1  UNL1       -0.0001
     27 C          -5.3964  -11.7054   27.9957 C.ar    1  UNL1       -0.0003
     28 C          -5.9294  -11.9598   29.2599 C.ar    1  UNL1       -0.0044
     29 C          -5.8625  -10.9889   30.2755 C.ar    1  UNL1       -0.0193
     30 C          -6.4290  -11.3185   31.6311 C.3     1  UNL1        0.0309
     31 C         -10.2222  -11.9223   33.6093 C.ar    1  UNL1        0.0035
     32 C          -9.0990  -12.0330   34.4452 C.ar    1  UNL1        0.0001
     33 C          -9.0188  -13.0491   35.3951 C.ar    1  UNL1        0.0005
     34 C         -10.0551  -13.9709   35.5219 C.ar    1  UNL1        0.0068
     35 C         -11.1792  -13.8931   34.6938 C.ar    1  UNL1        0.0375
     36 BR        -12.5141  -15.2598   34.8896 Br      1  UNL1       -0.0489
     37 C         -11.2746  -12.8705   33.7208 C.ar    1  UNL1        0.0433
     38 C         -12.4394  -12.8222   32.8072 C.ar    1  UNL1        0.1810
     39 N         -13.4917  -11.9942   32.9478 N.ar    1  UNL1       -0.1083
     40 N         -14.2796  -12.2638   31.9161 N.ar    1  UNL1       -0.0229
     41 N         -13.7386  -13.2152   31.1698 N.ar    1  UNL1       -0.0464
     42 N         -12.5883  -13.5779   31.7068 N.ar    1  UNL1       -0.2388
     43 H         -11.9517  -14.3162   31.3333 H       1  UNL1        0.1923
@<TRIPOS>BOND
     1    21    22    1
     2    22    10    1
     3    10    11    1
     4    11    12    1
     5    12    13    1
     6    13    14    1
     7    14    15    1
     8    15    23    1
     9    23    24    1
    10    24    25   ar
    11    25    26   ar
    12    26    27   ar
    13    27    28   ar
    14    28    29   ar
    15    29    30    1
    16    15    16    1
    17    16    17    2
    18    16    18    1
    19    18    19    1
    20    19     1    1
    21     1     2    1
    22     2     3    1
    23     3     4    1
    24     4     5   ar
    25     5     6   ar
    26     6    31    1
    27    31    32   ar
    28    32    33   ar
    29    33    34   ar
    30    34    35   ar
    31    35    36    1
    32    35    37   ar
    33    37    38    1
    34    38    39   ar
    35    39    40   ar
    36    40    41   ar
    37    41    42   ar
    38     6     7   ar
    39     7     8   ar
    40     8     9   ar
    41    19    10    1
    42     9     1    1
    43    18    12    1
    44     9     4   ar
    45    29    24   ar
    46    37    31   ar
    47    42    38   ar
    48    42    43    1
    49    11    20    1
@<TRIPOS>MOLECULE
*****
 43 49 0 0 0
SMALL
GASTEIGER

@<TRIPOS>ATOM
      1 C         -10.7093   -7.5054   29.5536 C.3     1  UNL1        0.0817
      2 C         -10.1364   -8.2165   28.3069 C.3     1  UNL1        0.0252
      3 C         -10.4894   -9.7120   28.4409 C.3     1  UNL1        0.0278
      4 C         -11.0622   -9.8290   29.8046 C.ar    1  UNL1       -0.0248
      5 C         -11.4771  -11.0023   30.4370 C.ar    1  UNL1       -0.0045
      6 C         -12.0334  -10.9220   31.7294 C.ar    1  UNL1       -0.0002
      7 C         -12.1552   -9.6619   32.3575 C.ar    1  UNL1       -0.0003
      8 C         -11.7356   -8.4976   31.6991 C.ar    1  UNL1       -0.0033
      9 C         -11.1677   -8.6118   30.4290 C.ar    1  UNL1       -0.0117
     10 C          -9.8068   -5.2917   30.5047 C.3     1  UNL1        0.1158
     11 N          -8.7144   -4.8029   31.1418 N.3     1  UNL1       -0.2851
     12 C          -7.9216   -5.8756   31.2651 C.3     1  UNL1        0.0910
     13 C          -6.6737   -5.9186   31.8636 C.3     1  UNL1        0.1018
     14 C          -6.0241   -7.1582   31.9101 C.3     1  UNL1        0.3136
     15 N          -6.6157   -8.2931   31.3992 N.am    1  UNL1       -0.1294
     16 C          -7.8523   -8.2243   30.7864 C.2     1  UNL1        0.4047
     17 O          -8.3816   -9.2588   30.3014 O.2     1  UNL1       -0.2174
     18 C          -8.5075   -6.9795   30.7248 C.3     1  UNL1        0.2038
     19 N          -9.7143   -6.6295   30.2119 N.3     1  UNL1       -0.2473
     20 H          -8.9633   -4.4258   32.0563 H       1  UNL1        0.1244
     21 C         -10.6427   -3.4338   29.0589 C.3     1  UNL1        0.0029
     22 C         -10.9748   -4.3920   30.1976 C.3     1  UNL1        0.0326
     23 C          -5.8749   -9.5663   31.4902 C.3     1  UNL1        0.3394
     24 C          -5.3480   -9.9955   30.1342 C.ar    1  UNL1        0.0505
     25 C          -4.2314   -9.3243   29.6016 C.ar    1  UNL1        0.0021
     26 C          -3.6942   -9.6995   28.3697 C.ar    1  UNL1       -0.0001
     27 C          -4.2584  -10.7526   27.6530 C.ar    1  UNL1       -0.0003
     28 C          -5.3637  -11.4338   28.1642 C.ar    1  UNL1       -0.0044
     29 C          -5.9264  -11.0640   29.3992 C.ar    1  UNL1       -0.0193
     30 C          -7.1031  -11.8448   29.9218 C.3     1  UNL1        0.0309
     31 C         -12.4718  -12.1539   32.4265 C.ar    1  UNL1        0.0035
     32 C         -13.7730  -12.6249   32.1868 C.ar    1  UNL1        0.0001
     33 C         -14.2143  -13.8146   32.7621 C.ar    1  UNL1        0.0005
     34 C         -13.3660  -14.5488   33.5874 C.ar    1  UNL1        0.0068
     35 C         -12.0699  -14.0969   33.8546 C.ar    1  UNL1        0.0375
     36 BR        -11.0077  -15.1362   35.0709 Br      1  UNL1       -0.0489
     37 C         -11.6075  -12.8885   33.2823 C.ar    1  UNL1        0.0433
     38 C         -10.2547  -12.3825   33.6103 C.ar    1  UNL1        0.1810
     39 N          -9.2818  -12.1519   32.7087 N.ar    1  UNL1       -0.1083
     40 N          -8.2604  -11.6911   33.4175 N.ar    1  UNL1       -0.0229
     41 N          -8.5870  -11.6378   34.7002 N.ar    1  UNL1       -0.0464
     42 N          -9.8285  -12.0636   34.8435 N.ar    1  UNL1       -0.2388
     43 H         -10.3427  -12.1374   35.7491 H       1  UNL1        0.1923
@<TRIPOS>BOND
     1    21    22    1
     2    22    10    1
     3    10    11    1
     4    11    12    1
     5    12    13    1
     6    13    14    1
     7    14    15    1
     8    15    23    1
     9    23    24    1
    10    24    25   ar
    11    25    26   ar
    12    26    27   ar
    13    27    28   ar
    14    28    29   ar
    15    29    30    1
    16    15    16    1
    17    16    17    2
    18    16    18    1
    19    18    19    1
    20    19     1    1
    21     1     2    1
    22     2     3    1
    23     3     4    1
    24     4     5   ar
    25     5     6   ar
    26     6    31    1
    27    31    32   ar
    28    32    33   ar
    29    33    34   ar
    30    34    35   ar
    31    35    36    1
    32    35    37   ar
    33    37    38    1
    34    38    39   ar
    35    39    40   ar
    36    40    41   ar
    37    41    42   ar
    38     6     7   ar
    39     7     8   ar
    40     8     9   ar
    41    19    10    1
    42     9     1    1
    43    18    12    1
    44     9     4   ar
    45    29    24   ar
    46    37    31   ar
    47    42    38   ar
    48    42    43    1
    49    11    20    1
@<TRIPOS>MOLECULE
*****
 43 49 0 0 0
SMALL
GASTEIGER

@<TRIPOS>ATOM
      1 C          -5.8428  -10.5655   30.6346 C.3     1  UNL1        0.0817
      2 C          -5.2260  -10.6398   32.0495 C.3     1  UNL1        0.0252
      3 C          -6.2921  -11.2653   32.9722 C.3     1  UNL1        0.0278
      4 C          -7.5059  -11.3448   32.1224 C.ar    1  UNL1       -0.0248
      5 C          -8.7725  -11.7797   32.5163 C.ar    1  UNL1       -0.0045
      6 C          -9.8079  -11.8226   31.5612 C.ar    1  UNL1       -0.0002
      7 C          -9.5451  -11.4220   30.2316 C.ar    1  UNL1       -0.0003
      8 C          -8.2630  -10.9940   29.8600 C.ar    1  UNL1       -0.0033
      9 C          -7.2641  -10.9408   30.8336 C.ar    1  UNL1       -0.0117
     10 C          -4.8410   -8.8432   29.0069 C.3     1  UNL1        0.1158
     11 N          -4.9740   -7.5386   28.6627 N.3     1  UNL1       -0.2851
     12 C          -5.9448   -7.1011   29.4756 C.3     1  UNL1        0.0910
     13 C          -6.4737   -5.8221   29.5201 C.3     1  UNL1        0.1018
     14 C          -7.5099   -5.5851   30.4317 C.3     1  UNL1        0.3136
     15 N          -7.9968   -6.5928   31.2358 N.am    1  UNL1       -0.1294
     16 C          -7.4401   -7.8566   31.1912 C.2     1  UNL1        0.4047
     17 O          -7.8724   -8.7703   31.9421 O.2     1  UNL1       -0.2174
     18 C          -6.3898   -8.1007   30.2857 C.3     1  UNL1        0.2038
     19 N          -5.6847   -9.2292   30.0184 N.3     1  UNL1       -0.2473
     20 H          -5.2472   -7.4451   27.6845 H       1  UNL1        0.1244
     21 C          -4.5279  -10.5120   27.1744 C.3     1  UNL1        0.0029
     22 C          -3.8509   -9.7224   28.2895 C.3     1  UNL1        0.0326
     23 C          -9.0954   -6.2714   32.1675 C.3     1  UNL1        0.3394
     24 C         -10.4040   -6.8867   31.7099 C.ar    1  UNL1        0.0505
     25 C         -10.7306   -8.1825   32.1518 C.ar    1  UNL1        0.0021
     26 C         -11.9345   -8.7811   31.7790 C.ar    1  UNL1       -0.0001
     27 C         -12.8332   -8.0952   30.9649 C.ar    1  UNL1       -0.0003
     28 C         -12.5308   -6.8083   30.5182 C.ar    1  UNL1       -0.0044
     29 C         -11.3177   -6.1916   30.8742 C.ar    1  UNL1       -0.0193
     30 C         -11.0468   -4.7923   30.3888 C.3     1  UNL1        0.0309
     31 C         -11.1640  -12.2703   31.9563 C.ar    1  UNL1        0.0035
     32 C         -12.1983  -12.1682   31.0115 C.ar    1  UNL1        0.0001
     33 C         -13.4769  -12.6368   31.3056 C.ar    1  UNL1        0.0005
     34 C         -13.7431  -13.2098   32.5468 C.ar    1  UNL1        0.0068
     35 C         -12.7362  -13.3120   33.5117 C.ar    1  UNL1        0.0375
     36 BR        -13.2240  -14.0402   35.2204 Br      1  UNL1       -0.0489
     37 C         -11.4334  -12.8370   33.2312 C.ar    1  UNL1        0.0433
     38 C         -10.3824  -12.8950   34.2731 C.ar    1  UNL1        0.1810
     39 N         -10.0205  -14.0087   34.9374 N.ar    1  UNL1       -0.1083
     40 N          -9.0452  -13.6220   35.7482 N.ar    1  UNL1       -0.0229
     41 N          -8.8132  -12.3272   35.5917 N.ar    1  UNL1       -0.0464
     42 N          -9.6358  -11.8530   34.6744 N.ar    1  UNL1       -0.2388
     43 H          -9.6805  -10.8596   34.3564 H       1  UNL1        0.1923
@<TRIPOS>BOND
     1    21    22    1
     2    22    10    1
     3    10    11    1
     4    11    12    1
     5    12    13    1
     6    13    14    1
     7    14    15    1
     8    15    23    1
     9    23    24    1
    10    24    25   ar
    11    25    26   ar
    12    26    27   ar
    13    27    28   ar
    14    28    29   ar
    15    29    30    1
    16    15    16    1
    17    16    17    2
    18    16    18    1
    19    18    19    1
    20    19     1    1
    21     1     2    1
    22     2     3    1
    23     3     4    1
    24     4     5   ar
    25     5     6   ar
    26     6    31    1
    27    31    32   ar
    28    32    33   ar
    29    33    34   ar
    30    34    35   ar
    31    35    36    1
    32    35    37   ar
    33    37    38    1
    34    38    39   ar
    35    39    40   ar
    36    40    41   ar
    37    41    42   ar
    38     6     7   ar
    39     7     8   ar
    40     8     9   ar
    41    19    10    1
    42     9     1    1
    43    18    12    1
    44     9     4   ar
    45    29    24   ar
    46    37    31   ar
    47    42    38   ar
    48    42    43    1
    49    11    20    1
@<TRIPOS>MOLECULE
*****
 43 49 0 0 0
SMALL
GASTEIGER

@<TRIPOS>ATOM
      1 C          -7.0161  -10.3305   29.4668 C.3     1  UNL1        0.0817
      2 C          -6.3563  -11.6468   28.9979 C.3     1  UNL1        0.0252
      3 C          -7.3650  -12.7796   29.2779 C.3     1  UNL1        0.0278
      4 C          -8.4484  -12.1189   30.0469 C.ar    1  UNL1       -0.0248
      5 C          -9.5728  -12.7339   30.6002 C.ar    1  UNL1       -0.0045
      6 C         -10.5238  -11.9409   31.2731 C.ar    1  UNL1       -0.0002
      7 C         -10.3184  -10.5466   31.3774 C.ar    1  UNL1       -0.0003
      8 C          -9.1833   -9.9522   30.8087 C.ar    1  UNL1       -0.0033
      9 C          -8.2480  -10.7670   30.1684 C.ar    1  UNL1       -0.0117
     10 C          -4.9722   -9.9105   30.9721 C.3     1  UNL1        0.1158
     11 N          -4.3784   -8.9057   31.6618 N.3     1  UNL1       -0.2851
     12 C          -5.1754   -7.8550   31.4264 C.3     1  UNL1        0.0910
     13 C          -5.0048   -6.5643   31.8980 C.3     1  UNL1        0.1018
     14 C          -5.9464   -5.6052   31.5047 C.3     1  UNL1        0.3136
     15 N          -6.9880   -5.9315   30.6634 N.am    1  UNL1       -0.1294
     16 C          -7.1525   -7.2304   30.2218 C.2     1  UNL1        0.4047
     17 O          -8.1172   -7.5306   29.4703 O.2     1  UNL1       -0.2174
     18 C          -6.2169   -8.2037   30.6219 C.3     1  UNL1        0.2038
     19 N          -6.1216   -9.5253   30.3284 N.3     1  UNL1       -0.2473
     20 H          -3.4347   -8.7329   31.3154 H       1  UNL1        0.1244
     21 C          -3.9948  -11.7441   32.3590 C.3     1  UNL1        0.0029
     22 C          -4.3583  -11.2855   30.9509 C.3     1  UNL1        0.0326
     23 C          -7.9377   -4.8670   30.2851 C.3     1  UNL1        0.3394
     24 C          -9.3719   -5.2953   30.5303 C.ar    1  UNL1        0.0505
     25 C          -9.6178   -6.3347   31.4469 C.ar    1  UNL1        0.0021
     26 C         -10.9214   -6.7468   31.7254 C.ar    1  UNL1       -0.0001
     27 C         -11.9995   -6.1255   31.0988 C.ar    1  UNL1       -0.0003
     28 C         -11.7785   -5.0907   30.1892 C.ar    1  UNL1       -0.0044
     29 C         -10.4714   -4.6678   29.8870 C.ar    1  UNL1       -0.0193
     30 C         -10.2839   -3.5305   28.9182 C.3     1  UNL1        0.0309
     31 C         -11.7207  -12.5709   31.8784 C.ar    1  UNL1        0.0035
     32 C         -12.8881  -12.6597   31.1026 C.ar    1  UNL1        0.0001
     33 C         -14.0212  -13.3025   31.5964 C.ar    1  UNL1        0.0005
     34 C         -14.0074  -13.8619   32.8718 C.ar    1  UNL1        0.0068
     35 C         -12.8636  -13.7765   33.6717 C.ar    1  UNL1        0.0375
     36 BR        -12.9725  -14.5048   35.4453 Br      1  UNL1       -0.0489
     37 C         -11.7060  -13.1232   33.1875 C.ar    1  UNL1        0.0433
     38 C         -10.5143  -12.9847   34.0561 C.ar    1  UNL1        0.1810
     39 N          -9.6367  -11.9653   33.9987 N.ar    1  UNL1       -0.1083
     40 N          -8.7514  -12.2218   34.9518 N.ar    1  UNL1       -0.0229
     41 N          -9.0676  -13.3488   35.5720 N.ar    1  UNL1       -0.0464
     42 N         -10.1660  -13.8417   35.0300 N.ar    1  UNL1       -0.2388
     43 H         -10.6370  -14.7285   35.3157 H       1  UNL1        0.1923
@<TRIPOS>BOND
     1    21    22    1
     2    22    10    1
     3    10    11    1
     4    11    12    1
     5    12    13    1
     6    13    14    1
     7    14    15    1
     8    15    23    1
     9    23    24    1
    10    24    25   ar
    11    25    26   ar
    12    26    27   ar
    13    27    28   ar
    14    28    29   ar
    15    29    30    1
    16    15    16    1
    17    16    17    2
    18    16    18    1
    19    18    19    1
    20    19     1    1
    21     1     2    1
    22     2     3    1
    23     3     4    1
    24     4     5   ar
    25     5     6   ar
    26     6    31    1
    27    31    32   ar
    28    32    33   ar
    29    33    34   ar
    30    34    35   ar
    31    35    36    1
    32    35    37   ar
    33    37    38    1
    34    38    39   ar
    35    39    40   ar
    36    40    41   ar
    37    41    42   ar
    38     6     7   ar
    39     7     8   ar
    40     8     9   ar
    41    19    10    1
    42     9     1    1
    43    18    12    1
    44     9     4   ar
    45    29    24   ar
    46    37    31   ar
    47    42    38   ar
    48    42    43    1
    49    11    20    1
@<TRIPOS>MOLECULE
*****
 43 49 0 0 0
SMALL
GASTEIGER

@<TRIPOS>ATOM
      1 C         -10.7381   -7.6587   29.3033 C.3     1  UNL1        0.0817
      2 C          -9.9785   -8.4224   28.1953 C.3     1  UNL1        0.0252
      3 C         -10.2124   -9.9264   28.4449 C.3     1  UNL1        0.0278
      4 C         -10.9124   -9.9727   29.7524 C.ar    1  UNL1       -0.0248
      5 C         -11.2876  -11.1177   30.4572 C.ar    1  UNL1       -0.0045
      6 C         -11.9810  -10.9736   31.6757 C.ar    1  UNL1       -0.0002
      7 C         -12.2766   -9.6789   32.1590 C.ar    1  UNL1       -0.0003
      8 C         -11.8932   -8.5447   31.4297 C.ar    1  UNL1       -0.0033
      9 C         -11.1878   -8.7193   30.2379 C.ar    1  UNL1       -0.0117
     10 C         -10.2893   -5.5272   30.6725 C.3     1  UNL1        0.1158
     11 N          -9.2512   -4.8099   31.1686 N.3     1  UNL1       -0.2851
     12 C          -8.1766   -5.5024   30.7681 C.3     1  UNL1        0.0910
     13 C          -6.8511   -5.1969   31.0269 C.3     1  UNL1        0.1018
     14 C          -5.8795   -6.0773   30.5354 C.3     1  UNL1        0.3136
     15 N          -6.2329   -7.2139   29.8408 N.am    1  UNL1       -0.1294
     16 C          -7.5606   -7.4888   29.5744 C.2     1  UNL1        0.4047
     17 O          -7.8799   -8.5168   28.9212 O.2     1  UNL1       -0.2174
     18 C          -8.5436   -6.6025   30.0549 C.3     1  UNL1        0.2038
     19 N          -9.8973   -6.6343   29.9622 N.3     1  UNL1       -0.2473
     20 H          -9.2950   -4.7603   32.1864 H       1  UNL1        0.1244
     21 C         -12.1709   -5.5400   32.3158 C.3     1  UNL1        0.0029
     22 C         -11.7076   -5.0933   30.9334 C.3     1  UNL1        0.0326
     23 C          -5.1550   -8.0996   29.3593 C.3     1  UNL1        0.3394
     24 C          -5.0678   -9.3645   30.1917 C.ar    1  UNL1        0.0505
     25 C          -5.0512   -9.2487   31.5943 C.ar    1  UNL1        0.0021
     26 C          -4.9979  -10.3843   32.4034 C.ar    1  UNL1       -0.0001
     27 C          -4.9658  -11.6521   31.8267 C.ar    1  UNL1       -0.0003
     28 C          -4.9848  -11.7899   30.4383 C.ar    1  UNL1       -0.0044
     29 C          -5.0278  -10.6572   29.6053 C.ar    1  UNL1       -0.0193
     30 C          -5.0724  -10.8566   28.1135 C.3     1  UNL1        0.0309
     31 C         -12.3812  -12.1729   32.4483 C.ar    1  UNL1        0.0035
     32 C         -13.6776  -12.6802   32.2622 C.ar    1  UNL1        0.0001
     33 C         -14.0841  -13.8443   32.9109 C.ar    1  UNL1        0.0005
     34 C         -13.2052  -14.5162   33.7570 C.ar    1  UNL1        0.0068
     35 C         -11.9132  -14.0266   33.9717 C.ar    1  UNL1        0.0375
     36 BR        -10.8067  -14.9777   35.2204 Br      1  UNL1       -0.0489
     37 C         -11.4858  -12.8434   33.3245 C.ar    1  UNL1        0.0433
     38 C         -10.1368  -12.2953   33.5957 C.ar    1  UNL1        0.1810
     39 N          -9.1662  -12.1533   32.6736 N.ar    1  UNL1       -0.1083
     40 N          -8.1480  -11.6128   33.3288 N.ar    1  UNL1       -0.0229
     41 N          -8.4744  -11.4275   34.5992 N.ar    1  UNL1       -0.0464
     42 N          -9.7125  -11.8454   34.7881 N.ar    1  UNL1       -0.2388
     43 H         -10.2256  -11.8276   35.6971 H       1  UNL1        0.1923
@<TRIPOS>BOND
     1    21    22    1
     2    22    10    1
     3    10    11    1
     4    11    12    1
     5    12    13    1
     6    13    14    1
     7    14    15    1
     8    15    23    1
     9    23    24    1
    10    24    25   ar
    11    25    26   ar
    12    26    27   ar
    13    27    28   ar
    14    28    29   ar
    15    29    30    1
    16    15    16    1
    17    16    17    2
    18    16    18    1
    19    18    19    1
    20    19     1    1
    21     1     2    1
    22     2     3    1
    23     3     4    1
    24     4     5   ar
    25     5     6   ar
    26     6    31    1
    27    31    32   ar
    28    32    33   ar
    29    33    34   ar
    30    34    35   ar
    31    35    36    1
    32    35    37   ar
    33    37    38    1
    34    38    39   ar
    35    39    40   ar
    36    40    41   ar
    37    41    42   ar
    38     6     7   ar
    39     7     8   ar
    40     8     9   ar
    41    19    10    1
    42     9     1    1
    43    18    12    1
    44     9     4   ar
    45    29    24   ar
    46    37    31   ar
    47    42    38   ar
    48    42    43    1
    49    11    20    1
