@<TRIPOS>MOLECULE
*****
 48 53 0 0 0
SMALL
GASTEIGER

@<TRIPOS>ATOM
      1 O         -61.1424  -42.5031  -19.9888 O.2     1  UNL1       -0.2701
      2 C         -61.9031  -41.8747  -20.7752 C.2     1  UNL1        0.2484
      3 N         -62.8673  -40.9545  -20.2385 N.am    1  UNL1       -0.2945
      4 H         -63.3322  -40.2786  -20.8847 H       1  UNL1        0.1501
      5 C         -61.7672  -42.0903  -22.2386 C.ar    1  UNL1        0.0831
      6 C         -60.5488  -42.5685  -22.7496 C.ar    1  UNL1        0.0082
      7 C         -60.3929  -42.8099  -24.1156 C.ar    1  UNL1        0.0171
      8 C         -61.4555  -42.5919  -25.0060 C.ar    1  UNL1        0.0780
      9 C         -62.6797  -42.1179  -24.5010 C.ar    1  UNL1        0.1807
     10 F         -63.7218  -41.8722  -25.3337 F       1  UNL1       -0.2005
     11 C         -62.8367  -41.8703  -23.1325 C.ar    1  UNL1        0.1729
     12 F         -64.0513  -41.4587  -22.6921 F       1  UNL1       -0.2016
     13 N         -61.2891  -42.8647  -26.4131 N.pl3   1  UNL1       -0.3023
     14 C         -61.1873  -44.2543  -26.8786 C.3     1  UNL1        0.1123
     15 C         -60.3944  -44.3305  -28.1866 C.3     1  UNL1        0.1122
     16 N         -60.9172  -43.3887  -29.1896 N.pl3   1  UNL1       -0.3040
     17 C         -61.7932  -42.2835  -28.7722 C.3     1  UNL1        0.1122
     18 C         -61.3932  -41.7669  -27.3866 C.3     1  UNL1        0.1123
     19 C         -60.6365  -43.6054  -30.5908 C.ar    1  UNL1        0.0488
     20 C         -59.4215  -44.1877  -30.9946 C.ar    1  UNL1        0.0154
     21 C         -59.1512  -44.3991  -32.3488 C.ar    1  UNL1        0.0135
     22 C         -60.0875  -44.0361  -33.3213 C.ar    1  UNL1        0.0683
     23 CL        -59.7100  -44.3184  -35.0154 Cl      1  UNL1       -0.0814
     24 C         -61.3061  -43.4570  -32.9326 C.ar    1  UNL1        0.0694
     25 CL        -62.5144  -42.9925  -34.1230 Cl      1  UNL1       -0.0813
     26 C         -61.5758  -43.2451  -31.5753 C.ar    1  UNL1        0.0268
     27 C         -63.2021  -40.9189  -18.8070 C.3     1  UNL1        0.1535
     28 C         -63.7395  -39.5575  -18.4134 C.2     1  UNL1        0.2443
     29 O         -64.5239  -39.4483  -17.4312 O.2     1  UNL1       -0.2730
     30 N         -63.2431  -38.3746  -19.0599 N.am    1  UNL1       -0.2825
     31 H         -62.3091  -38.4274  -19.5265 H       1  UNL1        0.1549
     32 C         -63.9208  -37.1068  -19.0383 C.ar    1  UNL1        0.0535
     33 C         -65.2272  -37.0142  -19.5379 C.ar    1  UNL1        0.0353
     34 C         -65.8981  -35.7896  -19.4974 C.ar    1  UNL1        0.1002
     35 N         -65.2921  -34.6974  -18.9615 N.ar    1  UNL1       -0.2422
     36 C         -64.0332  -34.7598  -18.4525 C.ar    1  UNL1        0.1002
     37 C         -63.3264  -35.9647  -18.4743 C.ar    1  UNL1        0.0353
     38 C         -64.1681  -42.0753  -18.4498 C.3     1  UNL1        0.0569
     39 C         -65.0459  -42.4811  -19.6044 C.ar    1  UNL1       -0.0017
     40 C         -65.3546  -43.7799  -20.0015 C.ar    1  UNL1        0.0681
     41 N         -66.2368  -43.7646  -21.0260 N.ar    1  UNL1       -0.3523
     42 C         -66.4913  -42.4697  -21.2793 C.ar    1  UNL1        0.0563
     43 C         -67.3666  -41.9532  -22.2338 C.ar    1  UNL1        0.0170
     44 C         -67.5031  -40.5556  -22.3135 C.ar    1  UNL1        0.0015
     45 C         -66.7675  -39.7147  -21.4502 C.ar    1  UNL1        0.0001
     46 C         -65.8898  -40.2634  -20.4980 C.ar    1  UNL1        0.0012
     47 C         -65.7804  -41.6543  -20.4358 C.ar    1  UNL1        0.0131
     48 H         -66.6462  -44.5944  -21.5101 H       1  UNL1        0.1660
@<TRIPOS>BOND
     1     1     2    2
     2     2     3   am
     3     3    27    1
     4    27    38    1
     5    38    39    1
     6    39    40   ar
     7    40    41   ar
     8    41    42   ar
     9    42    43   ar
    10    43    44   ar
    11    44    45   ar
    12    45    46   ar
    13    46    47   ar
    14    27    28    1
    15    28    29    2
    16    28    30   am
    17    30    32    1
    18    32    33   ar
    19    33    34   ar
    20    34    35   ar
    21    35    36   ar
    22    36    37   ar
    23     2     5    1
    24     5     6   ar
    25     6     7   ar
    26     7     8   ar
    27     8    13    1
    28    13    14    1
    29    14    15    1
    30    15    16    1
    31    16    19    1
    32    19    20   ar
    33    20    21   ar
    34    21    22   ar
    35    22    23    1
    36    22    24   ar
    37    24    25    1
    38    24    26   ar
    39    16    17    1
    40    17    18    1
    41     8     9   ar
    42     9    10    1
    43     9    11   ar
    44    11    12    1
    45    47    39   ar
    46    37    32   ar
    47    11     5   ar
    48    47    42   ar
    49    18    13    1
    50    26    19   ar
    51     3     4    1
    52    41    48    1
    53    30    31    1
@<TRIPOS>MOLECULE
*****
 48 53 0 0 0
SMALL
GASTEIGER

@<TRIPOS>ATOM
      1 O         -63.0287  -54.4515  -22.4865 O.2     1  UNL1       -0.2701
      2 C         -63.9260  -53.6148  -22.7810 C.2     1  UNL1        0.2484
      3 N         -65.3005  -53.9272  -22.5023 N.am    1  UNL1       -0.2945
      4 H         -66.0079  -53.1597  -22.5350 H       1  UNL1        0.1501
      5 C         -63.5333  -52.3188  -23.3917 C.ar    1  UNL1        0.0831
      6 C         -64.3941  -51.7120  -24.3218 C.ar    1  UNL1        0.0082
      7 C         -64.0721  -50.4807  -24.8953 C.ar    1  UNL1        0.0171
      8 C         -62.8866  -49.8168  -24.5443 C.ar    1  UNL1        0.0780
      9 C         -62.0224  -50.4160  -23.6103 C.ar    1  UNL1        0.1807
     10 F         -60.8560  -49.8162  -23.2644 F       1  UNL1       -0.2005
     11 C         -62.3408  -51.6527  -23.0378 C.ar    1  UNL1        0.1729
     12 F         -61.4961  -52.1638  -22.1083 F       1  UNL1       -0.2016
     13 N         -62.5743  -48.5348  -25.1282 N.pl3   1  UNL1       -0.3023
     14 C         -62.2393  -47.4001  -24.2575 C.3     1  UNL1        0.1123
     15 C         -62.5819  -46.0732  -24.9412 C.3     1  UNL1        0.1122
     16 N         -62.0015  -45.9969  -26.2916 N.pl3   1  UNL1       -0.3040
     17 C         -61.5400  -47.2218  -26.9622 C.3     1  UNL1        0.1122
     18 C         -62.4260  -48.4136  -26.5866 C.3     1  UNL1        0.1123
     19 C         -61.8094  -44.7083  -26.9172 C.ar    1  UNL1        0.0488
     20 C         -60.7048  -44.4790  -27.7573 C.ar    1  UNL1        0.0154
     21 C         -60.5205  -43.2341  -28.3637 C.ar    1  UNL1        0.0135
     22 C         -61.4346  -42.1993  -28.1449 C.ar    1  UNL1        0.0683
     23 CL        -61.1676  -40.6468  -28.9263 Cl      1  UNL1       -0.0814
     24 C         -62.5438  -42.4149  -27.3115 C.ar    1  UNL1        0.0694
     25 CL        -63.7213  -41.1427  -27.0154 Cl      1  UNL1       -0.0813
     26 C         -62.7273  -43.6627  -26.7038 C.ar    1  UNL1        0.0268
     27 C         -65.7378  -55.2864  -22.1505 C.3     1  UNL1        0.1535
     28 C         -66.6090  -55.2677  -20.9104 C.2     1  UNL1        0.2443
     29 O         -66.4200  -56.1133  -19.9933 O.2     1  UNL1       -0.2730
     30 N         -67.5490  -54.2003  -20.7086 N.am    1  UNL1       -0.2825
     31 H         -67.3869  -53.3025  -21.2190 H       1  UNL1        0.1549
     32 C         -68.6541  -54.2702  -19.7916 C.ar    1  UNL1        0.0535
     33 C         -69.8882  -53.7134  -20.1546 C.ar    1  UNL1        0.0353
     34 C         -70.9711  -53.7997  -19.2764 C.ar    1  UNL1        0.1002
     35 N         -70.8322  -54.4345  -18.0827 N.ar    1  UNL1       -0.2422
     36 C         -69.6538  -55.0004  -17.7103 C.ar    1  UNL1        0.1002
     37 C         -68.5453  -54.9358  -18.5583 C.ar    1  UNL1        0.0353
     38 C         -66.4265  -55.9623  -23.3616 C.3     1  UNL1        0.0569
     39 C         -67.8098  -55.4263  -23.6211 C.ar    1  UNL1       -0.0017
     40 C         -68.1537  -54.3861  -24.4812 C.ar    1  UNL1        0.0681
     41 N         -69.4963  -54.2319  -24.5246 N.ar    1  UNL1       -0.3523
     42 C         -70.0052  -55.1654  -23.7028 C.ar    1  UNL1        0.0563
     43 C         -71.3518  -55.4162  -23.4425 C.ar    1  UNL1        0.0170
     44 C         -71.6674  -56.4670  -22.5625 C.ar    1  UNL1        0.0015
     45 C         -70.6419  -57.2326  -21.9658 C.ar    1  UNL1        0.0001
     46 C         -69.2916  -56.9557  -22.2449 C.ar    1  UNL1        0.0012
     47 C         -69.0080  -55.9121  -23.1286 C.ar    1  UNL1        0.0131
     48 H         -70.0270  -53.5360  -25.0942 H       1  UNL1        0.1660
@<TRIPOS>BOND
     1     1     2    2
     2     2     3   am
     3     3    27    1
     4    27    38    1
     5    38    39    1
     6    39    40   ar
     7    40    41   ar
     8    41    42   ar
     9    42    43   ar
    10    43    44   ar
    11    44    45   ar
    12    45    46   ar
    13    46    47   ar
    14    27    28    1
    15    28    29    2
    16    28    30   am
    17    30    32    1
    18    32    33   ar
    19    33    34   ar
    20    34    35   ar
    21    35    36   ar
    22    36    37   ar
    23     2     5    1
    24     5     6   ar
    25     6     7   ar
    26     7     8   ar
    27     8    13    1
    28    13    14    1
    29    14    15    1
    30    15    16    1
    31    16    19    1
    32    19    20   ar
    33    20    21   ar
    34    21    22   ar
    35    22    23    1
    36    22    24   ar
    37    24    25    1
    38    24    26   ar
    39    16    17    1
    40    17    18    1
    41     8     9   ar
    42     9    10    1
    43     9    11   ar
    44    11    12    1
    45    47    39   ar
    46    37    32   ar
    47    11     5   ar
    48    47    42   ar
    49    18    13    1
    50    26    19   ar
    51     3     4    1
    52    41    48    1
    53    30    31    1
