@<TRIPOS>MOLECULE
*****
 45 50 0 0 0
SMALL
GASTEIGER

@<TRIPOS>ATOM
      1 C          59.4687   89.5586    6.0190 C.ar    1  UNL1        0.0702
      2 C          58.2429   90.0470    5.5406 C.ar    1  UNL1        0.0191
      3 C          58.1892   90.7458    4.3335 C.ar    1  UNL1        0.0356
      4 C          59.3659   90.9401    3.5895 C.ar    1  UNL1        0.1318
      5 N          60.5415   90.4496    4.0730 N.ar    1  UNL1       -0.2279
      6 C          60.6174   89.7672    5.2459 C.ar    1  UNL1        0.1149
      7 N          59.3584   91.6665    2.3425 N.pl3   1  UNL1       -0.2932
      8 C          58.4424   91.2874    1.2527 C.3     1  UNL1        0.0923
      9 C          59.0713   91.4651   -0.1465 C.3     1  UNL1        0.0252
     10 C          60.2356   92.4811   -0.1999 C.3     1  UNL1        0.0472
     11 C          60.0559   93.5576    0.8784 C.3     1  UNL1        0.0252
     12 C          60.1436   92.9090    2.2627 C.3     1  UNL1        0.0923
     13 C          60.3897   93.1193   -1.5947 C.3     1  UNL1        0.2054
     14 O          61.7614   93.1323   -1.9994 O.3     1  UNL1       -0.4755
     15 C          62.8476   92.5913   -1.2916 C.ar    1  UNL1        0.1388
     16 C          63.7931   91.7287   -1.8778 C.ar    1  UNL1        0.0369
     17 C          64.8495   91.2235   -1.1172 C.ar    1  UNL1        0.0033
     18 C          64.9822   91.5765    0.2269 C.ar    1  UNL1        0.0066
     19 C          64.0574   92.4486    0.8262 C.ar    1  UNL1        0.0785
     20 C          62.9965   92.9532    0.0537 C.ar    1  UNL1        0.0433
     21 C          64.1946   92.8322    2.2487 C.2     1  UNL1        0.3381
     22 O          64.8750   93.8424    2.5751 O.2     1  UNL1       -0.2451
     23 O          63.5727   92.0798    3.2420 O.3     1  UNL1       -0.4771
     24 H          63.6605   92.3338    4.2188 H       1  UNL1        0.2954
     25 C          59.8785   87.4150    7.3079 C.2     1  UNL1        0.2839
     26 O          59.6240   86.6666    6.3263 O.2     1  UNL1       -0.2665
     27 N          59.5603   88.8133    7.2454 N.am    1  UNL1       -0.2766
     28 H          59.2743   89.2874    8.1310 H       1  UNL1        0.1553
     29 C          62.2055   84.6903   12.1336 C.ar    1  UNL1        0.0002
     30 C          61.8516   85.9444   12.7014 C.ar    1  UNL1        0.0031
     31 C          61.2474   86.9447   11.9198 C.ar    1  UNL1        0.0375
     32 C          61.0073   86.6687   10.5782 C.ar    1  UNL1        0.1452
     33 O          60.4603   87.4594    9.6875 O.2     1  UNL1       -0.4492
     34 C          60.4251   86.8117    8.5361 C.ar    1  UNL1        0.1946
     35 C          60.9565   85.5255    8.6942 C.ar    1  UNL1        0.0202
     36 C          61.0881   84.4377    7.6713 C.3     1  UNL1        0.0345
     37 C          61.3410   85.4653   10.0189 C.ar    1  UNL1        0.0337
     38 C          61.9422   84.4502   10.7635 C.ar    1  UNL1        0.0028
     39 C          62.0573   80.1532   14.2975 C.3     1  UNL1        0.0310
     40 C          62.7873   81.4307   14.0047 C.ar    1  UNL1       -0.0218
     41 C          64.0515   81.6653   14.5638 C.ar    1  UNL1       -0.0043
     42 C          64.7163   82.8681   14.3170 C.ar    1  UNL1       -0.0003
     43 C          64.1206   83.8504   13.5224 C.ar    1  UNL1       -0.0000
     44 C          62.8447   83.6419   12.9685 C.ar    1  UNL1       -0.0003
     45 C          62.1816   82.4264   13.2220 C.ar    1  UNL1       -0.0043
@<TRIPOS>BOND
     1    39    40    1
     2    40    41   ar
     3    41    42   ar
     4    42    43   ar
     5    43    44   ar
     6    44    29    1
     7    29    30   ar
     8    30    31   ar
     9    31    32   ar
    10    32    33   ar
    11    33    34   ar
    12    34    25    1
    13    25    26    2
    14    25    27   am
    15    27     1    1
    16     1     2   ar
    17     2     3   ar
    18     3     4   ar
    19     4     7    1
    20     7     8    1
    21     8     9    1
    22     9    10    1
    23    10    13    1
    24    13    14    1
    25    14    15    1
    26    15    16   ar
    27    16    17   ar
    28    17    18   ar
    29    18    19   ar
    30    19    21    1
    31    21    22    2
    32    21    23    1
    33    19    20   ar
    34    10    11    1
    35    11    12    1
    36     4     5   ar
    37     5     6   ar
    38    34    35   ar
    39    35    36    1
    40    35    37   ar
    41    37    38   ar
    42    44    45   ar
    43    45    40   ar
    44    38    29   ar
    45    37    32   ar
    46     6     1   ar
    47    12     7    1
    48    20    15   ar
    49    27    28    1
    50    23    24    1
@<TRIPOS>MOLECULE
*****
 45 50 0 0 0
SMALL
GASTEIGER

@<TRIPOS>ATOM
      1 C          59.8047   87.2743    7.6968 C.ar    1  UNL1        0.0702
      2 C          59.3497   85.9710    7.9506 C.ar    1  UNL1        0.0191
      3 C          59.3376   85.4737    9.2548 C.ar    1  UNL1        0.0356
      4 C          59.7641   86.2921   10.3150 C.ar    1  UNL1        0.1318
      5 N          60.1942   87.5557   10.0421 N.ar    1  UNL1       -0.2279
      6 C          60.2154   88.0604    8.7804 C.ar    1  UNL1        0.1149
      7 N          59.7793   85.8149   11.6770 N.pl3   1  UNL1       -0.2932
      8 C          58.7131   86.1915   12.6215 C.3     1  UNL1        0.0923
      9 C          59.2341   86.3981   14.0605 C.3     1  UNL1        0.0252
     10 C          60.5583   85.6634   14.3728 C.3     1  UNL1        0.0472
     11 C          60.6823   84.3970   13.5156 C.3     1  UNL1        0.0252
     12 C          60.7726   84.7907   12.0385 C.3     1  UNL1        0.0923
     13 C          60.7016   85.3303   15.8711 C.3     1  UNL1        0.2054
     14 O          61.8657   85.9527   16.4216 O.3     1  UNL1       -0.4755
     15 C          62.6423   86.9558   15.8182 C.ar    1  UNL1        0.1388
     16 C          63.5356   86.7030   14.7599 C.ar    1  UNL1        0.0369
     17 C          64.2805   87.7457   14.2052 C.ar    1  UNL1        0.0033
     18 C          64.1389   89.0477   14.6885 C.ar    1  UNL1        0.0066
     19 C          63.2410   89.3230   15.7339 C.ar    1  UNL1        0.0785
     20 C          62.4945   88.2677   16.2872 C.ar    1  UNL1        0.0433
     21 C          63.0809   90.7013   16.2477 C.2     1  UNL1        0.3381
     22 O          61.9824   91.0757   16.7407 O.2     1  UNL1       -0.2451
     23 O          64.1436   91.5996   16.1913 O.3     1  UNL1       -0.4771
     24 H          64.0444   92.5456   16.5400 H       1  UNL1        0.2954
     25 C          59.1015   89.0235    6.0028 C.2     1  UNL1        0.2839
     26 O          58.0796   89.3752    6.6514 O.2     1  UNL1       -0.2665
     27 N          59.8091   87.8301    6.3706 N.am    1  UNL1       -0.2766
     28 H          60.2621   87.2784    5.6081 H       1  UNL1        0.1553
     29 C          61.0289   92.1282    1.2308 C.ar    1  UNL1        0.0002
     30 C          59.6283   92.3433    1.1194 C.ar    1  UNL1        0.0031
     31 C          58.7374   91.7897    2.0556 C.ar    1  UNL1        0.0375
     32 C          59.2685   91.0282    3.0909 C.ar    1  UNL1        0.1452
     33 O          58.6147   90.4293    4.0561 O.2     1  UNL1       -0.4492
     34 C          59.4967   89.8108    4.8215 C.ar    1  UNL1        0.1946
     35 C          60.7920   90.0396    4.3401 C.ar    1  UNL1        0.0202
     36 C          62.0958   89.5633    4.9059 C.3     1  UNL1        0.0345
     37 C          60.6147   90.8146    3.2113 C.ar    1  UNL1        0.0337
     38 C          61.5277   91.3474    2.3011 C.ar    1  UNL1        0.0028
     39 C          65.6001   93.8401    0.0209 C.3     1  UNL1        0.0310
     40 C          64.1838   93.5299   -0.3648 C.ar    1  UNL1       -0.0218
     41 C          63.7165   93.8461   -1.6484 C.ar    1  UNL1       -0.0043
     42 C          62.3894   93.5868   -1.9962 C.ar    1  UNL1       -0.0003
     43 C          61.5156   93.0229   -1.0637 C.ar    1  UNL1       -0.0000
     44 C          61.9601   92.7166    0.2350 C.ar    1  UNL1       -0.0003
     45 C          63.2997   92.9809    0.5773 C.ar    1  UNL1       -0.0043
@<TRIPOS>BOND
     1    39    40    1
     2    40    41   ar
     3    41    42   ar
     4    42    43   ar
     5    43    44   ar
     6    44    29    1
     7    29    30   ar
     8    30    31   ar
     9    31    32   ar
    10    32    33   ar
    11    33    34   ar
    12    34    25    1
    13    25    26    2
    14    25    27   am
    15    27     1    1
    16     1     2   ar
    17     2     3   ar
    18     3     4   ar
    19     4     7    1
    20     7     8    1
    21     8     9    1
    22     9    10    1
    23    10    13    1
    24    13    14    1
    25    14    15    1
    26    15    16   ar
    27    16    17   ar
    28    17    18   ar
    29    18    19   ar
    30    19    21    1
    31    21    22    2
    32    21    23    1
    33    19    20   ar
    34    10    11    1
    35    11    12    1
    36     4     5   ar
    37     5     6   ar
    38    34    35   ar
    39    35    36    1
    40    35    37   ar
    41    37    38   ar
    42    44    45   ar
    43    45    40   ar
    44    38    29   ar
    45    37    32   ar
    46     6     1   ar
    47    12     7    1
    48    20    15   ar
    49    27    28    1
    50    23    24    1
