@<TRIPOS>MOLECULE
*****
 46 51 0 0 0
SMALL
GASTEIGER

@<TRIPOS>ATOM
      1 N          61.0307   88.4004   13.7363 N.pl3   1  UNL1       -0.3041
      2 C          59.7415   88.5905   13.0508 C.3     1  UNL1        0.1122
      3 C          58.7858   87.4236   13.3242 C.3     1  UNL1        0.1122
      4 N          59.5175   86.1516   13.2375 N.pl3   1  UNL1       -0.3041
      5 C          60.7620   85.9736   14.0039 C.3     1  UNL1        0.1122
      6 C          61.1971   87.2815   14.6750 C.3     1  UNL1        0.1122
      7 C          64.2784   91.0020   12.8349 C.ar    1  UNL1        0.0695
      8 C          63.1730   90.9260   11.9757 C.ar    1  UNL1        0.0190
      9 C          62.1072   90.0716   12.2705 C.ar    1  UNL1        0.0160
     10 C          62.1361   89.2695   13.4238 C.ar    1  UNL1        0.0480
     11 C          63.2475   89.3434   14.2796 C.ar    1  UNL1        0.0160
     12 C          64.3130   90.1976   13.9831 C.ar    1  UNL1        0.0190
     13 N          66.7206   93.2666   11.4294 N.ar    1  UNL1       -0.2028
     14 N          67.2701   93.0660   12.6183 N.ar    1  UNL1       -0.1521
     15 C          66.4496   92.2168   13.2792 C.ar    1  UNL1        0.1470
     16 N          65.3780   91.8721   12.5210 N.ar    1  UNL1       -0.2457
     17 C          65.5815   92.5535   11.3785 C.ar    1  UNL1        0.3519
     18 O          64.8087   92.5182   10.3826 O.2     1  UNL1       -0.2444
     19 C          66.6870   91.7911   14.7075 C.3     1  UNL1        0.0592
     20 C          68.1827   91.8391   15.0308 C.3     1  UNL1        0.0080
     21 C          65.8941   92.6840   15.6671 C.3     1  UNL1        0.0080
     22 C          67.2720   94.1484   10.3955 C.3     1  UNL1        0.1099
     23 C          66.1351   94.8924    9.6901 C.3     1  UNL1        0.0265
     24 C          68.4589   91.9517    9.9145 C.3     1  UNL1        0.0021
     25 C          68.1058   93.3406    9.3836 C.3     1  UNL1        0.0245
     26 C          59.0700   85.1043   12.3555 C.ar    1  UNL1        0.0481
     27 C          59.6403   83.8231   12.4244 C.ar    1  UNL1        0.0176
     28 C          59.2133   82.8113   11.5599 C.ar    1  UNL1        0.0382
     29 C          58.2167   83.0602   10.6100 C.ar    1  UNL1        0.1388
     30 C          57.6490   84.3457   10.5319 C.ar    1  UNL1        0.0382
     31 C          58.0749   85.3578   11.3971 C.ar    1  UNL1        0.0176
     32 O          57.8215   82.0104    9.7684 O.3     1  UNL1       -0.4727
     33 C          57.6364   82.1330    8.3603 C.3     1  UNL1        0.2374
     34 C          58.9483   81.8034    7.6408 C.3     1  UNL1        0.1910
     35 C          60.0187   81.3341    8.5936 C.3     1  UNL1        0.1785
     36 O          60.8384   82.4333    8.8241 O.3     1  UNL1       -0.3244
     37 C          60.6240   83.2928    7.7271 C.3     1  UNL1        0.2610
     38 O          59.4477   82.9530    7.0281 O.3     1  UNL1       -0.3231
     39 C          60.5288   84.7334    8.1826 C.ar    1  UNL1        0.0442
     40 C          59.4071   85.5119    7.8342 C.ar    1  UNL1        0.0023
     41 C          59.3290   86.8556    8.2073 C.ar    1  UNL1        0.0113
     42 C          60.3746   87.4477    8.9176 C.ar    1  UNL1        0.0585
     43 CL         60.2749   89.1365    9.3813 Cl      1  UNL1       -0.0822
     44 C          61.5058   86.6974    9.2471 C.ar    1  UNL1        0.0226
     45 C          61.5957   85.3498    8.8770 C.ar    1  UNL1        0.0592
     46 CL         63.0712   84.4778    9.2828 Cl      1  UNL1       -0.0824
@<TRIPOS>BOND
     1    24    25    1
     2    25    22    1
     3    22    23    1
     4    22    13    1
     5    13    14   ar
     6    14    15   ar
     7    15    19    1
     8    19    20    1
     9    19    21    1
    10    15    16   ar
    11    16     7    1
    12     7     8   ar
    13     8     9   ar
    14     9    10   ar
    15    10     1    1
    16     1     2    1
    17     2     3    1
    18     3     4    1
    19     4    26    1
    20    26    27   ar
    21    27    28   ar
    22    28    29   ar
    23    29    32    1
    24    32    33    1
    25    33    34    1
    26    34    35    1
    27    35    36    1
    28    36    37    1
    29    37    39    1
    30    39    40   ar
    31    40    41   ar
    32    41    42   ar
    33    42    43    1
    34    42    44   ar
    35    44    45   ar
    36    45    46    1
    37    37    38    1
    38    29    30   ar
    39    30    31   ar
    40     4     5    1
    41     5     6    1
    42    10    11   ar
    43    11    12   ar
    44    16    17   ar
    45    17    18    2
    46    17    13   ar
    47    12     7   ar
    48     6     1    1
    49    31    26   ar
    50    38    34    1
    51    45    39   ar
@<TRIPOS>MOLECULE
*****
 46 51 0 0 0
SMALL
GASTEIGER

@<TRIPOS>ATOM
      1 N          60.9839   89.1304   10.5930 N.pl3   1  UNL1       -0.3041
      2 C          61.1357   88.1786    9.4800 C.3     1  UNL1        0.1122
      3 C          59.8257   87.4336    9.1991 C.3     1  UNL1        0.1122
      4 N          59.2005   87.0330   10.4678 N.pl3   1  UNL1       -0.3041
      5 C          58.9929   88.0355   11.5259 C.3     1  UNL1        0.1122
      6 C          59.6522   89.3722   11.1667 C.3     1  UNL1        0.1122
      7 C          64.4116   91.0182   12.2711 C.ar    1  UNL1        0.0695
      8 C          63.9532   91.3859   10.9982 C.ar    1  UNL1        0.0190
      9 C          62.8288   90.7661   10.4464 C.ar    1  UNL1        0.0160
     10 C          62.1522   89.7586   11.1547 C.ar    1  UNL1        0.0480
     11 C          62.6173   89.3881   12.4273 C.ar    1  UNL1        0.0160
     12 C          63.7423   90.0082   12.9774 C.ar    1  UNL1        0.0190
     13 N          67.2038   92.2080   14.2347 N.ar    1  UNL1       -0.2028
     14 N          67.3894   92.9261   13.1367 N.ar    1  UNL1       -0.1521
     15 C          66.3965   92.5825   12.2840 C.ar    1  UNL1        0.1470
     16 N          65.5759   91.6489   12.8290 N.ar    1  UNL1       -0.2457
     17 C          66.1183   91.4378   14.0424 C.ar    1  UNL1        0.3519
     18 O          65.6598   90.6296   14.8950 O.2     1  UNL1       -0.2444
     19 C          66.2925   93.1305   10.8817 C.3     1  UNL1        0.0592
     20 C          66.1034   94.6493   10.9214 C.3     1  UNL1        0.0080
     21 C          67.5386   92.7585   10.0719 C.3     1  UNL1        0.0080
     22 C          68.0748   92.2496   15.4139 C.3     1  UNL1        0.1099
     23 C          67.2727   92.7114   16.6333 C.3     1  UNL1        0.0265
     24 C          69.2707   94.3828   16.1101 C.3     1  UNL1        0.0021
     25 C          69.2762   93.1807   15.1665 C.3     1  UNL1        0.0245
     26 C          58.8550   85.6566   10.7151 C.ar    1  UNL1        0.0481
     27 C          59.2924   85.0114   11.8830 C.ar    1  UNL1        0.0176
     28 C          58.9662   83.6724   12.1158 C.ar    1  UNL1        0.0382
     29 C          58.2050   82.9534   11.1879 C.ar    1  UNL1        0.1388
     30 C          57.7724   83.5942   10.0118 C.ar    1  UNL1        0.0382
     31 C          58.0973   84.9337    9.7789 C.ar    1  UNL1        0.0176
     32 O          57.9023   81.6136   11.4701 O.3     1  UNL1       -0.4727
     33 C          58.1636   80.5255   10.5870 C.3     1  UNL1        0.2374
     34 C          59.3291   79.6930   11.1311 C.3     1  UNL1        0.1910
     35 C          59.6898   80.0729   12.5450 C.3     1  UNL1        0.1785
     36 O          60.7990   80.9059   12.4493 O.3     1  UNL1       -0.3244
     37 C          61.3722   80.6180   11.1937 C.3     1  UNL1        0.2610
     38 O          60.4694   79.9252   10.3615 O.3     1  UNL1       -0.3231
     39 C          61.8094   81.8892   10.4974 C.ar    1  UNL1        0.0442
     40 C          61.1020   82.3576    9.3723 C.ar    1  UNL1        0.0023
     41 C          61.5232   83.5024    8.6921 C.ar    1  UNL1        0.0113
     42 C          62.6648   84.1871    9.1121 C.ar    1  UNL1        0.0585
     43 CL         63.1931   85.6224    8.2532 Cl      1  UNL1       -0.0822
     44 C          63.3932   83.7204   10.2088 C.ar    1  UNL1        0.0226
     45 C          62.9811   82.5728   10.8976 C.ar    1  UNL1        0.0592
     46 CL         63.9740   82.0137   12.2407 Cl      1  UNL1       -0.0824
@<TRIPOS>BOND
     1    24    25    1
     2    25    22    1
     3    22    23    1
     4    22    13    1
     5    13    14   ar
     6    14    15   ar
     7    15    19    1
     8    19    20    1
     9    19    21    1
    10    15    16   ar
    11    16     7    1
    12     7     8   ar
    13     8     9   ar
    14     9    10   ar
    15    10     1    1
    16     1     2    1
    17     2     3    1
    18     3     4    1
    19     4    26    1
    20    26    27   ar
    21    27    28   ar
    22    28    29   ar
    23    29    32    1
    24    32    33    1
    25    33    34    1
    26    34    35    1
    27    35    36    1
    28    36    37    1
    29    37    39    1
    30    39    40   ar
    31    40    41   ar
    32    41    42   ar
    33    42    43    1
    34    42    44   ar
    35    44    45   ar
    36    45    46    1
    37    37    38    1
    38    29    30   ar
    39    30    31   ar
    40     4     5    1
    41     5     6    1
    42    10    11   ar
    43    11    12   ar
    44    16    17   ar
    45    17    18    2
    46    17    13   ar
    47    12     7   ar
    48     6     1    1
    49    31    26   ar
    50    38    34    1
    51    45    39   ar
@<TRIPOS>MOLECULE
*****
 46 51 0 0 0
SMALL
GASTEIGER

@<TRIPOS>ATOM
      1 N          62.3688   87.3492   14.7959 N.pl3   1  UNL1       -0.3041
      2 C          60.9132   87.5284   14.9257 C.3     1  UNL1        0.1122
      3 C          60.2007   86.1865   15.1295 C.3     1  UNL1        0.1122
      4 N          60.7691   85.1797   14.2215 N.pl3   1  UNL1       -0.3041
      5 C          62.2266   84.9753   14.1815 C.3     1  UNL1        0.1122
      6 C          62.9615   86.0236   15.0248 C.3     1  UNL1        0.1122
      7 C          64.7649   90.6525   13.5809 C.ar    1  UNL1        0.0695
      8 C          63.5272   90.4124   12.9674 C.ar    1  UNL1        0.0190
      9 C          62.7407   89.3278   13.3651 C.ar    1  UNL1        0.0160
     10 C          63.1862   88.4580   14.3748 C.ar    1  UNL1        0.0480
     11 C          64.4292   88.6977   14.9835 C.ar    1  UNL1        0.0160
     12 C          65.2149   89.7822   14.5843 C.ar    1  UNL1        0.0190
     13 N          66.4492   93.3869   11.9216 N.ar    1  UNL1       -0.2028
     14 N          67.0792   93.4195   13.0868 N.ar    1  UNL1       -0.1521
     15 C          66.5446   92.4284   13.8372 C.ar    1  UNL1        0.1470
     16 N          65.5761   91.7611   13.1598 N.ar    1  UNL1       -0.2457
     17 C          65.5431   92.3945   11.9729 C.ar    1  UNL1        0.3519
     18 O          64.7695   92.0884   11.0252 O.2     1  UNL1       -0.2444
     19 C          66.9443   92.1774   15.2706 C.3     1  UNL1        0.0592
     20 C          68.3135   92.8012   15.5535 C.3     1  UNL1        0.0080
     21 C          65.8840   92.7372   16.2241 C.3     1  UNL1        0.0080
     22 C          66.7012   94.3130   10.8127 C.3     1  UNL1        0.1099
     23 C          65.3759   94.8925   10.3114 C.3     1  UNL1        0.0265
     24 C          67.7040   94.5300    8.4862 C.3     1  UNL1        0.0021
     25 C          67.4512   93.6000    9.6722 C.3     1  UNL1        0.0245
     26 C          59.9228   84.4423   13.3188 C.ar    1  UNL1        0.0481
     27 C          60.1839   83.0907   13.0419 C.ar    1  UNL1        0.0176
     28 C          59.3688   82.3798   12.1566 C.ar    1  UNL1        0.0382
     29 C          58.2853   83.0040   11.5291 C.ar    1  UNL1        0.1388
     30 C          58.0259   84.3611   11.7973 C.ar    1  UNL1        0.0382
     31 C          58.8400   85.0723   12.6835 C.ar    1  UNL1        0.0176
     32 O          57.4964   82.2458   10.6519 O.3     1  UNL1       -0.4727
     33 C          58.0055   81.5109    9.5416 C.3     1  UNL1        0.2374
     34 C          58.1947   82.4524    8.3478 C.3     1  UNL1        0.1910
     35 C          58.8552   81.7657    7.1791 C.3     1  UNL1        0.1785
     36 O          60.1954   82.1334    7.2231 O.3     1  UNL1       -0.3244
     37 C          60.2292   83.3234    7.9788 C.3     1  UNL1        0.2610
     38 O          59.0373   83.5039    8.7098 O.3     1  UNL1       -0.3231
     39 C          61.4005   83.3189    8.9378 C.ar    1  UNL1        0.0442
     40 C          61.7450   82.1390    9.6268 C.ar    1  UNL1        0.0023
     41 C          62.7931   82.1334   10.5499 C.ar    1  UNL1        0.0113
     42 C          63.5018   83.3069   10.8128 C.ar    1  UNL1        0.0585
     43 CL         64.8152   83.2972   11.9755 Cl      1  UNL1       -0.0822
     44 C          63.1554   84.4915   10.1587 C.ar    1  UNL1        0.0226
     45 C          62.1054   84.5092    9.2322 C.ar    1  UNL1        0.0592
     46 CL         61.6916   86.0478    8.4812 Cl      1  UNL1       -0.0824
@<TRIPOS>BOND
     1    24    25    1
     2    25    22    1
     3    22    23    1
     4    22    13    1
     5    13    14   ar
     6    14    15   ar
     7    15    19    1
     8    19    20    1
     9    19    21    1
    10    15    16   ar
    11    16     7    1
    12     7     8   ar
    13     8     9   ar
    14     9    10   ar
    15    10     1    1
    16     1     2    1
    17     2     3    1
    18     3     4    1
    19     4    26    1
    20    26    27   ar
    21    27    28   ar
    22    28    29   ar
    23    29    32    1
    24    32    33    1
    25    33    34    1
    26    34    35    1
    27    35    36    1
    28    36    37    1
    29    37    39    1
    30    39    40   ar
    31    40    41   ar
    32    41    42   ar
    33    42    43    1
    34    42    44   ar
    35    44    45   ar
    36    45    46    1
    37    37    38    1
    38    29    30   ar
    39    30    31   ar
    40     4     5    1
    41     5     6    1
    42    10    11   ar
    43    11    12   ar
    44    16    17   ar
    45    17    18    2
    46    17    13   ar
    47    12     7   ar
    48     6     1    1
    49    31    26   ar
    50    38    34    1
    51    45    39   ar
@<TRIPOS>MOLECULE
*****
 46 51 0 0 0
SMALL
GASTEIGER

@<TRIPOS>ATOM
      1 N          61.0219   88.2762    9.5173 N.pl3   1  UNL1       -0.3041
      2 C          61.5473   87.3463    8.5039 C.3     1  UNL1        0.1122
      3 C          60.4386   86.4513    7.9384 C.3     1  UNL1        0.1122
      4 N          59.5732   85.9828    9.0304 N.pl3   1  UNL1       -0.3041
      5 C          59.0017   86.9564    9.9755 C.3     1  UNL1        0.1122
      6 C          59.5721   88.3606    9.7448 C.3     1  UNL1        0.1122
      7 C          63.7667   90.5145   11.8806 C.ar    1  UNL1        0.0695
      8 C          63.3994   89.2162   12.2618 C.ar    1  UNL1        0.0190
      9 C          62.4979   88.4814   11.4870 C.ar    1  UNL1        0.0160
     10 C          61.9391   89.0391   10.3247 C.ar    1  UNL1        0.0480
     11 C          62.3044   90.3422    9.9485 C.ar    1  UNL1        0.0160
     12 C          63.2054   91.0761   10.7246 C.ar    1  UNL1        0.0190
     13 N          65.8073   92.0477   14.4405 N.ar    1  UNL1       -0.2028
     14 N          66.2548   92.7079   13.3823 N.ar    1  UNL1       -0.1521
     15 C          65.5683   92.2321   12.3177 C.ar    1  UNL1        0.1470
     16 N          64.6839   91.2713   12.6872 N.ar    1  UNL1       -0.2457
     17 C          64.8697   91.1816   14.0171 C.ar    1  UNL1        0.3519
     18 O          64.2365   90.3942   14.7717 O.2     1  UNL1       -0.2444
     19 C          65.8356   92.6806   10.9017 C.3     1  UNL1        0.0592
     20 C          65.5667   94.1814   10.7638 C.3     1  UNL1        0.0080
     21 C          67.2762   92.3470   10.5014 C.3     1  UNL1        0.0080
     22 C          66.3022   92.2338   15.8084 C.3     1  UNL1        0.1099
     23 C          65.1501   92.6612   16.7214 C.3     1  UNL1        0.0265
     24 C          68.8146   92.6178   15.8840 C.3     1  UNL1        0.0021
     25 C          67.4360   93.2755   15.8365 C.3     1  UNL1        0.0245
     26 C          59.3369   84.5759    9.2295 C.ar    1  UNL1        0.0481
     27 C          58.6054   84.1270   10.3409 C.ar    1  UNL1        0.0176
     28 C          58.3870   82.7608   10.5390 C.ar    1  UNL1        0.0382
     29 C          58.8977   81.8202    9.6379 C.ar    1  UNL1        0.1388
     30 C          59.6391   82.2659    8.5276 C.ar    1  UNL1        0.0382
     31 C          59.8568   83.6323    8.3283 C.ar    1  UNL1        0.0176
     32 O          58.6480   80.4617    9.8801 O.3     1  UNL1       -0.4727
     33 C          57.9432   79.9620   11.0139 C.3     1  UNL1        0.2374
     34 C          58.8883   79.1139   11.8713 C.3     1  UNL1        0.1910
     35 C          58.9399   79.5877   13.3019 C.3     1  UNL1        0.1785
     36 O          60.0987   80.3477   13.4146 O.3     1  UNL1       -0.3244
     37 C          60.9236   79.9269   12.3512 C.3     1  UNL1        0.2610
     38 O          60.1891   79.2192   11.3780 O.3     1  UNL1       -0.3231
     39 C          61.6006   81.1109   11.6942 C.ar    1  UNL1        0.0442
     40 C          61.4387   82.4042   12.2299 C.ar    1  UNL1        0.0023
     41 C          62.0185   83.5111   11.6062 C.ar    1  UNL1        0.0113
     42 C          62.7534   83.3482   10.4307 C.ar    1  UNL1        0.0585
     43 CL         63.4771   84.7413    9.6479 Cl      1  UNL1       -0.0822
     44 C          62.9005   82.0768    9.8714 C.ar    1  UNL1        0.0226
     45 C          62.3224   80.9597   10.4873 C.ar    1  UNL1        0.0592
     46 CL         62.5071   79.3944    9.7012 Cl      1  UNL1       -0.0824
@<TRIPOS>BOND
     1    24    25    1
     2    25    22    1
     3    22    23    1
     4    22    13    1
     5    13    14   ar
     6    14    15   ar
     7    15    19    1
     8    19    20    1
     9    19    21    1
    10    15    16   ar
    11    16     7    1
    12     7     8   ar
    13     8     9   ar
    14     9    10   ar
    15    10     1    1
    16     1     2    1
    17     2     3    1
    18     3     4    1
    19     4    26    1
    20    26    27   ar
    21    27    28   ar
    22    28    29   ar
    23    29    32    1
    24    32    33    1
    25    33    34    1
    26    34    35    1
    27    35    36    1
    28    36    37    1
    29    37    39    1
    30    39    40   ar
    31    40    41   ar
    32    41    42   ar
    33    42    43    1
    34    42    44   ar
    35    44    45   ar
    36    45    46    1
    37    37    38    1
    38    29    30   ar
    39    30    31   ar
    40     4     5    1
    41     5     6    1
    42    10    11   ar
    43    11    12   ar
    44    16    17   ar
    45    17    18    2
    46    17    13   ar
    47    12     7   ar
    48     6     1    1
    49    31    26   ar
    50    38    34    1
    51    45    39   ar
@<TRIPOS>MOLECULE
*****
 46 51 0 0 0
SMALL
GASTEIGER

@<TRIPOS>ATOM
      1 N          61.4119   87.5136    9.1674 N.pl3   1  UNL1       -0.3041
      2 C          62.1054   86.4043    8.4918 C.3     1  UNL1        0.1122
      3 C          61.1463   85.6044    7.6029 C.3     1  UNL1        0.1122
      4 N          59.8740   85.3940    8.3086 N.pl3   1  UNL1       -0.3041
      5 C          59.1710   86.5441    8.9008 C.3     1  UNL1        0.1122
      6 C          60.0173   87.8197    8.8181 C.3     1  UNL1        0.1122
      7 C          63.4389   89.6493   12.2431 C.ar    1  UNL1        0.0695
      8 C          63.2046   88.2731   12.3734 C.ar    1  UNL1        0.0190
      9 C          62.5385   87.5717   11.3646 C.ar    1  UNL1        0.0160
     10 C          62.0846   88.2391   10.2145 C.ar    1  UNL1        0.0480
     11 C          62.3156   89.6189   10.0894 C.ar    1  UNL1        0.0160
     12 C          62.9810   90.3191   11.0992 C.ar    1  UNL1        0.0190
     13 N          65.3809   91.8533   14.3499 N.ar    1  UNL1       -0.2028
     14 N          64.8717   91.0579   15.2794 N.ar    1  UNL1       -0.1521
     15 C          64.1005   90.1562   14.6289 C.ar    1  UNL1        0.1470
     16 N          64.1125   90.3689   13.2885 N.ar    1  UNL1       -0.2457
     17 C          64.9165   91.4400   13.1573 C.ar    1  UNL1        0.3519
     18 O          65.2072   91.9798   12.0554 O.2     1  UNL1       -0.2444
     19 C          63.2814   89.1094   15.3437 C.3     1  UNL1        0.0592
     20 C          63.9943   87.7555   15.2921 C.3     1  UNL1        0.0080
     21 C          63.0243   89.5338   16.7931 C.3     1  UNL1        0.0080
     22 C          66.2613   92.9942   14.6216 C.3     1  UNL1        0.1099
     23 C          67.3964   93.0276   13.5949 C.3     1  UNL1        0.0265
     24 C          68.2896   92.4869   16.0687 C.3     1  UNL1        0.0021
     25 C          66.8228   92.9154   16.0534 C.3     1  UNL1        0.0245
     26 C          59.3442   84.0669    8.4899 C.ar    1  UNL1        0.0481
     27 C          58.0820   83.8778    9.0754 C.ar    1  UNL1        0.0176
     28 C          57.5745   82.5889    9.2614 C.ar    1  UNL1        0.0382
     29 C          58.3171   81.4685    8.8732 C.ar    1  UNL1        0.1388
     30 C          59.5865   81.6538    8.2942 C.ar    1  UNL1        0.0382
     31 C          60.0942   82.9427    8.1068 C.ar    1  UNL1        0.0176
     32 O          57.7617   80.1974    9.0786 O.3     1  UNL1       -0.4727
     33 C          57.5385   79.6133   10.3597 C.3     1  UNL1        0.2374
     34 C          58.8838   79.2641   11.0046 C.3     1  UNL1        0.1910
     35 C          58.7446   78.9298   12.4683 C.3     1  UNL1        0.1785
     36 O          59.1162   80.0759   13.1624 O.3     1  UNL1       -0.3244
     37 C          59.9078   80.8159   12.2603 C.3     1  UNL1        0.2610
     38 O          59.7363   80.3663   10.9352 O.3     1  UNL1       -0.3231
     39 C          59.5677   82.2895   12.3295 C.ar    1  UNL1        0.0442
     40 C          58.2650   82.6984   12.6780 C.ar    1  UNL1        0.0023
     41 C          57.9253   84.0529   12.6990 C.ar    1  UNL1        0.0113
     42 C          58.8732   85.0186   12.3564 C.ar    1  UNL1        0.0585
     43 CL         58.4421   86.7188   12.3802 Cl      1  UNL1       -0.0822
     44 C          60.1611   84.6288   11.9819 C.ar    1  UNL1        0.0226
     45 C          60.5126   83.2734   11.9559 C.ar    1  UNL1        0.0592
     46 CL         62.1389   82.8512   11.4274 Cl      1  UNL1       -0.0824
@<TRIPOS>BOND
     1    24    25    1
     2    25    22    1
     3    22    23    1
     4    22    13    1
     5    13    14   ar
     6    14    15   ar
     7    15    19    1
     8    19    20    1
     9    19    21    1
    10    15    16   ar
    11    16     7    1
    12     7     8   ar
    13     8     9   ar
    14     9    10   ar
    15    10     1    1
    16     1     2    1
    17     2     3    1
    18     3     4    1
    19     4    26    1
    20    26    27   ar
    21    27    28   ar
    22    28    29   ar
    23    29    32    1
    24    32    33    1
    25    33    34    1
    26    34    35    1
    27    35    36    1
    28    36    37    1
    29    37    39    1
    30    39    40   ar
    31    40    41   ar
    32    41    42   ar
    33    42    43    1
    34    42    44   ar
    35    44    45   ar
    36    45    46    1
    37    37    38    1
    38    29    30   ar
    39    30    31   ar
    40     4     5    1
    41     5     6    1
    42    10    11   ar
    43    11    12   ar
    44    16    17   ar
    45    17    18    2
    46    17    13   ar
    47    12     7   ar
    48     6     1    1
    49    31    26   ar
    50    38    34    1
    51    45    39   ar
@<TRIPOS>MOLECULE
*****
 46 51 0 0 0
SMALL
GASTEIGER

@<TRIPOS>ATOM
      1 N          60.7898   88.8552   13.5915 N.pl3   1  UNL1       -0.3041
      2 C          59.7560   88.6658   12.5603 C.3     1  UNL1        0.1122
      3 C          58.7406   87.5956   12.9769 C.3     1  UNL1        0.1122
      4 N          59.4428   86.4509   13.5749 N.pl3   1  UNL1       -0.3041
      5 C          60.4107   86.6768   14.6611 C.3     1  UNL1        0.1122
      6 C          60.6585   88.1728   14.8868 C.3     1  UNL1        0.1122
      7 C          64.2091   91.2371   12.7175 C.ar    1  UNL1        0.0695
      8 C          63.2762   90.9427   11.7131 C.ar    1  UNL1        0.0190
      9 C          62.1542   90.1602   11.9991 C.ar    1  UNL1        0.0160
     10 C          61.9542   89.6487   13.2924 C.ar    1  UNL1        0.0480
     11 C          62.8936   89.9404   14.2952 C.ar    1  UNL1        0.0160
     12 C          64.0155   90.7224   14.0075 C.ar    1  UNL1        0.0190
     13 N          66.8035   93.3487   11.3469 N.ar    1  UNL1       -0.2028
     14 N          67.3437   93.0796   12.5266 N.ar    1  UNL1       -0.1521
     15 C          66.4666   92.2775   13.1736 C.ar    1  UNL1        0.1470
     16 N          65.3680   92.0311   12.4158 N.ar    1  UNL1       -0.2457
     17 C          65.6145   92.7229   11.2880 C.ar    1  UNL1        0.3519
     18 O          64.8354   92.7686   10.2975 O.2     1  UNL1       -0.2444
     19 C          66.6804   91.8013   14.5896 C.3     1  UNL1        0.0592
     20 C          68.1777   91.6878   14.8878 C.3     1  UNL1        0.0080
     21 C          65.9993   92.7523   15.5788 C.3     1  UNL1        0.0080
     22 C          67.4124   94.2121   10.3299 C.3     1  UNL1        0.1099
     23 C          66.3417   94.6809    9.3411 C.3     1  UNL1        0.0265
     24 C          68.1750   92.0161    9.2996 C.3     1  UNL1        0.0021
     25 C          68.5444   93.4689    9.5966 C.3     1  UNL1        0.0245
     26 C          59.2486   85.1191   13.0615 C.ar    1  UNL1        0.0481
     27 C          60.0662   84.0628   13.4943 C.ar    1  UNL1        0.0176
     28 C          59.8842   82.7735   12.9864 C.ar    1  UNL1        0.0382
     29 C          58.8901   82.5166   12.0360 C.ar    1  UNL1        0.1388
     30 C          58.0745   83.5746   11.5931 C.ar    1  UNL1        0.0382
     31 C          58.2553   84.8641   12.1016 C.ar    1  UNL1        0.0176
     32 O          58.7463   81.2052   11.5604 O.3     1  UNL1       -0.4727
     33 C          59.7919   80.2366   11.5400 C.3     1  UNL1        0.2374
     34 C          60.4764   80.2507   10.1693 C.3     1  UNL1        0.1910
     35 C          61.8323   79.5919   10.2023 C.3     1  UNL1        0.1785
     36 O          62.7607   80.6243   10.2773 O.3     1  UNL1       -0.3244
     37 C          62.0887   81.7639    9.7896 C.3     1  UNL1        0.2610
     38 O          60.6926   81.5692    9.7677 O.3     1  UNL1       -0.3231
     39 C          62.4045   82.9784   10.6364 C.ar    1  UNL1        0.0442
     40 C          61.9930   84.2590   10.2164 C.ar    1  UNL1        0.0023
     41 C          62.3192   85.3928   10.9639 C.ar    1  UNL1        0.0113
     42 C          63.0747   85.2692   12.1311 C.ar    1  UNL1        0.0585
     43 CL         63.4858   86.6957   13.0655 Cl      1  UNL1       -0.0822
     44 C          63.5140   84.0102   12.5469 C.ar    1  UNL1        0.0226
     45 C          63.1941   82.8665   11.8046 C.ar    1  UNL1        0.0592
     46 CL         63.8218   81.3177   12.3608 Cl      1  UNL1       -0.0824
@<TRIPOS>BOND
     1    24    25    1
     2    25    22    1
     3    22    23    1
     4    22    13    1
     5    13    14   ar
     6    14    15   ar
     7    15    19    1
     8    19    20    1
     9    19    21    1
    10    15    16   ar
    11    16     7    1
    12     7     8   ar
    13     8     9   ar
    14     9    10   ar
    15    10     1    1
    16     1     2    1
    17     2     3    1
    18     3     4    1
    19     4    26    1
    20    26    27   ar
    21    27    28   ar
    22    28    29   ar
    23    29    32    1
    24    32    33    1
    25    33    34    1
    26    34    35    1
    27    35    36    1
    28    36    37    1
    29    37    39    1
    30    39    40   ar
    31    40    41   ar
    32    41    42   ar
    33    42    43    1
    34    42    44   ar
    35    44    45   ar
    36    45    46    1
    37    37    38    1
    38    29    30   ar
    39    30    31   ar
    40     4     5    1
    41     5     6    1
    42    10    11   ar
    43    11    12   ar
    44    16    17   ar
    45    17    18    2
    46    17    13   ar
    47    12     7   ar
    48     6     1    1
    49    31    26   ar
    50    38    34    1
    51    45    39   ar
