@<TRIPOS>MOLECULE
*****
 48 53 0 0 0
SMALL
GASTEIGER

@<TRIPOS>ATOM
      1 O          61.1615   85.0067    7.6207 O.2     1  UNL1       -0.2701
      2 C          60.4994   85.5948    8.5194 C.2     1  UNL1        0.2483
      3 N          59.2929   84.9990    9.0236 N.am    1  UNL1       -0.2945
      4 H          58.9268   85.3425    9.9389 H       1  UNL1        0.1501
      5 C          61.0040   86.8726    9.0716 C.ar    1  UNL1        0.0808
      6 C          62.0255   86.8558   10.0360 C.ar    1  UNL1        0.0080
      7 C          62.5093   88.0482   10.5797 C.ar    1  UNL1        0.0148
      8 C          61.9912   89.2832   10.1603 C.ar    1  UNL1        0.0502
      9 C          60.9783   89.3038    9.1892 C.ar    1  UNL1        0.0443
     10 C          60.4915   88.1122    8.6424 C.ar    1  UNL1        0.1457
     11 F          59.5586   88.1806    7.6601 F       1  UNL1       -0.2040
     12 N          62.4787   90.5119   10.7328 N.pl3   1  UNL1       -0.3040
     13 C          63.3467   91.4095    9.9571 C.3     1  UNL1        0.1122
     14 C          64.6391   91.6803   10.7358 C.3     1  UNL1        0.1122
     15 N          64.3655   91.9235   12.1618 N.pl3   1  UNL1       -0.3040
     16 C          62.9758   92.0382   12.6268 C.3     1  UNL1        0.1122
     17 C          62.1643   90.8344   12.1345 C.3     1  UNL1        0.1122
     18 C          65.4597   91.9707   13.0972 C.ar    1  UNL1        0.0497
     19 C          66.7826   91.8334   12.6499 C.ar    1  UNL1        0.0265
     20 C          67.8499   91.8922   13.5521 C.ar    1  UNL1        0.0659
     21 CL         69.4863   91.7159   12.9312 Cl      1  UNL1       -0.0817
     22 C          67.6038   92.0945   14.9222 C.ar    1  UNL1        0.0557
     23 BR         69.0667   92.1758   16.1681 Br      1  UNL1       -0.0472
     24 C          66.2793   92.2394   15.3733 C.ar    1  UNL1        0.0659
     25 CL         65.9139   92.4947   17.0751 Cl      1  UNL1       -0.0817
     26 C          65.2184   92.1801   14.4632 C.ar    1  UNL1        0.0265
     27 C          58.7618   83.7416    8.4840 C.3     1  UNL1        0.1535
     28 C          59.8402   82.6892    8.4337 C.2     1  UNL1        0.2443
     29 O          60.0161   82.0228    7.3768 O.2     1  UNL1       -0.2730
     30 N          60.7186   82.5164    9.5568 N.am    1  UNL1       -0.2825
     31 H          60.7277   83.2643   10.2869 H       1  UNL1        0.1549
     32 C          61.6710   81.4463    9.6757 C.ar    1  UNL1        0.0535
     33 C          61.3281   80.1188    9.3670 C.ar    1  UNL1        0.0353
     34 C          62.2806   79.1082    9.5204 C.ar    1  UNL1        0.1002
     35 N          63.5249   79.4066    9.9788 N.ar    1  UNL1       -0.2422
     36 C          63.8781   80.6785   10.3025 C.ar    1  UNL1        0.1002
     37 C          62.9557   81.7186   10.1650 C.ar    1  UNL1        0.0353
     38 C          57.5317   83.2630    9.2830 C.3     1  UNL1        0.0569
     39 C          57.8541   82.8451   10.6929 C.ar    1  UNL1       -0.0017
     40 C          57.9180   83.6753   11.8089 C.ar    1  UNL1        0.0681
     41 N          58.1948   82.9550   12.9193 N.ar    1  UNL1       -0.3523
     42 C          58.3066   81.6777   12.5156 C.ar    1  UNL1        0.0563
     43 C          58.5792   80.5628   13.3072 C.ar    1  UNL1        0.0170
     44 C          58.6472   79.3080   12.6748 C.ar    1  UNL1        0.0015
     45 C          58.4455   79.1972   11.2812 C.ar    1  UNL1        0.0001
     46 C          58.1737   80.3397   10.5073 C.ar    1  UNL1        0.0012
     47 C          58.1074   81.5699   11.1626 C.ar    1  UNL1        0.0131
     48 H          58.2951   83.3204   13.8923 H       1  UNL1        0.1660
@<TRIPOS>BOND
     1     1     2    2
     2     2     3   am
     3     3    27    1
     4    27    38    1
     5    38    39    1
     6    39    40   ar
     7    40    41   ar
     8    41    42   ar
     9    42    43   ar
    10    43    44   ar
    11    44    45   ar
    12    45    46   ar
    13    46    47   ar
    14    27    28    1
    15    28    29    2
    16    28    30   am
    17    30    32    1
    18    32    33   ar
    19    33    34   ar
    20    34    35   ar
    21    35    36   ar
    22    36    37   ar
    23     2     5    1
    24     5     6   ar
    25     6     7   ar
    26     7     8   ar
    27     8    12    1
    28    12    13    1
    29    13    14    1
    30    14    15    1
    31    15    18    1
    32    18    19   ar
    33    19    20   ar
    34    20    21    1
    35    20    22   ar
    36    22    23    1
    37    22    24   ar
    38    24    25    1
    39    24    26   ar
    40    15    16    1
    41    16    17    1
    42     8     9   ar
    43     9    10   ar
    44    10    11    1
    45    47    39   ar
    46    37    32   ar
    47    10     5   ar
    48    47    42   ar
    49    17    12    1
    50    26    18   ar
    51     3     4    1
    52    41    48    1
    53    30    31    1
@<TRIPOS>MOLECULE
*****
 48 53 0 0 0
SMALL
GASTEIGER

@<TRIPOS>ATOM
      1 O          58.5208   83.9286   12.3529 O.2     1  UNL1       -0.2701
      2 C          59.6295   84.0202   12.9481 C.2     1  UNL1        0.2483
      3 N          60.3264   82.8288   13.3481 N.am    1  UNL1       -0.2945
      4 H          61.3430   82.9117   13.5702 H       1  UNL1        0.1501
      5 C          60.2158   85.3591   13.1852 C.ar    1  UNL1        0.0808
      6 C          59.5695   86.2549   14.0533 C.ar    1  UNL1        0.0080
      7 C          60.0976   87.5276   14.2832 C.ar    1  UNL1        0.0148
      8 C          61.2905   87.9261   13.6604 C.ar    1  UNL1        0.0502
      9 C          61.9441   87.0294   12.8012 C.ar    1  UNL1        0.0443
     10 C          61.4187   85.7545   12.5687 C.ar    1  UNL1        0.1457
     11 F          62.1161   84.8968   11.7826 F       1  UNL1       -0.2040
     12 N          61.8265   89.2442   13.8848 N.pl3   1  UNL1       -0.3040
     13 C          61.7974   90.2580   12.8208 C.3     1  UNL1        0.1122
     14 C          63.2131   90.7926   12.5763 C.3     1  UNL1        0.1122
     15 N          63.9223   91.0332   13.8438 N.pl3   1  UNL1       -0.3040
     16 C          63.1998   90.9051   15.1175 C.3     1  UNL1        0.1122
     17 C          62.4769   89.5542   15.1688 C.3     1  UNL1        0.1122
     18 C          65.3343   91.3172   13.8251 C.ar    1  UNL1        0.0497
     19 C          66.0078   91.4894   12.6063 C.ar    1  UNL1        0.0265
     20 C          67.3761   91.7790   12.5826 C.ar    1  UNL1        0.0659
     21 CL         68.1647   91.9864   11.0239 Cl      1  UNL1       -0.0817
     22 C          68.0905   91.9043   13.7877 C.ar    1  UNL1        0.0557
     23 BR         69.9721   92.3017   13.7623 Br      1  UNL1       -0.0472
     24 C          67.4172   91.7390   15.0117 C.ar    1  UNL1        0.0659
     25 CL         68.2610   91.8850   16.5485 Cl      1  UNL1       -0.0817
     26 C          66.0483   91.4505   15.0253 C.ar    1  UNL1        0.0265
     27 C          59.7616   81.4902   13.1394 C.3     1  UNL1        0.1535
     28 C          59.0762   81.4073   11.7993 C.2     1  UNL1        0.2443
     29 O          57.9746   80.8006   11.6957 O.2     1  UNL1       -0.2730
     30 N          59.6351   82.0969   10.6703 N.am    1  UNL1       -0.2825
     31 H          60.3765   82.8104   10.8542 H       1  UNL1        0.1549
     32 C          59.1533   81.9570    9.3231 C.ar    1  UNL1        0.0535
     33 C          57.9302   82.5179    8.9175 C.ar    1  UNL1        0.0353
     34 C          57.4913   82.3357    7.6037 C.ar    1  UNL1        0.1002
     35 N          58.2363   81.6089    6.7295 N.ar    1  UNL1       -0.2422
     36 C          59.4137   81.0396    7.0996 C.ar    1  UNL1        0.1002
     37 C          59.8885   81.1962    8.4040 C.ar    1  UNL1        0.0353
     38 C          60.8372   80.3958   13.3009 C.3     1  UNL1        0.0569
     39 C          62.2445   80.9307   13.3118 C.ar    1  UNL1       -0.0017
     40 C          63.1511   80.8554   14.3659 C.ar    1  UNL1        0.0681
     41 N          64.3349   81.4048   14.0119 N.ar    1  UNL1       -0.3523
     42 C          64.1848   81.8266   12.7445 C.ar    1  UNL1        0.0563
     43 C          65.1393   82.4538   11.9448 C.ar    1  UNL1        0.0170
     44 C          64.7690   82.8093   10.6350 C.ar    1  UNL1        0.0015
     45 C          63.4674   82.5351   10.1601 C.ar    1  UNL1        0.0001
     46 C          62.5243   81.9026   10.9901 C.ar    1  UNL1        0.0012
     47 C          62.9217   81.5572   12.2824 C.ar    1  UNL1        0.0131
     48 H          65.1914   81.4792   14.6047 H       1  UNL1        0.1660
@<TRIPOS>BOND
     1     1     2    2
     2     2     3   am
     3     3    27    1
     4    27    38    1
     5    38    39    1
     6    39    40   ar
     7    40    41   ar
     8    41    42   ar
     9    42    43   ar
    10    43    44   ar
    11    44    45   ar
    12    45    46   ar
    13    46    47   ar
    14    27    28    1
    15    28    29    2
    16    28    30   am
    17    30    32    1
    18    32    33   ar
    19    33    34   ar
    20    34    35   ar
    21    35    36   ar
    22    36    37   ar
    23     2     5    1
    24     5     6   ar
    25     6     7   ar
    26     7     8   ar
    27     8    12    1
    28    12    13    1
    29    13    14    1
    30    14    15    1
    31    15    18    1
    32    18    19   ar
    33    19    20   ar
    34    20    21    1
    35    20    22   ar
    36    22    23    1
    37    22    24   ar
    38    24    25    1
    39    24    26   ar
    40    15    16    1
    41    16    17    1
    42     8     9   ar
    43     9    10   ar
    44    10    11    1
    45    47    39   ar
    46    37    32   ar
    47    10     5   ar
    48    47    42   ar
    49    17    12    1
    50    26    18   ar
    51     3     4    1
    52    41    48    1
    53    30    31    1
@<TRIPOS>MOLECULE
*****
 48 53 0 0 0
SMALL
GASTEIGER

@<TRIPOS>ATOM
      1 O          58.5568   83.9485   12.3301 O.2     1  UNL1       -0.2701
      2 C          59.6547   84.0400   12.9450 C.2     1  UNL1        0.2483
      3 N          60.3409   82.8488   13.3634 N.am    1  UNL1       -0.2945
      4 H          61.3536   82.9301   13.6036 H       1  UNL1        0.1501
      5 C          60.2402   85.3785   13.1863 C.ar    1  UNL1        0.0808
      6 C          59.6174   86.2547   14.0907 C.ar    1  UNL1        0.0080
      7 C          60.1450   87.5268   14.3256 C.ar    1  UNL1        0.0148
      8 C          61.3142   87.9440   13.6710 C.ar    1  UNL1        0.0502
      9 C          61.9446   87.0669   12.7751 C.ar    1  UNL1        0.0443
     10 C          61.4196   85.7927   12.5375 C.ar    1  UNL1        0.1457
     11 F          62.0960   84.9536   11.7140 F       1  UNL1       -0.2040
     12 N          61.8491   89.2617   13.9008 N.pl3   1  UNL1       -0.3040
     13 C          61.8020   90.2857   12.8473 C.3     1  UNL1        0.1122
     14 C          63.2126   90.8272   12.5883 C.3     1  UNL1        0.1122
     15 N          63.9386   91.0578   13.8482 N.pl3   1  UNL1       -0.3040
     16 C          63.2343   90.9149   15.1305 C.3     1  UNL1        0.1122
     17 C          62.5164   89.5613   15.1786 C.3     1  UNL1        0.1122
     18 C          65.3493   91.3465   13.8127 C.ar    1  UNL1        0.0497
     19 C          66.0815   91.4575   15.0046 C.ar    1  UNL1        0.0265
     20 C          67.4543   91.7240   14.9757 C.ar    1  UNL1        0.0659
     21 CL         68.3187   91.8494   16.5026 Cl      1  UNL1       -0.0817
     22 C          68.1158   91.8799   13.7442 C.ar    1  UNL1        0.0557
     23 BR         70.0031   92.2471   13.6974 Br      1  UNL1       -0.0472
     24 C          67.3864   91.7626   12.5472 C.ar    1  UNL1        0.0659
     25 CL         68.1627   91.9478   10.9794 Cl      1  UNL1       -0.0817
     26 C          66.0138   91.4948   12.5862 C.ar    1  UNL1        0.0265
     27 C          59.7764   81.5107   13.1510 C.3     1  UNL1        0.1535
     28 C          59.0786   81.4356   11.8167 C.2     1  UNL1        0.2443
     29 O          57.9301   80.9188   11.7388 O.2     1  UNL1       -0.2730
     30 N          59.6861   82.0346   10.6614 N.am    1  UNL1       -0.2825
     31 H          60.4850   82.6906   10.8167 H       1  UNL1        0.1549
     32 C          59.1866   81.8857    9.3217 C.ar    1  UNL1        0.0535
     33 C          57.9361   82.4021    8.9414 C.ar    1  UNL1        0.0353
     34 C          57.4816   82.2123    7.6339 C.ar    1  UNL1        0.1002
     35 N          58.2385   81.5206    6.7416 N.ar    1  UNL1       -0.2422
     36 C          59.4430   80.9943    7.0871 C.ar    1  UNL1        0.1002
     37 C          59.9341   81.1599    8.3844 C.ar    1  UNL1        0.0353
     38 C          60.8552   80.4170   13.2951 C.3     1  UNL1        0.0569
     39 C          62.2615   80.9545   13.3006 C.ar    1  UNL1       -0.0017
     40 C          63.1693   80.8888   14.3543 C.ar    1  UNL1        0.0681
     41 N          64.3518   81.4377   13.9950 N.ar    1  UNL1       -0.3523
     42 C          64.1996   81.8498   12.7246 C.ar    1  UNL1        0.0563
     43 C          65.1521   82.4727   11.9193 C.ar    1  UNL1        0.0170
     44 C          64.7798   82.8178   10.6072 C.ar    1  UNL1        0.0015
     45 C          63.4782   82.5376   10.1357 C.ar    1  UNL1        0.0001
     46 C          62.5372   81.9097   10.9714 C.ar    1  UNL1        0.0012
     47 C          62.9364   81.5746   12.2658 C.ar    1  UNL1        0.0131
     48 H          65.2087   81.5180   14.5863 H       1  UNL1        0.1660
@<TRIPOS>BOND
     1     1     2    2
     2     2     3   am
     3     3    27    1
     4    27    38    1
     5    38    39    1
     6    39    40   ar
     7    40    41   ar
     8    41    42   ar
     9    42    43   ar
    10    43    44   ar
    11    44    45   ar
    12    45    46   ar
    13    46    47   ar
    14    27    28    1
    15    28    29    2
    16    28    30   am
    17    30    32    1
    18    32    33   ar
    19    33    34   ar
    20    34    35   ar
    21    35    36   ar
    22    36    37   ar
    23     2     5    1
    24     5     6   ar
    25     6     7   ar
    26     7     8   ar
    27     8    12    1
    28    12    13    1
    29    13    14    1
    30    14    15    1
    31    15    18    1
    32    18    19   ar
    33    19    20   ar
    34    20    21    1
    35    20    22   ar
    36    22    23    1
    37    22    24   ar
    38    24    25    1
    39    24    26   ar
    40    15    16    1
    41    16    17    1
    42     8     9   ar
    43     9    10   ar
    44    10    11    1
    45    47    39   ar
    46    37    32   ar
    47    10     5   ar
    48    47    42   ar
    49    17    12    1
    50    26    18   ar
    51     3     4    1
    52    41    48    1
    53    30    31    1
@<TRIPOS>MOLECULE
*****
 48 53 0 0 0
SMALL
GASTEIGER

@<TRIPOS>ATOM
      1 O          63.9698   89.9730   15.4964 O.2     1  UNL1       -0.2701
      2 C          64.2323   89.3774   14.4155 C.2     1  UNL1        0.2483
      3 N          64.6847   90.1287   13.2772 N.am    1  UNL1       -0.2945
      4 H          65.1599   89.6069   12.5080 H       1  UNL1        0.1501
      5 C          64.1109   87.9030   14.3532 C.ar    1  UNL1        0.0808
      6 C          64.4759   87.1297   15.4678 C.ar    1  UNL1        0.0080
      7 C          64.3810   85.7365   15.4281 C.ar    1  UNL1        0.0148
      8 C          63.9060   85.0883   14.2776 C.ar    1  UNL1        0.0502
      9 C          63.5303   85.8587   13.1664 C.ar    1  UNL1        0.0443
     10 C          63.6238   87.2536   13.2024 C.ar    1  UNL1        0.1457
     11 F          63.1893   87.9625   12.1307 F       1  UNL1       -0.2040
     12 N          63.8234   83.6508   14.2308 N.pl3   1  UNL1       -0.3040
     13 C          64.5829   82.8870   13.2306 C.3     1  UNL1        0.1122
     14 C          63.6309   81.9877   12.4337 C.3     1  UNL1        0.1122
     15 N          62.6491   81.3325   13.3137 N.pl3   1  UNL1       -0.3040
     16 C          62.7761   81.4659   14.7721 C.3     1  UNL1        0.1122
     17 C          62.9109   82.9463   15.1466 C.3     1  UNL1        0.1122
     18 C          61.5321   80.6316   12.7343 C.ar    1  UNL1        0.0497
     19 C          60.6821   79.8602   13.5413 C.ar    1  UNL1        0.0265
     20 C          59.5878   79.1885   12.9862 C.ar    1  UNL1        0.0659
     21 CL         58.5568   78.2391   14.0491 Cl      1  UNL1       -0.0817
     22 C          59.3277   79.2852   11.6073 C.ar    1  UNL1        0.0557
     23 BR         57.8252   78.3637   10.8375 Br      1  UNL1       -0.0472
     24 C          60.1737   80.0631   10.7963 C.ar    1  UNL1        0.0659
     25 CL         59.8950   80.2192    9.0663 Cl      1  UNL1       -0.0817
     26 C          61.2651   80.7320   11.3607 C.ar    1  UNL1        0.0265
     27 C          64.7993   91.5917   13.3064 C.3     1  UNL1        0.1535
     28 C          66.0334   92.0414   12.5664 C.2     1  UNL1        0.2443
     29 O          67.1309   92.1405   13.1811 O.2     1  UNL1       -0.2730
     30 N          65.9713   92.2651   11.1491 N.am    1  UNL1       -0.2825
     31 H          65.1356   91.9036   10.6357 H       1  UNL1        0.1549
     32 C          67.0389   92.8417   10.3783 C.ar    1  UNL1        0.0535
     33 C          67.0067   94.1851    9.9670 C.ar    1  UNL1        0.0353
     34 C          68.0563   94.6953    9.1989 C.ar    1  UNL1        0.1002
     35 N          69.0933   93.8928    8.8409 N.ar    1  UNL1       -0.2422
     36 C          69.1414   92.5854    9.2089 C.ar    1  UNL1        0.1002
     37 C          68.1119   92.0349    9.9761 C.ar    1  UNL1        0.0353
     38 C          63.5248   92.2656   12.7566 C.3     1  UNL1        0.0569
     39 C          62.9261   91.5496   11.5754 C.ar    1  UNL1       -0.0017
     40 C          63.3172   91.6756   10.2450 C.ar    1  UNL1        0.0681
     41 N          62.5868   90.8543    9.4573 N.ar    1  UNL1       -0.3523
     42 C          61.7378   90.2110   10.2771 C.ar    1  UNL1        0.0563
     43 C          60.7877   89.2531    9.9256 C.ar    1  UNL1        0.0170
     44 C          60.0012   88.6993   10.9523 C.ar    1  UNL1        0.0015
     45 C          60.1785   89.1121   12.2913 C.ar    1  UNL1        0.0001
     46 C          61.1440   90.0820   12.6163 C.ar    1  UNL1        0.0012
     47 C          61.9125   90.6097   11.5779 C.ar    1  UNL1        0.0131
     48 H          62.6722   90.7420    8.4226 H       1  UNL1        0.1660
@<TRIPOS>BOND
     1     1     2    2
     2     2     3   am
     3     3    27    1
     4    27    38    1
     5    38    39    1
     6    39    40   ar
     7    40    41   ar
     8    41    42   ar
     9    42    43   ar
    10    43    44   ar
    11    44    45   ar
    12    45    46   ar
    13    46    47   ar
    14    27    28    1
    15    28    29    2
    16    28    30   am
    17    30    32    1
    18    32    33   ar
    19    33    34   ar
    20    34    35   ar
    21    35    36   ar
    22    36    37   ar
    23     2     5    1
    24     5     6   ar
    25     6     7   ar
    26     7     8   ar
    27     8    12    1
    28    12    13    1
    29    13    14    1
    30    14    15    1
    31    15    18    1
    32    18    19   ar
    33    19    20   ar
    34    20    21    1
    35    20    22   ar
    36    22    23    1
    37    22    24   ar
    38    24    25    1
    39    24    26   ar
    40    15    16    1
    41    16    17    1
    42     8     9   ar
    43     9    10   ar
    44    10    11    1
    45    47    39   ar
    46    37    32   ar
    47    10     5   ar
    48    47    42   ar
    49    17    12    1
    50    26    18   ar
    51     3     4    1
    52    41    48    1
    53    30    31    1
@<TRIPOS>MOLECULE
*****
 48 53 0 0 0
SMALL
GASTEIGER

@<TRIPOS>ATOM
      1 O          60.0123   83.2573   11.5515 O.2     1  UNL1       -0.2701
      2 C          60.9087   83.9278   10.9695 C.2     1  UNL1        0.2483
      3 N          61.5060   83.4262    9.7626 N.am    1  UNL1       -0.2945
      4 H          62.0190   84.1037    9.1561 H       1  UNL1        0.1501
      5 C          61.2992   85.2459   11.5195 C.ar    1  UNL1        0.0808
      6 C          60.3512   86.2811   11.5778 C.ar    1  UNL1        0.0080
      7 C          60.6998   87.5365   12.0818 C.ar    1  UNL1        0.0148
      8 C          62.0001   87.7788   12.5509 C.ar    1  UNL1        0.0502
      9 C          62.9463   86.7434   12.5040 C.ar    1  UNL1        0.0443
     10 C          62.6011   85.4853   12.0003 C.ar    1  UNL1        0.1457
     11 F          63.5273   84.4949   12.0334 F       1  UNL1       -0.2040
     12 N          62.3641   89.0780   13.0556 N.pl3   1  UNL1       -0.3040
     13 C          62.3179   90.2618   12.1854 C.3     1  UNL1        0.1122
     14 C          63.6817   90.9618   12.1908 C.3     1  UNL1        0.1122
     15 N          64.2434   91.0321   13.5499 N.pl3   1  UNL1       -0.3040
     16 C          63.4285   90.6067   14.6969 C.3     1  UNL1        0.1122
     17 C          62.8585   89.2077   14.4363 C.3     1  UNL1        0.1122
     18 C          65.6111   91.4452   13.7329 C.ar    1  UNL1        0.0497
     19 C          66.1204   91.6632   15.0221 C.ar    1  UNL1        0.0265
     20 C          67.4516   92.0511   15.2065 C.ar    1  UNL1        0.0659
     21 CL         68.0332   92.3069   16.8468 Cl      1  UNL1       -0.0817
     22 C          68.2957   92.2228   14.0945 C.ar    1  UNL1        0.0557
     23 BR         70.1270   92.7566   14.3409 Br      1  UNL1       -0.0472
     24 C          67.7905   91.9985   12.8010 C.ar    1  UNL1        0.0659
     25 CL         68.8015   92.1981   11.3752 Cl      1  UNL1       -0.0817
     26 C          66.4579   91.6099   12.6267 C.ar    1  UNL1        0.0265
     27 C          61.1492   82.1167    9.2040 C.3     1  UNL1        0.1535
     28 C          60.8829   81.1246   10.3076 C.2     1  UNL1        0.2443
     29 O          61.8175   80.3873   10.7259 O.2     1  UNL1       -0.2730
     30 N          59.5925   81.0900   10.9370 N.am    1  UNL1       -0.2825
     31 H          58.9454   81.8926   10.7649 H       1  UNL1        0.1549
     32 C          59.1856   80.0867   11.8828 C.ar    1  UNL1        0.0535
     33 C          59.2762   80.3024   13.2685 C.ar    1  UNL1        0.0353
     34 C          58.8910   79.2890   14.1497 C.ar    1  UNL1        0.1002
     35 N          58.4456   78.0984   13.6683 N.ar    1  UNL1       -0.2422
     36 C          58.3651   77.8557   12.3334 C.ar    1  UNL1        0.1002
     37 C          58.7415   78.8414   11.4179 C.ar    1  UNL1        0.0353
     38 C          59.9550   82.2271    8.2331 C.3     1  UNL1        0.0569
     39 C          59.1397   83.4787    8.4204 C.ar    1  UNL1       -0.0017
     40 C          57.8475   83.5566    8.9331 C.ar    1  UNL1        0.0681
     41 N          57.4400   84.8445    8.9954 N.ar    1  UNL1       -0.3523
     42 C          58.4622   85.5809    8.5267 C.ar    1  UNL1        0.0563
     43 C          58.5163   86.9687    8.4039 C.ar    1  UNL1        0.0170
     44 C          59.6956   87.5379    7.8897 C.ar    1  UNL1        0.0015
     45 C          60.7810   86.7167    7.5123 C.ar    1  UNL1        0.0001
     46 C          60.6975   85.3191    7.6459 C.ar    1  UNL1        0.0012
     47 C          59.5175   84.7833    8.1634 C.ar    1  UNL1        0.0131
     48 H          56.5188   85.1923    9.3431 H       1  UNL1        0.1660
@<TRIPOS>BOND
     1     1     2    2
     2     2     3   am
     3     3    27    1
     4    27    38    1
     5    38    39    1
     6    39    40   ar
     7    40    41   ar
     8    41    42   ar
     9    42    43   ar
    10    43    44   ar
    11    44    45   ar
    12    45    46   ar
    13    46    47   ar
    14    27    28    1
    15    28    29    2
    16    28    30   am
    17    30    32    1
    18    32    33   ar
    19    33    34   ar
    20    34    35   ar
    21    35    36   ar
    22    36    37   ar
    23     2     5    1
    24     5     6   ar
    25     6     7   ar
    26     7     8   ar
    27     8    12    1
    28    12    13    1
    29    13    14    1
    30    14    15    1
    31    15    18    1
    32    18    19   ar
    33    19    20   ar
    34    20    21    1
    35    20    22   ar
    36    22    23    1
    37    22    24   ar
    38    24    25    1
    39    24    26   ar
    40    15    16    1
    41    16    17    1
    42     8     9   ar
    43     9    10   ar
    44    10    11    1
    45    47    39   ar
    46    37    32   ar
    47    10     5   ar
    48    47    42   ar
    49    17    12    1
    50    26    18   ar
    51     3     4    1
    52    41    48    1
    53    30    31    1
@<TRIPOS>MOLECULE
*****
 48 53 0 0 0
SMALL
GASTEIGER

@<TRIPOS>ATOM
      1 O          64.3089   90.1463   15.3523 O.2     1  UNL1       -0.2701
      2 C          64.2356   89.5524   14.2415 C.2     1  UNL1        0.2483
      3 N          64.3261   90.3056   13.0212 N.am    1  UNL1       -0.2945
      4 H          64.5490   89.7851   12.1441 H       1  UNL1        0.1501
      5 C          64.1012   88.0780   14.2162 C.ar    1  UNL1        0.0808
      6 C          64.4803   87.3280   15.3419 C.ar    1  UNL1        0.0080
      7 C          64.3735   85.9351   15.3368 C.ar    1  UNL1        0.0148
      8 C          63.8723   85.2641   14.2106 C.ar    1  UNL1        0.0502
      9 C          63.4827   86.0115   13.0886 C.ar    1  UNL1        0.0443
     10 C          63.5880   87.4060   13.0900 C.ar    1  UNL1        0.1457
     11 F          63.1397   88.0933   12.0099 F       1  UNL1       -0.2040
     12 N          63.7774   83.8268   14.1992 N.pl3   1  UNL1       -0.3040
     13 C          64.5497   83.0306   13.2346 C.3     1  UNL1        0.1122
     14 C          63.6057   82.1193   12.4420 C.3     1  UNL1        0.1122
     15 N          62.6004   81.4958   13.3184 N.pl3   1  UNL1       -0.3040
     16 C          62.6992   81.6658   14.7751 C.3     1  UNL1        0.1122
     17 C          62.8402   83.1542   15.1141 C.3     1  UNL1        0.1122
     18 C          61.4888   80.7899   12.7347 C.ar    1  UNL1        0.0497
     19 C          60.6572   79.9902   13.5334 C.ar    1  UNL1        0.0265
     20 C          59.5682   79.3134   12.9743 C.ar    1  UNL1        0.0659
     21 CL         58.5605   78.3279   14.0268 Cl      1  UNL1       -0.0817
     22 C          59.2946   79.4333   11.5998 C.ar    1  UNL1        0.0557
     23 BR         57.7992   78.5049   10.8246 Br      1  UNL1       -0.0472
     24 C          60.1220   80.2395   10.7973 C.ar    1  UNL1        0.0659
     25 CL         59.8261   80.4254    9.0731 Cl      1  UNL1       -0.0817
     26 C          61.2084   80.9133   11.3657 C.ar    1  UNL1        0.0265
     27 C          64.4440   91.7686   13.0169 C.3     1  UNL1        0.1535
     28 C          65.8177   92.1908   13.4724 C.2     1  UNL1        0.2443
     29 O          66.7551   92.2831   12.6327 O.2     1  UNL1       -0.2730
     30 N          66.0274   92.5731   14.8408 N.am    1  UNL1       -0.2825
     31 H          65.1834   92.7564   15.4296 H       1  UNL1        0.1549
     32 C          67.3192   92.8389   15.4128 C.ar    1  UNL1        0.0535
     33 C          67.8455   94.1408   15.4678 C.ar    1  UNL1        0.0353
     34 C          69.1157   94.3475   16.0116 C.ar    1  UNL1        0.1002
     35 N          69.8417   93.2940   16.4705 N.ar    1  UNL1       -0.2422
     36 C          69.3654   92.0224   16.4128 C.ar    1  UNL1        0.1002
     37 C          68.1005   91.7715   15.8756 C.ar    1  UNL1        0.0353
     38 C          64.0940   92.3560   11.6337 C.3     1  UNL1        0.0569
     39 C          63.1850   91.4760   10.8177 C.ar    1  UNL1       -0.0017
     40 C          63.3019   91.1988    9.4582 C.ar    1  UNL1        0.0681
     41 N          62.3351   90.3385    9.0659 N.ar    1  UNL1       -0.3523
     42 C          61.6085   90.0698   10.1644 C.ar    1  UNL1        0.0563
     43 C          60.5038   89.2246   10.2600 C.ar    1  UNL1        0.0170
     44 C          59.8911   89.0828   11.5184 C.ar    1  UNL1        0.0015
     45 C          60.3893   89.7826   12.6397 C.ar    1  UNL1        0.0001
     46 C          61.5047   90.6300   12.5131 C.ar    1  UNL1        0.0012
     47 C          62.0945   90.7470   11.2538 C.ar    1  UNL1        0.0131
     48 H          62.1897   89.9583    8.1043 H       1  UNL1        0.1660
@<TRIPOS>BOND
     1     1     2    2
     2     2     3   am
     3     3    27    1
     4    27    38    1
     5    38    39    1
     6    39    40   ar
     7    40    41   ar
     8    41    42   ar
     9    42    43   ar
    10    43    44   ar
    11    44    45   ar
    12    45    46   ar
    13    46    47   ar
    14    27    28    1
    15    28    29    2
    16    28    30   am
    17    30    32    1
    18    32    33   ar
    19    33    34   ar
    20    34    35   ar
    21    35    36   ar
    22    36    37   ar
    23     2     5    1
    24     5     6   ar
    25     6     7   ar
    26     7     8   ar
    27     8    12    1
    28    12    13    1
    29    13    14    1
    30    14    15    1
    31    15    18    1
    32    18    19   ar
    33    19    20   ar
    34    20    21    1
    35    20    22   ar
    36    22    23    1
    37    22    24   ar
    38    24    25    1
    39    24    26   ar
    40    15    16    1
    41    16    17    1
    42     8     9   ar
    43     9    10   ar
    44    10    11    1
    45    47    39   ar
    46    37    32   ar
    47    10     5   ar
    48    47    42   ar
    49    17    12    1
    50    26    18   ar
    51     3     4    1
    52    41    48    1
    53    30    31    1
@<TRIPOS>MOLECULE
*****
 48 53 0 0 0
SMALL
GASTEIGER

@<TRIPOS>ATOM
      1 O          63.6730   90.1143   15.4808 O.2     1  UNL1       -0.2701
      2 C          63.9545   89.4668   14.4351 C.2     1  UNL1        0.2483
      3 N          64.3830   90.1661   13.2552 N.am    1  UNL1       -0.2945
      4 H          64.8746   89.6167   12.5161 H       1  UNL1        0.1501
      5 C          63.8800   87.9881   14.4570 C.ar    1  UNL1        0.0808
      6 C          63.8987   87.2751   13.2467 C.ar    1  UNL1        0.0080
      7 C          63.8178   85.8805   13.2420 C.ar    1  UNL1        0.0148
      8 C          63.7303   85.1689   14.4485 C.ar    1  UNL1        0.0502
      9 C          63.7224   85.8778   15.6596 C.ar    1  UNL1        0.0443
     10 C          63.8034   87.2738   15.6684 C.ar    1  UNL1        0.1457
     11 F          63.8579   87.9149   16.8625 F       1  UNL1       -0.2040
     12 N          63.6305   83.7318   14.4431 N.pl3   1  UNL1       -0.3040
     13 C          64.4419   82.9261   13.5195 C.3     1  UNL1        0.1122
     14 C          63.5306   82.0123   12.6922 C.3     1  UNL1        0.1122
     15 N          62.4850   81.3986   13.5274 N.pl3   1  UNL1       -0.3040
     16 C          62.5196   81.5788   14.9858 C.3     1  UNL1        0.1122
     17 C          62.6511   83.0692   15.3201 C.3     1  UNL1        0.1122
     18 C          61.3978   80.6923   12.8998 C.ar    1  UNL1        0.0497
     19 C          61.1598   80.8330   11.5241 C.ar    1  UNL1        0.0265
     20 C          60.1141   80.1388   10.9069 C.ar    1  UNL1        0.0659
     21 CL         59.8668   80.3541    9.1786 Cl      1  UNL1       -0.0817
     22 C          59.2908   79.2864   11.6644 C.ar    1  UNL1        0.0557
     23 BR         57.8507   78.3294   10.8221 Br      1  UNL1       -0.0472
     24 C          59.5306   79.1375   13.0425 C.ar    1  UNL1        0.0659
     25 CL         58.5325   78.0847   14.0376 Cl      1  UNL1       -0.0817
     26 C          60.5795   79.8353   13.6508 C.ar    1  UNL1        0.0265
     27 C          64.4510   91.6313   13.2010 C.3     1  UNL1        0.1535
     28 C          65.7369   92.0785   12.5534 C.2     1  UNL1        0.2443
     29 O          66.7804   92.2009   13.2521 O.2     1  UNL1       -0.2730
     30 N          65.7872   92.2730   11.1313 N.am    1  UNL1       -0.2825
     31 H          64.9987   91.8930   10.5600 H       1  UNL1        0.1549
     32 C          66.9086   92.8448   10.4370 C.ar    1  UNL1        0.0535
     33 C          68.0618   92.0920   10.1568 C.ar    1  UNL1        0.0353
     34 C          69.1364   92.6972    9.5003 C.ar    1  UNL1        0.1002
     35 N          69.0708   94.0085    9.1488 N.ar    1  UNL1       -0.2422
     36 C          67.9758   94.7652    9.4237 C.ar    1  UNL1        0.1002
     37 C          66.8798   94.1996   10.0797 C.ar    1  UNL1        0.0353
     38 C          63.2161   92.2247   12.4912 C.3     1  UNL1        0.0569
     39 C          62.6701   91.3467   11.3969 C.ar    1  UNL1       -0.0017
     40 C          63.0344   91.3744   10.0533 C.ar    1  UNL1        0.0681
     41 N          62.3707   90.4194    9.3634 N.ar    1  UNL1       -0.3523
     42 C          61.5904   89.7889   10.2580 C.ar    1  UNL1        0.0563
     43 C          60.7245   88.7224   10.0197 C.ar    1  UNL1        0.0170
     44 C          60.0008   88.2065   11.1103 C.ar    1  UNL1        0.0015
     45 C          60.1554   88.7631   12.3992 C.ar    1  UNL1        0.0001
     46 C          61.0352   89.8401   12.6096 C.ar    1  UNL1        0.0012
     47 C          61.7433   90.3274   11.5103 C.ar    1  UNL1        0.0131
     48 H          62.4546   90.2134    8.3430 H       1  UNL1        0.1660
@<TRIPOS>BOND
     1     1     2    2
     2     2     3   am
     3     3    27    1
     4    27    38    1
     5    38    39    1
     6    39    40   ar
     7    40    41   ar
     8    41    42   ar
     9    42    43   ar
    10    43    44   ar
    11    44    45   ar
    12    45    46   ar
    13    46    47   ar
    14    27    28    1
    15    28    29    2
    16    28    30   am
    17    30    32    1
    18    32    33   ar
    19    33    34   ar
    20    34    35   ar
    21    35    36   ar
    22    36    37   ar
    23     2     5    1
    24     5     6   ar
    25     6     7   ar
    26     7     8   ar
    27     8    12    1
    28    12    13    1
    29    13    14    1
    30    14    15    1
    31    15    18    1
    32    18    19   ar
    33    19    20   ar
    34    20    21    1
    35    20    22   ar
    36    22    23    1
    37    22    24   ar
    38    24    25    1
    39    24    26   ar
    40    15    16    1
    41    16    17    1
    42     8     9   ar
    43     9    10   ar
    44    10    11    1
    45    47    39   ar
    46    37    32   ar
    47    10     5   ar
    48    47    42   ar
    49    17    12    1
    50    26    18   ar
    51     3     4    1
    52    41    48    1
    53    30    31    1
