@<TRIPOS>MOLECULE
*****
 36 40 0 0 0
SMALL
GASTEIGER

@<TRIPOS>ATOM
      1 C         -29.6258   50.5744   -8.7685 C.ar    1  UNL1        0.1317
      2 C         -30.8135   50.3248   -9.4837 C.ar    1  UNL1        0.0286
      3 C         -30.8234   50.3837  -10.8907 C.ar    1  UNL1        0.0777
      4 C         -29.6381   50.6800  -11.5792 C.ar    1  UNL1        0.2967
      5 N         -28.5142   50.9019  -10.8524 N.ar    1  UNL1       -0.1224
      6 C         -27.2639   51.1627  -11.2598 C.ar    1  UNL1        0.3137
      7 C         -26.4793   51.2713  -10.1156 C.ar    1  UNL1        0.1320
      8 N         -27.2442   51.0790   -9.0128 N.ar    1  UNL1       -0.2941
      9 C         -28.4765   50.8618   -9.5112 C.ar    1  UNL1        0.3123
     10 H         -26.9645   51.0945   -8.0690 H       1  UNL1        0.1718
     11 N         -28.4674   49.8695   -4.8945 N.3     1  UNL1       -0.2647
     12 C         -28.9555   51.2529   -5.0718 C.3     1  UNL1        0.0941
     13 C         -29.0629   51.6233   -6.5586 C.3     1  UNL1        0.1084
     14 N         -29.5892   50.4966   -7.3352 N.pl3   1  UNL1       -0.2988
     15 C         -30.2587   49.3939   -6.6426 C.3     1  UNL1        0.1084
     16 C         -29.3852   48.8593   -5.4874 C.3     1  UNL1        0.0941
     17 C         -27.0735   49.7115   -5.3660 C.3     1  UNL1        0.1199
     18 C         -26.1721   46.2899   -4.7935 C.ar    1  UNL1        0.1165
     19 N         -26.6491   47.4617   -4.3200 N.ar    1  UNL1       -0.2344
     20 C         -26.6859   48.2611   -5.4064 C.ar    1  UNL1        0.0878
     21 C         -26.2254   47.5626   -6.5062 C.ar    1  UNL1        0.0499
     22 C         -26.0135   48.0914   -7.8892 C.3     1  UNL1        0.0511
     23 N         -25.9081   46.3184   -6.1151 N.ar    1  UNL1       -0.3443
     24 H         -25.5283   45.5436   -6.7037 H       1  UNL1        0.1668
     25 C         -25.1703   45.3825   -2.7117 C.3     1  UNL1        0.0084
     26 C         -26.0097   45.0685   -3.9442 C.3     1  UNL1        0.0637
     27 C         -25.0223   51.5352  -10.0540 C.ar    1  UNL1        0.0218
     28 C         -24.2984   51.3763   -8.8626 C.ar    1  UNL1        0.0013
     29 C         -22.9287   51.6528   -8.8180 C.ar    1  UNL1       -0.0042
     30 C         -22.2369   52.0985   -9.9682 C.ar    1  UNL1       -0.0228
     31 C         -22.9774   52.2470  -11.1606 C.ar    1  UNL1       -0.0042
     32 C         -24.3447   51.9695  -11.2020 C.ar    1  UNL1        0.0013
     33 C         -20.7294   52.4261   -9.9625 C.3     1  UNL1        0.0189
     34 C         -19.9766   51.4034  -10.8413 C.3     1  UNL1        0.0044
     35 C         -20.5099   53.8468  -10.5268 C.3     1  UNL1        0.0044
     36 C         -20.1035   52.3805   -8.5478 C.3     1  UNL1        0.0044
@<TRIPOS>BOND
     1    25    26    1
     2    26    18    1
     3    18    19   ar
     4    19    20   ar
     5    20    17    1
     6    17    11    1
     7    11    12    1
     8    12    13    1
     9    13    14    1
    10    14     1    1
    11     1     2   ar
    12     2     3   ar
    13     3     4   ar
    14     4     5   ar
    15     5     6   ar
    16     6     7   ar
    17     7    27    1
    18    27    28   ar
    19    28    29   ar
    20    29    30   ar
    21    30    33    1
    22    33    34    1
    23    33    35    1
    24    33    36    1
    25    30    31   ar
    26    31    32   ar
    27     7     8   ar
    28     8     9   ar
    29    14    15    1
    30    15    16    1
    31    20    21   ar
    32    21    22    1
    33    21    23   ar
    34    23    18   ar
    35    16    11    1
    36     9     1   ar
    37     9     5   ar
    38    32    27   ar
    39    23    24    1
    40     8    10    1
@<TRIPOS>MOLECULE
*****
 36 40 0 0 0
SMALL
GASTEIGER

@<TRIPOS>ATOM
      1 C         -29.8123   50.4955   -8.5961 C.ar    1  UNL1        0.1317
      2 C         -31.0197   50.2404   -9.2755 C.ar    1  UNL1        0.0286
      3 C         -31.0703   50.2920  -10.6819 C.ar    1  UNL1        0.0777
      4 C         -29.9057   50.5865  -11.4058 C.ar    1  UNL1        0.2967
      5 N         -28.7617   50.8139  -10.7127 N.ar    1  UNL1       -0.1224
      6 C         -27.5241   51.0744  -11.1574 C.ar    1  UNL1        0.3137
      7 C         -26.7071   51.1902  -10.0368 C.ar    1  UNL1        0.1320
      8 N         -27.4396   51.0024   -8.9114 N.ar    1  UNL1       -0.2941
      9 C         -28.6854   50.7807   -9.3730 C.ar    1  UNL1        0.3123
     10 H         -27.1329   51.0232   -7.9762 H       1  UNL1        0.1718
     11 N         -28.4945   49.9304   -4.7503 N.3     1  UNL1       -0.2647
     12 C         -29.1359   51.2512   -4.9156 C.3     1  UNL1        0.0941
     13 C         -29.3176   51.6045   -6.3993 C.3     1  UNL1        0.1084
     14 N         -29.7345   50.4251   -7.1641 N.pl3   1  UNL1       -0.2988
     15 C         -30.2623   49.2568   -6.4567 C.3     1  UNL1        0.1084
     16 C         -29.3089   48.8241   -5.3223 C.3     1  UNL1        0.0941
     17 C         -27.1029   49.9258   -5.2540 C.3     1  UNL1        0.1199
     18 C         -26.7504   47.3927   -7.7654 C.ar    1  UNL1        0.1165
     19 N         -26.9964   48.6802   -7.4387 N.ar    1  UNL1       -0.2344
     20 C         -26.8459   48.7105   -6.0982 C.ar    1  UNL1        0.0878
     21 C         -26.5219   47.4463   -5.6439 C.ar    1  UNL1        0.0499
     22 C         -26.3556   47.0117   -4.2223 C.3     1  UNL1        0.0511
     23 N         -26.4574   46.6205   -6.7000 N.ar    1  UNL1       -0.3443
     24 H         -26.2391   45.5990   -6.6969 H       1  UNL1        0.1668
     25 C         -28.1334   47.0283   -9.7940 C.3     1  UNL1        0.0084
     26 C         -26.7475   46.8915   -9.1755 C.3     1  UNL1        0.0637
     27 C         -25.2494   51.4565  -10.0185 C.ar    1  UNL1        0.0218
     28 C         -24.5030   51.3683   -8.8337 C.ar    1  UNL1        0.0013
     29 C         -23.1329   51.6462   -8.8314 C.ar    1  UNL1       -0.0042
     30 C         -22.4632   52.0225  -10.0189 C.ar    1  UNL1       -0.0228
     31 C         -23.2262   52.1003  -11.2038 C.ar    1  UNL1       -0.0042
     32 C         -24.5939   51.8215  -11.2028 C.ar    1  UNL1        0.0013
     33 C         -20.9560   52.3492  -10.0612 C.3     1  UNL1        0.0189
     34 C         -20.2226   51.2887  -10.9111 C.3     1  UNL1        0.0044
     35 C         -20.7498   53.7439  -10.6916 C.3     1  UNL1        0.0044
     36 C         -20.2987   52.3649   -8.6601 C.3     1  UNL1        0.0044
@<TRIPOS>BOND
     1    25    26    1
     2    26    18    1
     3    18    19   ar
     4    19    20   ar
     5    20    17    1
     6    17    11    1
     7    11    12    1
     8    12    13    1
     9    13    14    1
    10    14     1    1
    11     1     2   ar
    12     2     3   ar
    13     3     4   ar
    14     4     5   ar
    15     5     6   ar
    16     6     7   ar
    17     7    27    1
    18    27    28   ar
    19    28    29   ar
    20    29    30   ar
    21    30    33    1
    22    33    34    1
    23    33    35    1
    24    33    36    1
    25    30    31   ar
    26    31    32   ar
    27     7     8   ar
    28     8     9   ar
    29    14    15    1
    30    15    16    1
    31    20    21   ar
    32    21    22    1
    33    21    23   ar
    34    23    18   ar
    35    16    11    1
    36     9     1   ar
    37     9     5   ar
    38    32    27   ar
    39    23    24    1
    40     8    10    1
@<TRIPOS>MOLECULE
*****
 36 40 0 0 0
SMALL
GASTEIGER

@<TRIPOS>ATOM
      1 C         -29.3459   48.4900   -8.4287 C.ar    1  UNL1        0.1317
      2 C         -30.7147   48.5736   -8.7507 C.ar    1  UNL1        0.0286
      3 C         -31.1837   49.5858   -9.6103 C.ar    1  UNL1        0.0777
      4 C         -30.2763   50.5050  -10.1565 C.ar    1  UNL1        0.2967
      5 N         -28.9653   50.3814   -9.8298 N.ar    1  UNL1       -0.1224
      6 C         -27.9062   51.0946  -10.2381 C.ar    1  UNL1        0.3137
      7 C         -26.7841   50.5357   -9.6339 C.ar    1  UNL1        0.1320
      8 N         -27.1531   49.4861   -8.8590 N.ar    1  UNL1       -0.2941
      9 C         -28.4908   49.4333   -9.0065 C.ar    1  UNL1        0.3123
     10 H         -26.5780   48.9001   -8.3158 H       1  UNL1        0.1718
     11 N         -28.0278   46.3708   -5.1702 N.3     1  UNL1       -0.2647
     12 C         -29.0439   45.6167   -5.9331 C.3     1  UNL1        0.0941
     13 C         -29.7794   46.5210   -6.9334 C.3     1  UNL1        0.1084
     14 N         -28.8443   47.4518   -7.5730 N.pl3   1  UNL1       -0.2988
     15 C         -27.4053   47.1916   -7.5003 C.3     1  UNL1        0.1084
     16 C         -26.9651   46.9407   -6.0421 C.3     1  UNL1        0.0941
     17 C         -28.6424   47.3895   -4.2900 C.3     1  UNL1        0.1199
     18 C         -27.1909   50.5699   -5.0815 C.ar    1  UNL1        0.1165
     19 N         -28.1290   49.6277   -5.3208 N.ar    1  UNL1       -0.2344
     20 C         -27.8967   48.6901   -4.3787 C.ar    1  UNL1        0.0878
     21 C         -26.8241   49.0787   -3.5990 C.ar    1  UNL1        0.0499
     22 C         -26.1738   48.2971   -2.5020 C.3     1  UNL1        0.0511
     23 N         -26.3865   50.2674   -4.0430 N.ar    1  UNL1       -0.3443
     24 H         -25.5889   50.8309   -3.6724 H       1  UNL1        0.1668
     25 C         -28.3871   52.1039   -6.6231 C.3     1  UNL1        0.0084
     26 C         -27.0953   51.8462   -5.8570 C.3     1  UNL1        0.0637
     27 C         -25.3756   50.9680   -9.7937 C.ar    1  UNL1        0.0218
     28 C         -24.5329   51.1446   -8.6859 C.ar    1  UNL1        0.0013
     29 C         -23.2138   51.5758   -8.8546 C.ar    1  UNL1       -0.0042
     30 C         -22.6936   51.8449  -10.1420 C.ar    1  UNL1       -0.0228
     31 C         -23.5513   51.6561  -11.2468 C.ar    1  UNL1       -0.0042
     32 C         -24.8677   51.2248  -11.0750 C.ar    1  UNL1        0.0013
     33 C         -21.2488   52.3330  -10.3745 C.3     1  UNL1        0.0189
     34 C         -21.2704   53.6157  -11.2343 C.3     1  UNL1        0.0044
     35 C         -20.5841   52.6385   -9.0144 C.3     1  UNL1        0.0044
     36 C         -20.3666   51.2924  -11.1054 C.3     1  UNL1        0.0044
@<TRIPOS>BOND
     1    25    26    1
     2    26    18    1
     3    18    19   ar
     4    19    20   ar
     5    20    17    1
     6    17    11    1
     7    11    12    1
     8    12    13    1
     9    13    14    1
    10    14     1    1
    11     1     2   ar
    12     2     3   ar
    13     3     4   ar
    14     4     5   ar
    15     5     6   ar
    16     6     7   ar
    17     7    27    1
    18    27    28   ar
    19    28    29   ar
    20    29    30   ar
    21    30    33    1
    22    33    34    1
    23    33    35    1
    24    33    36    1
    25    30    31   ar
    26    31    32   ar
    27     7     8   ar
    28     8     9   ar
    29    14    15    1
    30    15    16    1
    31    20    21   ar
    32    21    22    1
    33    21    23   ar
    34    23    18   ar
    35    16    11    1
    36     9     1   ar
    37     9     5   ar
    38    32    27   ar
    39    23    24    1
    40     8    10    1
@<TRIPOS>MOLECULE
*****
 36 40 0 0 0
SMALL
GASTEIGER

@<TRIPOS>ATOM
      1 C         -29.0034   49.0953   -9.2633 C.ar    1  UNL1        0.1317
      2 C         -30.2420   49.0703   -9.9338 C.ar    1  UNL1        0.0286
      3 C         -30.4428   49.8511  -11.0885 C.ar    1  UNL1        0.0777
      4 C         -29.3957   50.6461  -11.5768 C.ar    1  UNL1        0.2967
      5 N         -28.2155   50.6317  -10.9076 N.ar    1  UNL1       -0.1224
      6 C         -27.0638   51.2608  -11.1815 C.ar    1  UNL1        0.3137
      7 C         -26.1515   50.8801  -10.2020 C.ar    1  UNL1        0.1320
      8 N         -26.7406   50.0231   -9.3321 N.ar    1  UNL1       -0.2941
      9 C         -27.9981   49.9053   -9.8000 C.ar    1  UNL1        0.3123
     10 H         -26.3425   49.5887   -8.5434 H       1  UNL1        0.1718
     11 N         -28.3348   47.8492   -5.4101 N.3     1  UNL1       -0.2647
     12 C         -29.4309   47.0877   -6.0442 C.3     1  UNL1        0.0941
     13 C         -29.9095   47.7652   -7.3369 C.3     1  UNL1        0.1084
     14 N         -28.7711   48.2891   -8.0980 N.pl3   1  UNL1       -0.2988
     15 C         -27.4193   47.8201   -7.7874 C.3     1  UNL1        0.1084
     16 C         -27.1284   47.9430   -6.2763 C.3     1  UNL1        0.0941
     17 C         -28.7889   49.1732   -4.9293 C.3     1  UNL1        0.1199
     18 C         -25.9648   50.9325   -3.5960 C.ar    1  UNL1        0.1165
     19 N         -26.8137   49.8831   -3.5399 N.ar    1  UNL1       -0.2344
     20 C         -27.6159   50.0555   -4.6110 C.ar    1  UNL1        0.0878
     21 C         -27.2428   51.2033   -5.2840 C.ar    1  UNL1        0.0499
     22 C         -27.9182   51.8158   -6.4697 C.3     1  UNL1        0.0511
     23 N         -26.1976   51.7492   -4.6429 N.ar    1  UNL1       -0.3443
     24 H         -25.6831   52.6230   -4.8933 H       1  UNL1        0.1668
     25 C         -24.5527   52.6169   -2.4431 C.3     1  UNL1        0.0084
     26 C         -24.8438   51.1322   -2.6250 C.3     1  UNL1        0.0637
     27 C         -24.7347   51.3002  -10.0901 C.ar    1  UNL1        0.0218
     28 C         -24.0606   51.2844   -8.8597 C.ar    1  UNL1        0.0013
     29 C         -22.7309   51.7068   -8.7694 C.ar    1  UNL1       -0.0042
     30 C         -22.0306   52.1599   -9.9115 C.ar    1  UNL1       -0.0228
     31 C         -22.7201   52.1636  -11.1431 C.ar    1  UNL1       -0.0042
     32 C         -24.0475   51.7406  -11.2300 C.ar    1  UNL1        0.0013
     33 C         -20.5673   52.6456   -9.8569 C.3     1  UNL1        0.0189
     34 C         -20.0653   52.6053   -8.3970 C.3     1  UNL1        0.0044
     35 C         -19.6866   51.7230  -10.7276 C.3     1  UNL1        0.0044
     36 C         -20.3882   54.0927  -10.3756 C.3     1  UNL1        0.0044
@<TRIPOS>BOND
     1    25    26    1
     2    26    18    1
     3    18    19   ar
     4    19    20   ar
     5    20    17    1
     6    17    11    1
     7    11    12    1
     8    12    13    1
     9    13    14    1
    10    14     1    1
    11     1     2   ar
    12     2     3   ar
    13     3     4   ar
    14     4     5   ar
    15     5     6   ar
    16     6     7   ar
    17     7    27    1
    18    27    28   ar
    19    28    29   ar
    20    29    30   ar
    21    30    33    1
    22    33    34    1
    23    33    35    1
    24    33    36    1
    25    30    31   ar
    26    31    32   ar
    27     7     8   ar
    28     8     9   ar
    29    14    15    1
    30    15    16    1
    31    20    21   ar
    32    21    22    1
    33    21    23   ar
    34    23    18   ar
    35    16    11    1
    36     9     1   ar
    37     9     5   ar
    38    32    27   ar
    39    23    24    1
    40     8    10    1
@<TRIPOS>MOLECULE
*****
 36 40 0 0 0
SMALL
GASTEIGER

@<TRIPOS>ATOM
      1 C         -28.3153   49.3331   -6.3238 C.ar    1  UNL1        0.1317
      2 C         -29.7195   49.2851   -6.4255 C.ar    1  UNL1        0.0286
      3 C         -30.3812   49.9555   -7.4724 C.ar    1  UNL1        0.0777
      4 C         -29.6318   50.6624   -8.4240 C.ar    1  UNL1        0.2967
      5 N         -28.2812   50.6730   -8.2958 N.ar    1  UNL1       -0.1224
      6 C         -27.3474   51.2323   -9.0782 C.ar    1  UNL1        0.3137
      7 C         -26.1112   50.9183   -8.5214 C.ar    1  UNL1        0.1320
      8 N         -26.2861   50.1714   -7.4035 N.ar    1  UNL1       -0.2941
      9 C         -27.6240   50.0516   -7.3040 C.ar    1  UNL1        0.3123
     10 H         -25.5968   49.8030   -6.8049 H       1  UNL1        0.1718
     11 N         -27.4240   47.2434   -2.9054 N.3     1  UNL1       -0.2647
     12 C         -26.7893   46.6362   -4.0936 C.3     1  UNL1        0.0941
     13 C         -27.3850   47.1949   -5.3945 C.3     1  UNL1        0.1084
     14 N         -27.6203   48.6374   -5.2776 N.pl3   1  UNL1       -0.2988
     15 C         -26.9702   49.3889   -4.2022 C.3     1  UNL1        0.1084
     16 C         -27.2148   48.7150   -2.8350 C.3     1  UNL1        0.0941
     17 C         -28.8515   46.8699   -2.7910 C.3     1  UNL1        0.1199
     18 C         -30.1399   48.0331    0.3451 C.ar    1  UNL1        0.1165
     19 N         -29.3268   47.2011   -0.3414 N.ar    1  UNL1       -0.2344
     20 C         -29.4939   47.5706   -1.6282 C.ar    1  UNL1        0.0878
     21 C         -30.4057   48.6071   -1.6935 C.ar    1  UNL1        0.0499
     22 C         -30.9496   49.2563   -2.9263 C.3     1  UNL1        0.0511
     23 N         -30.8055   48.8984   -0.4457 N.ar    1  UNL1       -0.3443
     24 H         -31.4916   49.6289   -0.1515 H       1  UNL1        0.1668
     25 C         -29.1281   48.8650    2.4534 C.3     1  UNL1        0.0084
     26 C         -30.2441   48.0296    1.8380 C.3     1  UNL1        0.0637
     27 C         -24.7760   51.2984   -9.0401 C.ar    1  UNL1        0.0218
     28 C         -23.6398   51.2880   -8.2170 C.ar    1  UNL1        0.0013
     29 C         -22.3925   51.6725   -8.7180 C.ar    1  UNL1       -0.0042
     30 C         -22.2416   52.0811  -10.0636 C.ar    1  UNL1       -0.0228
     31 C         -23.3924   52.0797  -10.8808 C.ar    1  UNL1       -0.0042
     32 C         -24.6362   51.6946  -10.3777 C.ar    1  UNL1        0.0013
     33 C         -20.8878   52.5241  -10.6559 C.3     1  UNL1        0.0189
     34 C         -20.0411   53.2012   -9.5562 C.3     1  UNL1        0.0044
     35 C         -20.1341   51.2890  -11.1959 C.3     1  UNL1        0.0044
     36 C         -21.0357   53.5312  -11.8218 C.3     1  UNL1        0.0044
@<TRIPOS>BOND
     1    25    26    1
     2    26    18    1
     3    18    19   ar
     4    19    20   ar
     5    20    17    1
     6    17    11    1
     7    11    12    1
     8    12    13    1
     9    13    14    1
    10    14     1    1
    11     1     2   ar
    12     2     3   ar
    13     3     4   ar
    14     4     5   ar
    15     5     6   ar
    16     6     7   ar
    17     7    27    1
    18    27    28   ar
    19    28    29   ar
    20    29    30   ar
    21    30    33    1
    22    33    34    1
    23    33    35    1
    24    33    36    1
    25    30    31   ar
    26    31    32   ar
    27     7     8   ar
    28     8     9   ar
    29    14    15    1
    30    15    16    1
    31    20    21   ar
    32    21    22    1
    33    21    23   ar
    34    23    18   ar
    35    16    11    1
    36     9     1   ar
    37     9     5   ar
    38    32    27   ar
    39    23    24    1
    40     8    10    1
@<TRIPOS>MOLECULE
*****
 36 40 0 0 0
SMALL
GASTEIGER

@<TRIPOS>ATOM
      1 C         -30.0341   48.4764   -8.6785 C.ar    1  UNL1        0.1317
      2 C         -31.2726   48.7065   -8.0479 C.ar    1  UNL1        0.0286
      3 C         -31.4631   49.8499   -7.2481 C.ar    1  UNL1        0.0777
      4 C         -30.4145   50.7681   -7.0928 C.ar    1  UNL1        0.2967
      5 N         -29.2423   50.5143   -7.7272 N.ar    1  UNL1       -0.1224
      6 C         -28.1149   51.2381   -7.7729 C.ar    1  UNL1        0.3137
      7 C         -27.2243   50.5495   -8.5910 C.ar    1  UNL1        0.1320
      8 N         -27.8021   49.4095   -9.0437 N.ar    1  UNL1       -0.2941
      9 C         -29.0288   49.4291   -8.4878 C.ar    1  UNL1        0.3123
     10 H         -27.4157   48.7274   -9.6392 H       1  UNL1        0.1718
     11 N         -29.9232   45.9115  -11.8810 N.3     1  UNL1       -0.2647
     12 C         -28.6191   45.9722  -11.1889 C.3     1  UNL1        0.0941
     13 C         -28.5524   47.1638  -10.2220 C.3     1  UNL1        0.1084
     14 N         -29.8271   47.3290   -9.5166 N.pl3   1  UNL1       -0.2988
     15 C         -30.7939   46.2295   -9.5079 C.3     1  UNL1        0.1084
     16 C         -31.0608   45.7208  -10.9407 C.3     1  UNL1        0.0941
     17 C         -30.1237   47.0678  -12.7826 C.3     1  UNL1        0.1199
     18 C         -30.2727   45.3806  -15.9416 C.ar    1  UNL1        0.1165
     19 N         -30.3289   45.3308  -14.5928 N.ar    1  UNL1       -0.2344
     20 C         -30.2038   46.6197  -14.2138 C.ar    1  UNL1        0.0878
     21 C         -30.0670   47.4165  -15.3346 C.ar    1  UNL1        0.0499
     22 C         -29.8121   48.8900  -15.3705 C.3     1  UNL1        0.0511
     23 N         -30.1169   46.6306  -16.4215 N.ar    1  UNL1       -0.3443
     24 H         -30.0402   46.9219  -17.4216 H       1  UNL1        0.1668
     25 C         -29.7940   44.4160  -18.1779 C.3     1  UNL1        0.0084
     26 C         -30.4267   44.1737  -16.8130 C.3     1  UNL1        0.0637
     27 C         -25.8501   50.9625   -8.9613 C.ar    1  UNL1        0.0218
     28 C         -24.7814   50.8448   -8.0598 C.ar    1  UNL1        0.0013
     29 C         -23.4962   51.2617   -8.4188 C.ar    1  UNL1       -0.0042
     30 C         -23.2381   51.8116   -9.6960 C.ar    1  UNL1       -0.0228
     31 C         -24.3218   51.9173  -10.5940 C.ar    1  UNL1       -0.0042
     32 C         -25.6038   51.4995  -10.2327 C.ar    1  UNL1        0.0013
     33 C         -21.8391   52.2949  -10.1310 C.3     1  UNL1        0.0189
     34 C         -21.9724   53.6168  -10.9182 C.3     1  UNL1        0.0044
     35 C         -20.9642   52.5291   -8.8801 C.3     1  UNL1        0.0044
     36 C         -21.1010   51.2807  -11.0375 C.3     1  UNL1        0.0044
@<TRIPOS>BOND
     1    25    26    1
     2    26    18    1
     3    18    19   ar
     4    19    20   ar
     5    20    17    1
     6    17    11    1
     7    11    12    1
     8    12    13    1
     9    13    14    1
    10    14     1    1
    11     1     2   ar
    12     2     3   ar
    13     3     4   ar
    14     4     5   ar
    15     5     6   ar
    16     6     7   ar
    17     7    27    1
    18    27    28   ar
    19    28    29   ar
    20    29    30   ar
    21    30    33    1
    22    33    34    1
    23    33    35    1
    24    33    36    1
    25    30    31   ar
    26    31    32   ar
    27     7     8   ar
    28     8     9   ar
    29    14    15    1
    30    15    16    1
    31    20    21   ar
    32    21    22    1
    33    21    23   ar
    34    23    18   ar
    35    16    11    1
    36     9     1   ar
    37     9     5   ar
    38    32    27   ar
    39    23    24    1
    40     8    10    1
@<TRIPOS>MOLECULE
*****
 36 40 0 0 0
SMALL
GASTEIGER

@<TRIPOS>ATOM
      1 C         -28.5197   49.0036   -9.1101 C.ar    1  UNL1        0.1317
      2 C         -29.8545   49.1566   -9.5335 C.ar    1  UNL1        0.0286
      3 C         -30.2217   50.2405  -10.3543 C.ar    1  UNL1        0.0777
      4 C         -29.2460   51.1624  -10.7604 C.ar    1  UNL1        0.2967
      5 N         -27.9703   50.9712  -10.3398 N.ar    1  UNL1       -0.1224
      6 C         -26.8609   51.6731  -10.6112 C.ar    1  UNL1        0.3137
      7 C         -25.8089   51.0356   -9.9604 C.ar    1  UNL1        0.1320
      8 N         -26.2707   49.9495   -9.2931 N.ar    1  UNL1       -0.2941
      9 C         -27.5929   49.9535   -9.5501 C.ar    1  UNL1        0.3123
     10 H         -25.7595   49.3082   -8.7485 H       1  UNL1        0.1718
     11 N         -26.9284   46.6967   -6.1114 N.3     1  UNL1       -0.2647
     12 C         -28.3298   46.3249   -6.3965 C.3     1  UNL1        0.0941
     13 C         -29.0280   47.3885   -7.2571 C.3     1  UNL1        0.1084
     14 N         -28.1205   47.8929   -8.2924 N.pl3   1  UNL1       -0.2988
     15 C         -26.9103   47.1371   -8.6207 C.3     1  UNL1        0.1084
     16 C         -26.1045   46.8086   -7.3455 C.3     1  UNL1        0.0941
     17 C         -26.8401   47.9054   -5.2620 C.3     1  UNL1        0.1199
     18 C         -28.5366   47.7590   -2.1079 C.ar    1  UNL1        0.1165
     19 N         -28.4738   48.2256   -3.3741 N.ar    1  UNL1       -0.2344
     20 C         -27.3767   47.6303   -3.8865 C.ar    1  UNL1        0.0878
     21 C         -26.7976   46.8272   -2.9225 C.ar    1  UNL1        0.0499
     22 C         -25.5190   46.0591   -3.0347 C.3     1  UNL1        0.0511
     23 N         -27.5363   46.9077   -1.8047 N.ar    1  UNL1       -0.3443
     24 H         -27.3673   46.4250   -0.8940 H       1  UNL1        0.1668
     25 C         -30.1223   46.8680   -0.4190 C.3     1  UNL1        0.0084
     26 C         -29.6399   48.1094   -1.1595 C.3     1  UNL1        0.0637
     27 C         -24.3800   51.4283   -9.9766 C.ar    1  UNL1        0.0218
     28 C         -23.6190   51.4738   -8.7988 C.ar    1  UNL1        0.0013
     29 C         -22.2784   51.8695   -8.8305 C.ar    1  UNL1       -0.0042
     30 C         -21.6541   52.2335  -10.0463 C.ar    1  UNL1       -0.0228
     31 C         -22.4308   52.1761  -11.2234 C.ar    1  UNL1       -0.0042
     32 C         -23.7688   51.7800  -11.1884 C.ar    1  UNL1        0.0013
     33 C         -20.1818   52.6869  -10.1270 C.3     1  UNL1        0.0189
     34 C         -19.4606   52.3329   -8.8082 C.3     1  UNL1        0.0044
     35 C         -19.4855   51.9658  -11.3018 C.3     1  UNL1        0.0044
     36 C         -20.0272   54.2102  -10.3527 C.3     1  UNL1        0.0044
@<TRIPOS>BOND
     1    25    26    1
     2    26    18    1
     3    18    19   ar
     4    19    20   ar
     5    20    17    1
     6    17    11    1
     7    11    12    1
     8    12    13    1
     9    13    14    1
    10    14     1    1
    11     1     2   ar
    12     2     3   ar
    13     3     4   ar
    14     4     5   ar
    15     5     6   ar
    16     6     7   ar
    17     7    27    1
    18    27    28   ar
    19    28    29   ar
    20    29    30   ar
    21    30    33    1
    22    33    34    1
    23    33    35    1
    24    33    36    1
    25    30    31   ar
    26    31    32   ar
    27     7     8   ar
    28     8     9   ar
    29    14    15    1
    30    15    16    1
    31    20    21   ar
    32    21    22    1
    33    21    23   ar
    34    23    18   ar
    35    16    11    1
    36     9     1   ar
    37     9     5   ar
    38    32    27   ar
    39    23    24    1
    40     8    10    1
@<TRIPOS>MOLECULE
*****
 36 40 0 0 0
SMALL
GASTEIGER

@<TRIPOS>ATOM
      1 C         -26.7057   48.8355   -3.5016 C.ar    1  UNL1        0.1317
      2 C         -25.9273   49.2816   -2.4156 C.ar    1  UNL1        0.0286
      3 C         -25.3560   50.5687   -2.4299 C.ar    1  UNL1        0.0777
      4 C         -25.5776   51.4118   -3.5284 C.ar    1  UNL1        0.2967
      5 N         -26.3431   50.9472   -4.5477 N.ar    1  UNL1       -0.1224
      6 C         -26.7326   51.5552   -5.6772 C.ar    1  UNL1        0.3137
      7 C         -27.5371   50.6528   -6.3663 C.ar    1  UNL1        0.1320
      8 N         -27.6397   49.4977   -5.6638 N.ar    1  UNL1       -0.2941
      9 C         -26.8925   49.7226   -4.5660 C.ar    1  UNL1        0.3123
     10 H         -28.1425   48.6851   -5.9006 H       1  UNL1        0.1718
     11 N         -29.3197   45.7137   -4.0199 N.3     1  UNL1       -0.2647
     12 C         -27.9601   45.3655   -4.4822 C.3     1  UNL1        0.0941
     13 C         -27.0747   46.6140   -4.6107 C.3     1  UNL1        0.1084
     14 N         -27.3160   47.5357   -3.4962 N.pl3   1  UNL1       -0.2988
     15 C         -28.0040   47.0527   -2.2975 C.3     1  UNL1        0.1084
     16 C         -29.3214   46.3393   -2.6697 C.3     1  UNL1        0.0941
     17 C         -30.0514   46.5244   -5.0187 C.3     1  UNL1        0.1199
     18 C         -28.4600   46.7049   -8.2255 C.ar    1  UNL1        0.1165
     19 N         -28.6734   47.2354   -7.0015 N.ar    1  UNL1       -0.2344
     20 C         -29.4689   46.3335   -6.3898 C.ar    1  UNL1        0.0878
     21 C         -29.7252   45.2864   -7.2544 C.ar    1  UNL1        0.0499
     22 C         -30.6312   44.1200   -7.0179 C.3     1  UNL1        0.0511
     23 N         -29.0819   45.5231   -8.4084 N.ar    1  UNL1       -0.3443
     24 H         -29.0737   44.9272   -9.2663 H       1  UNL1        0.1668
     25 C         -26.2677   47.8009   -8.6165 C.3     1  UNL1        0.0084
     26 C         -27.5745   47.3406   -9.2508 C.3     1  UNL1        0.0637
     27 C         -28.2194   50.8747   -7.6630 C.ar    1  UNL1        0.0218
     28 C         -29.5272   50.4201   -7.8904 C.ar    1  UNL1        0.0013
     29 C         -30.1460   50.6179   -9.1283 C.ar    1  UNL1       -0.0042
     30 C         -29.4737   51.2794  -10.1822 C.ar    1  UNL1       -0.0228
     31 C         -28.1613   51.7366   -9.9361 C.ar    1  UNL1       -0.0042
     32 C         -27.5465   51.5382   -8.6987 C.ar    1  UNL1        0.0013
     33 C         -30.1128   51.5096  -11.5673 C.3     1  UNL1        0.0189
     34 C         -31.5142   50.8618  -11.6022 C.3     1  UNL1        0.0044
     35 C         -30.2424   53.0263  -11.8280 C.3     1  UNL1        0.0044
     36 C         -29.2857   50.9026  -12.7261 C.3     1  UNL1        0.0044
@<TRIPOS>BOND
     1    25    26    1
     2    26    18    1
     3    18    19   ar
     4    19    20   ar
     5    20    17    1
     6    17    11    1
     7    11    12    1
     8    12    13    1
     9    13    14    1
    10    14     1    1
    11     1     2   ar
    12     2     3   ar
    13     3     4   ar
    14     4     5   ar
    15     5     6   ar
    16     6     7   ar
    17     7    27    1
    18    27    28   ar
    19    28    29   ar
    20    29    30   ar
    21    30    33    1
    22    33    34    1
    23    33    35    1
    24    33    36    1
    25    30    31   ar
    26    31    32   ar
    27     7     8   ar
    28     8     9   ar
    29    14    15    1
    30    15    16    1
    31    20    21   ar
    32    21    22    1
    33    21    23   ar
    34    23    18   ar
    35    16    11    1
    36     9     1   ar
    37     9     5   ar
    38    32    27   ar
    39    23    24    1
    40     8    10    1
@<TRIPOS>MOLECULE
*****
 36 40 0 0 0
SMALL
GASTEIGER

@<TRIPOS>ATOM
      1 C         -27.9327   49.6799   -6.6251 C.ar    1  UNL1        0.1317
      2 C         -29.3375   49.7170   -6.7229 C.ar    1  UNL1        0.0286
      3 C         -29.9615   50.4776   -7.7305 C.ar    1  UNL1        0.0777
      4 C         -29.1746   51.1896   -8.6474 C.ar    1  UNL1        0.2967
      5 N         -27.8253   51.1170   -8.5247 N.ar    1  UNL1       -0.1224
      6 C         -26.8623   51.6625   -9.2810 C.ar    1  UNL1        0.3137
      7 C         -25.6452   51.2503   -8.7468 C.ar    1  UNL1        0.1320
      8 N         -25.8607   50.4571   -7.6685 N.ar    1  UNL1       -0.2941
      9 C         -27.2031   50.4083   -7.5695 C.ar    1  UNL1        0.3123
     10 H         -25.1926   50.0194   -7.0929 H       1  UNL1        0.1718
     11 N         -27.1740   47.2204   -3.4279 N.3     1  UNL1       -0.2647
     12 C         -26.4193   46.8004   -4.6268 C.3     1  UNL1        0.0941
     13 C         -26.9495   47.4894   -5.8930 C.3     1  UNL1        0.1084
     14 N         -27.2768   48.8922   -5.6195 N.pl3   1  UNL1       -0.2988
     15 C         -26.7527   49.5324   -4.4116 C.3     1  UNL1        0.1084
     16 C         -27.0571   48.6797   -3.1612 C.3     1  UNL1        0.0941
     17 C         -28.5817   46.7660   -3.4749 C.3     1  UNL1        0.1199
     18 C         -30.2369   48.3546   -0.7208 C.ar    1  UNL1        0.1165
     19 N         -29.2030   47.6233   -1.1913 N.ar    1  UNL1       -0.2344
     20 C         -29.4290   47.5570   -2.5199 C.ar    1  UNL1        0.0878
     21 C         -30.5925   48.2385   -2.8222 C.ar    1  UNL1        0.0499
     22 C         -31.2599   48.3397   -4.1570 C.3     1  UNL1        0.0511
     23 N         -31.0947   48.7442   -1.6849 N.ar    1  UNL1       -0.3443
     24 H         -31.9666   49.3076   -1.5693 H       1  UNL1        0.1668
     25 C         -30.3049   47.5073    1.6112 C.3     1  UNL1        0.0084
     26 C         -30.3800   48.7398    0.7182 C.3     1  UNL1        0.0637
     27 C         -24.2913   51.5806   -9.2509 C.ar    1  UNL1        0.0218
     28 C         -23.1826   51.6340   -8.3927 C.ar    1  UNL1        0.0013
     29 C         -21.9171   51.9705   -8.8825 C.ar    1  UNL1       -0.0042
     30 C         -21.7197   52.2654  -10.2516 C.ar    1  UNL1       -0.0228
     31 C         -22.8434   52.2009  -11.1033 C.ar    1  UNL1       -0.0042
     32 C         -24.1054   51.8639  -10.6113 C.ar    1  UNL1        0.0013
     33 C         -20.3444   52.6523  -10.8336 C.3     1  UNL1        0.0189
     34 C         -19.7501   51.4478  -11.5956 C.3     1  UNL1        0.0044
     35 C         -20.5134   53.8409  -11.8051 C.3     1  UNL1        0.0044
     36 C         -19.3230   53.0729   -9.7496 C.3     1  UNL1        0.0044
@<TRIPOS>BOND
     1    25    26    1
     2    26    18    1
     3    18    19   ar
     4    19    20   ar
     5    20    17    1
     6    17    11    1
     7    11    12    1
     8    12    13    1
     9    13    14    1
    10    14     1    1
    11     1     2   ar
    12     2     3   ar
    13     3     4   ar
    14     4     5   ar
    15     5     6   ar
    16     6     7   ar
    17     7    27    1
    18    27    28   ar
    19    28    29   ar
    20    29    30   ar
    21    30    33    1
    22    33    34    1
    23    33    35    1
    24    33    36    1
    25    30    31   ar
    26    31    32   ar
    27     7     8   ar
    28     8     9   ar
    29    14    15    1
    30    15    16    1
    31    20    21   ar
    32    21    22    1
    33    21    23   ar
    34    23    18   ar
    35    16    11    1
    36     9     1   ar
    37     9     5   ar
    38    32    27   ar
    39    23    24    1
    40     8    10    1
