@<TRIPOS>MOLECULE
*****
 36 39 0 0 0
SMALL
GASTEIGER

@<TRIPOS>ATOM
      1 N         -28.1416   49.6474   -4.8959 N.am    1  UNL1       -0.2685
      2 C         -29.1056   50.2844   -5.7463 C.2     1  UNL1        0.2672
      3 O         -29.6681   51.3443   -5.3603 O.2     1  UNL1       -0.2682
      4 C         -29.4534   49.6763   -7.0443 C.ar    1  UNL1        0.1352
      5 C         -29.7641   48.3149   -7.1533 C.ar    1  UNL1        0.0238
      6 C         -30.0513   47.7703   -8.4114 C.ar    1  UNL1        0.0036
      7 C         -30.3617   46.4072   -8.5386 C.ar    1  UNL1        0.0001
      8 C         -30.6444   45.8652   -9.7941 C.ar    1  UNL1        0.0000
      9 C         -30.6194   46.6760  -10.9299 C.ar    1  UNL1        0.0001
     10 C         -30.3118   48.0349  -10.8195 C.ar    1  UNL1        0.0020
     11 C         -30.0242   48.5988   -9.5610 C.ar    1  UNL1        0.0233
     12 C         -29.7075   49.9644   -9.4002 C.ar    1  UNL1        0.1031
     13 S         -29.6348   51.1073  -10.7821 S.3     1  UNL1       -0.1228
     14 N         -29.4368   50.4505   -8.1616 N.ar    1  UNL1       -0.2348
     15 H         -30.9947   51.4417  -10.6439 H       1  UNL1        0.1086
     16 C         -26.3272   51.2263   -4.2559 C.3     1  UNL1        0.0265
     17 C         -26.7176   49.9827   -5.0697 C.3     1  UNL1        0.1007
     18 C         -26.3654   50.0681   -6.5480 C.ar    1  UNL1        0.0234
     19 C         -26.2780   51.3034   -7.2247 C.ar    1  UNL1        0.0019
     20 C         -25.9958   51.3463   -8.5928 C.ar    1  UNL1        0.0295
     21 C         -25.8100   50.1630   -9.3087 C.ar    1  UNL1        0.1424
     22 F         -25.5386   50.2085  -10.6362 F       1  UNL1       -0.2041
     23 C         -25.9119   48.9322   -8.6583 C.ar    1  UNL1        0.0590
     24 C         -26.1940   48.8798   -7.2896 C.ar    1  UNL1        0.1399
     25 F         -26.3032   47.6665   -6.6907 F       1  UNL1       -0.2044
     26 C         -28.6302   48.8275   -3.7773 C.3     1  UNL1        0.1207
     27 C         -28.0818   47.4269   -3.8766 C.ar    1  UNL1       -0.0021
     28 C         -28.5953   46.5348   -4.8304 C.ar    1  UNL1       -0.0026
     29 C         -28.0257   45.2707   -4.9897 C.ar    1  UNL1       -0.0001
     30 C         -26.9348   44.8874   -4.2066 C.ar    1  UNL1        0.0064
     31 C         -26.4016   45.7690   -3.2497 C.ar    1  UNL1        0.0752
     32 C         -26.9840   47.0388   -3.0911 C.ar    1  UNL1        0.0038
     33 C         -25.2338   45.3760   -2.4307 C.2     1  UNL1        0.3380
     34 O         -24.0680   45.7029   -2.7824 O.2     1  UNL1       -0.2451
     35 O         -25.4122   44.6447   -1.2591 O.3     1  UNL1       -0.4771
     36 H         -24.6199   44.3744   -0.6887 H       1  UNL1        0.2954
@<TRIPOS>BOND
     1    16    17    1
     2    17    18    1
     3    18    19   ar
     4    19    20   ar
     5    20    21   ar
     6    21    22    1
     7    21    23   ar
     8    23    24   ar
     9    24    25    1
    10    17     1    1
    11     1    26    1
    12    26    27    1
    13    27    28   ar
    14    28    29   ar
    15    29    30   ar
    16    30    31   ar
    17    31    33    1
    18    33    34    2
    19    33    35    1
    20    31    32   ar
    21     1     2   am
    22     2     3    2
    23     2     4    1
    24     4     5   ar
    25     5     6   ar
    26     6     7   ar
    27     7     8   ar
    28     8     9   ar
    29     9    10   ar
    30    10    11   ar
    31    11    12   ar
    32    12    13    1
    33    12    14   ar
    34    24    18   ar
    35    32    27   ar
    36    14     4   ar
    37    11     6   ar
    38    35    36    1
    39    13    15    1
@<TRIPOS>MOLECULE
*****
 36 39 0 0 0
SMALL
GASTEIGER

@<TRIPOS>ATOM
      1 N         -29.1633   50.2174   -8.4517 N.am    1  UNL1       -0.2685
      2 C         -30.0126   49.5245   -7.5261 C.2     1  UNL1        0.2672
      3 O         -31.1772   49.9561   -7.3111 O.2     1  UNL1       -0.2682
      4 C         -29.5047   48.3383   -6.8116 C.ar    1  UNL1        0.1352
      5 C         -28.3017   48.3767   -6.0953 C.ar    1  UNL1        0.0238
      6 C         -27.8366   47.2165   -5.4631 C.ar    1  UNL1        0.0036
      7 C         -26.6313   47.2369   -4.7437 C.ar    1  UNL1        0.0001
      8 C         -26.1675   46.0785   -4.1170 C.ar    1  UNL1        0.0000
      9 C         -26.8997   44.8933   -4.2027 C.ar    1  UNL1        0.0001
     10 C         -28.1014   44.8570   -4.9155 C.ar    1  UNL1        0.0020
     11 C         -28.5846   46.0162   -5.5540 C.ar    1  UNL1        0.0233
     12 C         -29.7913   46.0278   -6.2853 C.ar    1  UNL1        0.1031
     13 S         -30.8181   44.5682   -6.4762 S.3     1  UNL1       -0.1228
     14 N         -30.2052   47.1754   -6.8814 N.ar    1  UNL1       -0.2348
     15 H         -31.5570   44.8732   -5.3181 H       1  UNL1        0.1086
     16 C         -30.3469   50.3332  -10.6381 C.3     1  UNL1        0.0265
     17 C         -29.1457   49.7772   -9.8576 C.3     1  UNL1        0.1007
     18 C         -28.9918   48.2653   -9.9423 C.ar    1  UNL1        0.0234
     19 C         -30.0681   47.4238  -10.2956 C.ar    1  UNL1        0.0019
     20 C         -29.9065   46.0359  -10.3217 C.ar    1  UNL1        0.0295
     21 C         -28.6785   45.4656   -9.9845 C.ar    1  UNL1        0.1424
     22 F         -28.5262   44.1186  -10.0088 F       1  UNL1       -0.2041
     23 C         -27.6093   46.2828   -9.6143 C.ar    1  UNL1        0.0590
     24 C         -27.7619   47.6726   -9.5853 C.ar    1  UNL1        0.1399
     25 F         -26.7075   48.4382   -9.2044 F       1  UNL1       -0.2044
     26 C         -28.4864   51.4412   -7.9976 C.3     1  UNL1        0.1207
     27 C         -26.9915   51.2860   -8.1136 C.ar    1  UNL1       -0.0021
     28 C         -26.2432   50.8280   -7.0183 C.ar    1  UNL1       -0.0026
     29 C         -24.8742   50.5918   -7.1510 C.ar    1  UNL1       -0.0001
     30 C         -24.2403   50.8017   -8.3776 C.ar    1  UNL1        0.0064
     31 C         -24.9734   51.2544   -9.4888 C.ar    1  UNL1        0.0752
     32 C         -26.3513   51.4954   -9.3460 C.ar    1  UNL1        0.0038
     33 C         -24.3113   51.4599  -10.7958 C.2     1  UNL1        0.3380
     34 O         -23.4161   52.3379  -10.9272 O.2     1  UNL1       -0.2451
     35 O         -24.6679   50.6807  -11.8935 O.3     1  UNL1       -0.4771
     36 H         -24.2177   50.8102  -12.7917 H       1  UNL1        0.2954
@<TRIPOS>BOND
     1    16    17    1
     2    17    18    1
     3    18    19   ar
     4    19    20   ar
     5    20    21   ar
     6    21    22    1
     7    21    23   ar
     8    23    24   ar
     9    24    25    1
    10    17     1    1
    11     1    26    1
    12    26    27    1
    13    27    28   ar
    14    28    29   ar
    15    29    30   ar
    16    30    31   ar
    17    31    33    1
    18    33    34    2
    19    33    35    1
    20    31    32   ar
    21     1     2   am
    22     2     3    2
    23     2     4    1
    24     4     5   ar
    25     5     6   ar
    26     6     7   ar
    27     7     8   ar
    28     8     9   ar
    29     9    10   ar
    30    10    11   ar
    31    11    12   ar
    32    12    13    1
    33    12    14   ar
    34    24    18   ar
    35    32    27   ar
    36    14     4   ar
    37    11     6   ar
    38    35    36    1
    39    13    15    1
@<TRIPOS>MOLECULE
*****
 36 39 0 0 0
SMALL
GASTEIGER

@<TRIPOS>ATOM
      1 N         -29.5435   46.1964   -6.3883 N.am    1  UNL1       -0.2685
      2 C         -28.3859   46.8376   -6.9421 C.2     1  UNL1        0.2672
      3 O         -27.9196   46.4332   -8.0411 O.2     1  UNL1       -0.2682
      4 C         -27.7343   47.9373   -6.2061 C.ar    1  UNL1        0.1352
      5 C         -27.2235   47.7504   -4.9153 C.ar    1  UNL1        0.0238
      6 C         -26.6468   48.8318   -4.2372 C.ar    1  UNL1        0.0036
      7 C         -26.1329   48.6624   -2.9418 C.ar    1  UNL1        0.0001
      8 C         -25.5614   49.7424   -2.2659 C.ar    1  UNL1        0.0000
      9 C         -25.4983   50.9969   -2.8745 C.ar    1  UNL1        0.0001
     10 C         -26.0058   51.1814   -4.1636 C.ar    1  UNL1        0.0020
     11 C         -26.5858   50.1031   -4.8605 C.ar    1  UNL1        0.0233
     12 C         -27.1120   50.2413   -6.1624 C.ar    1  UNL1        0.1031
     13 S         -27.0981   51.8022   -7.0482 S.3     1  UNL1       -0.1228
     14 N         -27.6612   49.1659   -6.7833 N.ar    1  UNL1       -0.2348
     15 H         -25.8434   51.5247   -7.6218 H       1  UNL1        0.1086
     16 C         -31.3527   46.3428   -8.0913 C.3     1  UNL1        0.0265
     17 C         -30.8722   46.7561   -6.6914 C.3     1  UNL1        0.1007
     18 C         -30.8886   48.2579   -6.4440 C.ar    1  UNL1        0.0234
     19 C         -30.9077   49.1892   -7.5040 C.ar    1  UNL1        0.0019
     20 C         -30.8778   50.5622   -7.2448 C.ar    1  UNL1        0.0295
     21 C         -30.8150   51.0273   -5.9308 C.ar    1  UNL1        0.1424
     22 F         -30.7838   52.3599   -5.6833 F       1  UNL1       -0.2041
     23 C         -30.7761   50.1191   -4.8716 C.ar    1  UNL1        0.0590
     24 C         -30.8056   48.7435   -5.1216 C.ar    1  UNL1        0.1399
     25 F         -30.7492   47.8867   -4.0702 F       1  UNL1       -0.2044
     26 C         -29.3660   44.9131   -5.6927 C.3     1  UNL1        0.1207
     27 C         -28.8928   45.1446   -4.2803 C.ar    1  UNL1       -0.0021
     28 C         -29.8093   45.5016   -3.2794 C.ar    1  UNL1       -0.0026
     29 C         -29.3912   45.6227   -1.9534 C.ar    1  UNL1       -0.0001
     30 C         -28.0589   45.3813   -1.6116 C.ar    1  UNL1        0.0064
     31 C         -27.1262   45.0166   -2.5987 C.ar    1  UNL1        0.0752
     32 C         -27.5537   44.9017   -3.9333 C.ar    1  UNL1        0.0038
     33 C         -25.7177   44.7405   -2.2399 C.2     1  UNL1        0.3380
     34 O         -24.7975   44.9162   -3.0835 O.2     1  UNL1       -0.2451
     35 O         -25.3943   44.2882   -0.9631 O.3     1  UNL1       -0.4771
     36 H         -24.4327   44.1005   -0.7057 H       1  UNL1        0.2954
@<TRIPOS>BOND
     1    16    17    1
     2    17    18    1
     3    18    19   ar
     4    19    20   ar
     5    20    21   ar
     6    21    22    1
     7    21    23   ar
     8    23    24   ar
     9    24    25    1
    10    17     1    1
    11     1    26    1
    12    26    27    1
    13    27    28   ar
    14    28    29   ar
    15    29    30   ar
    16    30    31   ar
    17    31    33    1
    18    33    34    2
    19    33    35    1
    20    31    32   ar
    21     1     2   am
    22     2     3    2
    23     2     4    1
    24     4     5   ar
    25     5     6   ar
    26     6     7   ar
    27     7     8   ar
    28     8     9   ar
    29     9    10   ar
    30    10    11   ar
    31    11    12   ar
    32    12    13    1
    33    12    14   ar
    34    24    18   ar
    35    32    27   ar
    36    14     4   ar
    37    11     6   ar
    38    35    36    1
    39    13    15    1
@<TRIPOS>MOLECULE
*****
 36 39 0 0 0
SMALL
GASTEIGER

@<TRIPOS>ATOM
      1 N         -28.8180   46.8476   -6.4330 N.am    1  UNL1       -0.2685
      2 C         -28.2724   46.8281   -7.7596 C.2     1  UNL1        0.2672
      3 O         -28.2663   45.7492   -8.4114 O.2     1  UNL1       -0.2682
      4 C         -27.6947   48.0582   -8.3330 C.ar    1  UNL1        0.1352
      5 C         -26.4178   48.5040   -7.9688 C.ar    1  UNL1        0.0238
      6 C         -25.9229   49.6980   -8.5084 C.ar    1  UNL1        0.0036
      7 C         -24.6464   50.1607   -8.1516 C.ar    1  UNL1        0.0001
      8 C         -24.1560   51.3530   -8.6879 C.ar    1  UNL1        0.0000
      9 C         -24.9327   52.0919   -9.5818 C.ar    1  UNL1        0.0001
     10 C         -26.2055   51.6446   -9.9465 C.ar    1  UNL1        0.0020
     11 C         -26.7164   50.4439   -9.4155 C.ar    1  UNL1        0.0233
     12 C         -27.9954   49.9530   -9.7532 C.ar    1  UNL1        0.1031
     13 S         -29.0920   50.8139  -10.8834 S.3     1  UNL1       -0.1228
     14 N         -28.4350   48.7901   -9.2071 N.ar    1  UNL1       -0.2348
     15 H         -28.5718   50.1250  -11.9947 H       1  UNL1        0.1086
     16 C         -31.0902   46.7285   -7.4417 C.3     1  UNL1        0.0265
     17 C         -30.2355   47.2097   -6.2589 C.3     1  UNL1        0.1007
     18 C         -30.3740   48.6940   -5.9516 C.ar    1  UNL1        0.0234
     19 C         -30.3035   49.6756   -6.9629 C.ar    1  UNL1        0.0019
     20 C         -30.3902   51.0334   -6.6431 C.ar    1  UNL1        0.0295
     21 C         -30.5347   51.4338   -5.3143 C.ar    1  UNL1        0.1424
     22 F         -30.6163   52.7519   -5.0077 F       1  UNL1       -0.2041
     23 C         -30.5870   50.4762   -4.3001 C.ar    1  UNL1        0.0590
     24 C         -30.5009   49.1154   -4.6109 C.ar    1  UNL1        0.1399
     25 F         -30.5379   48.2105   -3.5997 F       1  UNL1       -0.2044
     26 C         -27.9911   46.3365   -5.3297 C.3     1  UNL1        0.1207
     27 C         -27.4958   47.4758   -4.4759 C.ar    1  UNL1       -0.0021
     28 C         -27.0819   47.2393   -3.1560 C.ar    1  UNL1       -0.0026
     29 C         -26.5333   48.2726   -2.3949 C.ar    1  UNL1       -0.0001
     30 C         -26.3845   49.5478   -2.9445 C.ar    1  UNL1        0.0064
     31 C         -26.7873   49.8037   -4.2671 C.ar    1  UNL1        0.0752
     32 C         -27.3441   48.7592   -5.0259 C.ar    1  UNL1        0.0038
     33 C         -26.6143   51.1476   -4.8612 C.2     1  UNL1        0.3380
     34 O         -25.9849   52.0451   -4.2384 O.2     1  UNL1       -0.2451
     35 O         -27.1417   51.4326   -6.1182 O.3     1  UNL1       -0.4771
     36 H         -27.0251   52.3480   -6.5360 H       1  UNL1        0.2954
@<TRIPOS>BOND
     1    16    17    1
     2    17    18    1
     3    18    19   ar
     4    19    20   ar
     5    20    21   ar
     6    21    22    1
     7    21    23   ar
     8    23    24   ar
     9    24    25    1
    10    17     1    1
    11     1    26    1
    12    26    27    1
    13    27    28   ar
    14    28    29   ar
    15    29    30   ar
    16    30    31   ar
    17    31    33    1
    18    33    34    2
    19    33    35    1
    20    31    32   ar
    21     1     2   am
    22     2     3    2
    23     2     4    1
    24     4     5   ar
    25     5     6   ar
    26     6     7   ar
    27     7     8   ar
    28     8     9   ar
    29     9    10   ar
    30    10    11   ar
    31    11    12   ar
    32    12    13    1
    33    12    14   ar
    34    24    18   ar
    35    32    27   ar
    36    14     4   ar
    37    11     6   ar
    38    35    36    1
    39    13    15    1
@<TRIPOS>MOLECULE
*****
 36 39 0 0 0
SMALL
GASTEIGER

@<TRIPOS>ATOM
      1 N         -29.8159   47.9293   -8.5803 N.am    1  UNL1       -0.2685
      2 C         -30.2349   46.8959   -7.6777 C.2     1  UNL1        0.2672
      3 O         -31.1391   46.0925   -8.0322 O.2     1  UNL1       -0.2682
      4 C         -29.6300   46.8052   -6.3355 C.ar    1  UNL1        0.1352
      5 C         -28.6077   45.8897   -6.0554 C.ar    1  UNL1        0.0238
      6 C         -28.0879   45.8102   -4.7572 C.ar    1  UNL1        0.0036
      7 C         -27.0652   44.8960   -4.4588 C.ar    1  UNL1        0.0001
      8 C         -26.5506   44.8157   -3.1632 C.ar    1  UNL1        0.0000
      9 C         -27.0506   45.6440   -2.1572 C.ar    1  UNL1        0.0001
     10 C         -28.0689   46.5591   -2.4386 C.ar    1  UNL1        0.0020
     11 C         -28.5999   46.6539   -3.7400 C.ar    1  UNL1        0.0233
     12 C         -29.6285   47.5612   -4.0714 C.ar    1  UNL1        0.1031
     13 S         -30.3600   48.6726   -2.8668 S.3     1  UNL1       -0.1228
     14 N         -30.1021   47.6054   -5.3432 N.ar    1  UNL1       -0.2348
     15 H         -29.4233   49.6829   -3.1534 H       1  UNL1        0.1086
     16 C         -28.4515   46.1620   -9.6800 C.3     1  UNL1        0.0265
     17 C         -28.6690   47.6683   -9.4674 C.3     1  UNL1        0.1007
     18 C         -27.4354   48.4145   -8.9796 C.ar    1  UNL1        0.0234
     19 C         -26.6382   47.9281   -7.9217 C.ar    1  UNL1        0.0019
     20 C         -25.5368   48.6586   -7.4674 C.ar    1  UNL1        0.0295
     21 C         -25.2211   49.8872   -8.0487 C.ar    1  UNL1        0.1424
     22 F         -24.1532   50.5941   -7.6038 F       1  UNL1       -0.2041
     23 C         -26.0107   50.3916   -9.0833 C.ar    1  UNL1        0.0590
     24 C         -27.1147   49.6674   -9.5442 C.ar    1  UNL1        0.1399
     25 F         -27.8721   50.1938  -10.5403 F       1  UNL1       -0.2044
     26 C         -30.6547   49.1306   -8.7049 C.3     1  UNL1        0.1207
     27 C         -30.4718   50.0233   -7.5040 C.ar    1  UNL1       -0.0021
     28 C         -31.5838   50.4233   -6.7472 C.ar    1  UNL1       -0.0026
     29 C         -31.4093   51.1697   -5.5808 C.ar    1  UNL1       -0.0001
     30 C         -30.1257   51.5167   -5.1539 C.ar    1  UNL1        0.0064
     31 C         -28.9983   51.1204   -5.8947 C.ar    1  UNL1        0.0752
     32 C         -29.1822   50.3733   -7.0716 C.ar    1  UNL1        0.0038
     33 C         -27.6350   51.4683   -5.4371 C.2     1  UNL1        0.3380
     34 O         -26.9486   50.6362   -4.7844 O.2     1  UNL1       -0.2451
     35 O         -27.0946   52.7184   -5.7280 O.3     1  UNL1       -0.4771
     36 H         -26.1605   52.9651   -5.4233 H       1  UNL1        0.2954
@<TRIPOS>BOND
     1    16    17    1
     2    17    18    1
     3    18    19   ar
     4    19    20   ar
     5    20    21   ar
     6    21    22    1
     7    21    23   ar
     8    23    24   ar
     9    24    25    1
    10    17     1    1
    11     1    26    1
    12    26    27    1
    13    27    28   ar
    14    28    29   ar
    15    29    30   ar
    16    30    31   ar
    17    31    33    1
    18    33    34    2
    19    33    35    1
    20    31    32   ar
    21     1     2   am
    22     2     3    2
    23     2     4    1
    24     4     5   ar
    25     5     6   ar
    26     6     7   ar
    27     7     8   ar
    28     8     9   ar
    29     9    10   ar
    30    10    11   ar
    31    11    12   ar
    32    12    13    1
    33    12    14   ar
    34    24    18   ar
    35    32    27   ar
    36    14     4   ar
    37    11     6   ar
    38    35    36    1
    39    13    15    1
@<TRIPOS>MOLECULE
*****
 36 39 0 0 0
SMALL
GASTEIGER

@<TRIPOS>ATOM
      1 N         -28.5582   49.9853   -5.6823 N.am    1  UNL1       -0.2685
      2 C         -28.4964   51.1691   -6.4903 C.2     1  UNL1        0.2672
      3 O         -29.1826   52.1761   -6.1679 O.2     1  UNL1       -0.2682
      4 C         -27.6603   51.1847   -7.7054 C.ar    1  UNL1        0.1352
      5 C         -26.2645   51.2726   -7.6304 C.ar    1  UNL1        0.0238
      6 C         -25.5110   51.3231   -8.8100 C.ar    1  UNL1        0.0036
      7 C         -24.1113   51.4145   -8.7527 C.ar    1  UNL1        0.0001
      8 C         -23.3619   51.4682   -9.9297 C.ar    1  UNL1        0.0000
      9 C         -24.0006   51.4317  -11.1702 C.ar    1  UNL1        0.0001
     10 C         -25.3934   51.3412  -11.2437 C.ar    1  UNL1        0.0020
     11 C         -26.1654   51.2858  -10.0666 C.ar    1  UNL1        0.0233
     12 C         -27.5733   51.1951  -10.0907 C.ar    1  UNL1        0.1031
     13 S         -28.5112   51.1487  -11.6202 S.3     1  UNL1       -0.1228
     14 N         -28.2641   51.1475   -8.9227 N.ar    1  UNL1       -0.2348
     15 H         -28.4539   49.7436  -11.6731 H       1  UNL1        0.1086
     16 C         -26.4295   50.8427   -4.7189 C.3     1  UNL1        0.0265
     17 C         -27.5629   49.8109   -4.6101 C.3     1  UNL1        0.1007
     18 C         -27.0883   48.3659   -4.5515 C.ar    1  UNL1        0.0234
     19 C         -27.3158   47.5503   -3.4226 C.ar    1  UNL1        0.0019
     20 C         -26.8289   46.2410   -3.3816 C.ar    1  UNL1        0.0295
     21 C         -26.0987   45.7296   -4.4552 C.ar    1  UNL1        0.1424
     22 F         -25.6260   44.4597   -4.4109 F       1  UNL1       -0.2041
     23 C         -25.8485   46.5295   -5.5713 C.ar    1  UNL1        0.0590
     24 C         -26.3318   47.8409   -5.6209 C.ar    1  UNL1        0.1399
     25 F         -26.0565   48.5981   -6.7134 F       1  UNL1       -0.2044
     26 C         -29.7125   49.0888   -5.8433 C.3     1  UNL1        0.1207
     27 C         -29.7642   48.5497   -7.2500 C.ar    1  UNL1       -0.0021
     28 C         -30.7117   49.0434   -8.1598 C.ar    1  UNL1       -0.0026
     29 C         -30.7003   48.6166   -9.4885 C.ar    1  UNL1       -0.0001
     30 C         -29.7401   47.7010   -9.9244 C.ar    1  UNL1        0.0064
     31 C         -28.7782   47.1990   -9.0301 C.ar    1  UNL1        0.0752
     32 C         -28.7993   47.6296   -7.6917 C.ar    1  UNL1        0.0038
     33 C         -27.7465   46.2438   -9.4905 C.2     1  UNL1        0.3380
     34 O         -28.0367   45.3423  -10.3227 O.2     1  UNL1       -0.2451
     35 O         -26.4419   46.3349   -9.0120 O.3     1  UNL1       -0.4771
     36 H         -25.7269   45.6888   -9.3241 H       1  UNL1        0.2954
@<TRIPOS>BOND
     1    16    17    1
     2    17    18    1
     3    18    19   ar
     4    19    20   ar
     5    20    21   ar
     6    21    22    1
     7    21    23   ar
     8    23    24   ar
     9    24    25    1
    10    17     1    1
    11     1    26    1
    12    26    27    1
    13    27    28   ar
    14    28    29   ar
    15    29    30   ar
    16    30    31   ar
    17    31    33    1
    18    33    34    2
    19    33    35    1
    20    31    32   ar
    21     1     2   am
    22     2     3    2
    23     2     4    1
    24     4     5   ar
    25     5     6   ar
    26     6     7   ar
    27     7     8   ar
    28     8     9   ar
    29     9    10   ar
    30    10    11   ar
    31    11    12   ar
    32    12    13    1
    33    12    14   ar
    34    24    18   ar
    35    32    27   ar
    36    14     4   ar
    37    11     6   ar
    38    35    36    1
    39    13    15    1
@<TRIPOS>MOLECULE
*****
 36 39 0 0 0
SMALL
GASTEIGER

@<TRIPOS>ATOM
      1 N         -29.4828   50.2342   -5.3542 N.am    1  UNL1       -0.2685
      2 C         -29.8154   49.6309   -4.0959 C.2     1  UNL1        0.2672
      3 O         -30.7002   50.1589   -3.3699 O.2     1  UNL1       -0.2682
      4 C         -29.0970   48.4224   -3.6496 C.ar    1  UNL1        0.1352
      5 C         -27.7001   48.3981   -3.5500 C.ar    1  UNL1        0.0238
      6 C         -27.0557   47.2176   -3.1588 C.ar    1  UNL1        0.0036
      7 C         -25.6562   47.1752   -3.0569 C.ar    1  UNL1        0.0001
      8 C         -25.0153   45.9965   -2.6702 C.ar    1  UNL1        0.0000
      9 C         -25.7628   44.8533   -2.3829 C.ar    1  UNL1        0.0001
     10 C         -27.1568   44.8796   -2.4800 C.ar    1  UNL1        0.0020
     11 C         -27.8203   46.0601   -2.8686 C.ar    1  UNL1        0.0233
     12 C         -29.2248   46.1344   -2.9815 C.ar    1  UNL1        0.1031
     13 S         -30.2953   44.7329   -2.6479 S.3     1  UNL1       -0.1228
     14 N         -29.8079   47.2998   -3.3631 N.ar    1  UNL1       -0.2348
     15 H         -30.4199   45.0852   -1.2912 H       1  UNL1        0.1086
     16 C         -31.5840   49.2391   -6.2425 C.3     1  UNL1        0.0265
     17 C         -30.1772   49.7656   -6.5662 C.3     1  UNL1        0.1007
     18 C         -29.3050   48.7840   -7.3359 C.ar    1  UNL1        0.0234
     19 C         -28.8320   47.5892   -6.7528 C.ar    1  UNL1        0.0019
     20 C         -27.9965   46.7296   -7.4713 C.ar    1  UNL1        0.0295
     21 C         -27.6096   47.0520   -8.7726 C.ar    1  UNL1        0.1424
     22 F         -26.7971   46.2167   -9.4657 F       1  UNL1       -0.2041
     23 C         -28.0531   48.2393   -9.3571 C.ar    1  UNL1        0.0590
     24 C         -28.8893   49.1054   -8.6456 C.ar    1  UNL1        0.1399
     25 F         -29.2892   50.2603   -9.2366 F       1  UNL1       -0.2044
     26 C         -28.5980   51.4087   -5.3539 C.3     1  UNL1        0.1207
     27 C         -27.3822   51.1479   -6.2060 C.ar    1  UNL1       -0.0021
     28 C         -26.4762   50.1368   -5.8510 C.ar    1  UNL1       -0.0026
     29 C         -25.4025   49.8287   -6.6877 C.ar    1  UNL1       -0.0001
     30 C         -25.2266   50.5191   -7.8887 C.ar    1  UNL1        0.0064
     31 C         -26.1267   51.5315   -8.2656 C.ar    1  UNL1        0.0752
     32 C         -27.2030   51.8400   -7.4150 C.ar    1  UNL1        0.0038
     33 C         -25.9569   52.2530   -9.5460 C.2     1  UNL1        0.3380
     34 O         -26.6912   51.9817  -10.5343 O.2     1  UNL1       -0.2451
     35 O         -24.9861   53.2438   -9.6700 O.3     1  UNL1       -0.4771
     36 H         -24.8645   53.7470  -10.5407 H       1  UNL1        0.2954
@<TRIPOS>BOND
     1    16    17    1
     2    17    18    1
     3    18    19   ar
     4    19    20   ar
     5    20    21   ar
     6    21    22    1
     7    21    23   ar
     8    23    24   ar
     9    24    25    1
    10    17     1    1
    11     1    26    1
    12    26    27    1
    13    27    28   ar
    14    28    29   ar
    15    29    30   ar
    16    30    31   ar
    17    31    33    1
    18    33    34    2
    19    33    35    1
    20    31    32   ar
    21     1     2   am
    22     2     3    2
    23     2     4    1
    24     4     5   ar
    25     5     6   ar
    26     6     7   ar
    27     7     8   ar
    28     8     9   ar
    29     9    10   ar
    30    10    11   ar
    31    11    12   ar
    32    12    13    1
    33    12    14   ar
    34    24    18   ar
    35    32    27   ar
    36    14     4   ar
    37    11     6   ar
    38    35    36    1
    39    13    15    1
@<TRIPOS>MOLECULE
*****
 36 39 0 0 0
SMALL
GASTEIGER

@<TRIPOS>ATOM
      1 N         -29.1238   49.6163   -6.5640 N.am    1  UNL1       -0.2685
      2 C         -30.1228   50.2948   -7.3384 C.2     1  UNL1        0.2672
      3 O         -30.9591   51.0373   -6.7571 O.2     1  UNL1       -0.2682
      4 C         -30.1830   50.0905   -8.7979 C.ar    1  UNL1        0.1352
      5 C         -30.2906   48.8086   -9.3522 C.ar    1  UNL1        0.0238
      6 C         -30.3060   48.6570  -10.7445 C.ar    1  UNL1        0.0036
      7 C         -30.4102   47.3792  -11.3164 C.ar    1  UNL1        0.0001
      8 C         -30.4219   47.2296  -12.7047 C.ar    1  UNL1        0.0000
      9 C         -30.3297   48.3501  -13.5318 C.ar    1  UNL1        0.0001
     10 C         -30.2251   49.6288  -12.9775 C.ar    1  UNL1        0.0020
     11 C         -30.2119   49.7986  -11.5790 C.ar    1  UNL1        0.0233
     12 C         -30.1071   51.0690  -10.9738 C.ar    1  UNL1        0.1031
     13 S         -29.9741   52.5839  -11.9269 S.3     1  UNL1       -0.1228
     14 N         -30.0970   51.1698   -9.6198 N.ar    1  UNL1       -0.2348
     15 H         -31.3712   52.7502  -11.9543 H       1  UNL1        0.1086
     16 C         -27.9198   51.5270   -5.5179 C.3     1  UNL1        0.0265
     17 C         -27.8120   50.2624   -6.3842 C.3     1  UNL1        0.1007
     18 C         -27.1362   50.4834   -7.7300 C.ar    1  UNL1        0.0234
     19 C         -26.9380   51.7749   -8.2630 C.ar    1  UNL1        0.0019
     20 C         -26.3541   51.9428   -9.5216 C.ar    1  UNL1        0.0295
     21 C         -25.9718   50.8303  -10.2721 C.ar    1  UNL1        0.1424
     22 F         -25.4077   50.9970  -11.4936 F       1  UNL1       -0.2041
     23 C         -26.1784   49.5454   -9.7676 C.ar    1  UNL1        0.0590
     24 C         -26.7621   49.3680   -8.5093 C.ar    1  UNL1        0.1399
     25 F         -26.9646   48.1049   -8.0549 F       1  UNL1       -0.2044
     26 C         -29.5100   48.3959   -5.8404 C.3     1  UNL1        0.1207
     27 C         -28.5390   48.1224   -4.7203 C.ar    1  UNL1       -0.0021
     28 C         -28.7592   48.6696   -3.4470 C.ar    1  UNL1       -0.0026
     29 C         -27.9160   48.3411   -2.3846 C.ar    1  UNL1       -0.0001
     30 C         -26.8514   47.4584   -2.5791 C.ar    1  UNL1        0.0064
     31 C         -26.6174   46.8945   -3.8457 C.ar    1  UNL1        0.0752
     32 C         -27.4679   47.2343   -4.9125 C.ar    1  UNL1        0.0038
     33 C         -25.5031   45.9437   -4.0534 C.2     1  UNL1        0.3380
     34 O         -25.4560   45.2322   -5.0932 O.2     1  UNL1       -0.2451
     35 O         -24.4915   45.8292   -3.1031 O.3     1  UNL1       -0.4771
     36 H         -23.7218   45.1847   -3.2377 H       1  UNL1        0.2954
@<TRIPOS>BOND
     1    16    17    1
     2    17    18    1
     3    18    19   ar
     4    19    20   ar
     5    20    21   ar
     6    21    22    1
     7    21    23   ar
     8    23    24   ar
     9    24    25    1
    10    17     1    1
    11     1    26    1
    12    26    27    1
    13    27    28   ar
    14    28    29   ar
    15    29    30   ar
    16    30    31   ar
    17    31    33    1
    18    33    34    2
    19    33    35    1
    20    31    32   ar
    21     1     2   am
    22     2     3    2
    23     2     4    1
    24     4     5   ar
    25     5     6   ar
    26     6     7   ar
    27     7     8   ar
    28     8     9   ar
    29     9    10   ar
    30    10    11   ar
    31    11    12   ar
    32    12    13    1
    33    12    14   ar
    34    24    18   ar
    35    32    27   ar
    36    14     4   ar
    37    11     6   ar
    38    35    36    1
    39    13    15    1
@<TRIPOS>MOLECULE
*****
 36 39 0 0 0
SMALL
GASTEIGER

@<TRIPOS>ATOM
      1 N         -28.1172   47.8927   -6.2022 N.am    1  UNL1       -0.2685
      2 C         -29.3765   48.3313   -6.7311 C.2     1  UNL1        0.2672
      3 O         -30.3795   48.3961   -5.9703 O.2     1  UNL1       -0.2682
      4 C         -29.4934   48.6680   -8.1623 C.ar    1  UNL1        0.1352
      5 C         -29.6296   49.9941   -8.5920 C.ar    1  UNL1        0.0238
      6 C         -29.7762   50.2662   -9.9581 C.ar    1  UNL1        0.0036
      7 C         -29.9169   51.5895  -10.4053 C.ar    1  UNL1        0.0001
      8 C         -30.0663   51.8586  -11.7673 C.ar    1  UNL1        0.0000
      9 C         -30.0771   50.8131  -12.6920 C.ar    1  UNL1        0.0001
     10 C         -29.9384   49.4905  -12.2622 C.ar    1  UNL1        0.0020
     11 C         -29.7864   49.2003  -10.8920 C.ar    1  UNL1        0.0233
     12 C         -29.6441   47.8814  -10.4110 C.ar    1  UNL1        0.1031
     13 S         -29.6502   46.4523  -11.4966 S.3     1  UNL1       -0.1228
     14 N         -29.5035   47.6634   -9.0781 N.ar    1  UNL1       -0.2348
     15 H         -28.2537   46.5065  -11.6610 H       1  UNL1        0.1086
     16 C         -27.7111   49.6350   -4.4718 C.3     1  UNL1        0.0265
     17 C         -27.1675   48.9062   -5.7106 C.3     1  UNL1        0.1007
     18 C         -26.7400   49.8309   -6.8414 C.ar    1  UNL1        0.0234
     19 C         -27.0589   51.2055   -6.8430 C.ar    1  UNL1        0.0019
     20 C         -26.6901   52.0198   -7.9174 C.ar    1  UNL1        0.0295
     21 C         -26.0121   51.4767   -9.0094 C.ar    1  UNL1        0.1424
     22 F         -25.6580   52.2693  -10.0508 F       1  UNL1       -0.2041
     23 C         -25.7060   50.1151   -9.0322 C.ar    1  UNL1        0.0590
     24 C         -26.0712   49.2929   -7.9615 C.ar    1  UNL1        0.1399
     25 F         -25.7736   47.9698   -8.0224 F       1  UNL1       -0.2044
     26 C         -27.9035   46.4504   -6.0115 C.3     1  UNL1        0.1207
     27 C         -27.8947   46.1126   -4.5424 C.ar    1  UNL1       -0.0021
     28 C         -29.0876   46.1468   -3.8040 C.ar    1  UNL1       -0.0026
     29 C         -29.1000   45.7423   -2.4683 C.ar    1  UNL1       -0.0001
     30 C         -27.9267   45.2926   -1.8591 C.ar    1  UNL1        0.0064
     31 C         -26.7224   45.2450   -2.5834 C.ar    1  UNL1        0.0752
     32 C         -26.7164   45.6591   -3.9271 C.ar    1  UNL1        0.0038
     33 C         -25.4803   44.7511   -1.9492 C.2     1  UNL1        0.3380
     34 O         -24.3851   44.7922   -2.5724 O.2     1  UNL1       -0.2451
     35 O         -25.5085   44.2402   -0.6540 O.3     1  UNL1       -0.4771
     36 H         -24.6631   43.9037   -0.2089 H       1  UNL1        0.2954
@<TRIPOS>BOND
     1    16    17    1
     2    17    18    1
     3    18    19   ar
     4    19    20   ar
     5    20    21   ar
     6    21    22    1
     7    21    23   ar
     8    23    24   ar
     9    24    25    1
    10    17     1    1
    11     1    26    1
    12    26    27    1
    13    27    28   ar
    14    28    29   ar
    15    29    30   ar
    16    30    31   ar
    17    31    33    1
    18    33    34    2
    19    33    35    1
    20    31    32   ar
    21     1     2   am
    22     2     3    2
    23     2     4    1
    24     4     5   ar
    25     5     6   ar
    26     6     7   ar
    27     7     8   ar
    28     8     9   ar
    29     9    10   ar
    30    10    11   ar
    31    11    12   ar
    32    12    13    1
    33    12    14   ar
    34    24    18   ar
    35    32    27   ar
    36    14     4   ar
    37    11     6   ar
    38    35    36    1
    39    13    15    1
