@<TRIPOS>MOLECULE
*****
 48 53 0 0 0
SMALL
GASTEIGER

@<TRIPOS>ATOM
      1 C          59.3005   86.0188    7.9102 C.ar    1  UNL1        0.0702
      2 C          58.1259   85.3029    8.1683 C.ar    1  UNL1        0.0191
      3 C          58.0744   84.3902    9.2227 C.ar    1  UNL1        0.0356
      4 C          59.2144   84.1824   10.0179 C.ar    1  UNL1        0.1318
      5 N          60.3558   84.8679    9.7268 N.ar    1  UNL1       -0.2279
      6 C          60.4277   85.7642    8.7075 C.ar    1  UNL1        0.1149
      7 N          59.2032   83.2454   11.1167 N.pl3   1  UNL1       -0.2932
      8 C          59.4237   83.7308   12.4878 C.3     1  UNL1        0.0923
      9 C          60.1112   82.6486   13.3234 C.3     1  UNL1        0.0252
     10 C          59.2861   81.3371   13.3794 C.3     1  UNL1        0.0472
     11 C          58.3460   81.1647   12.1599 C.3     1  UNL1        0.0252
     12 C          58.8988   81.8218   10.8894 C.3     1  UNL1        0.0923
     13 C          60.2125   80.1136   13.5374 C.3     1  UNL1        0.2054
     14 O          61.0752   79.9695   12.4072 O.3     1  UNL1       -0.4752
     15 C          62.2247   80.7356   12.1402 C.ar    1  UNL1        0.1449
     16 C          62.7940   81.5837   13.1125 C.ar    1  UNL1        0.0435
     17 C          63.9520   82.3268   12.8333 C.ar    1  UNL1        0.0785
     18 C          64.5443   82.2152   11.5671 C.ar    1  UNL1        0.0068
     19 C          63.9921   81.3776   10.5983 C.ar    1  UNL1        0.0097
     20 C          62.8348   80.6300   10.8703 C.ar    1  UNL1        0.1093
     21 C          64.5373   83.2160   13.8624 C.2     1  UNL1        0.3381
     22 O          63.8171   84.0595   14.4622 O.2     1  UNL1       -0.2451
     23 O          65.8907   83.1291   14.1790 O.3     1  UNL1       -0.4771
     24 H          66.3006   83.7326   14.8818 H       1  UNL1        0.2954
     25 C          62.2557   79.7650    9.8121 C.2     1  UNL1        0.3410
     26 O          62.9734   78.9060    9.2344 O.2     1  UNL1       -0.2450
     27 O          60.9174   79.8765    9.4382 O.3     1  UNL1       -0.4770
     28 H          60.3133   80.6008    9.8060 H       1  UNL1        0.2954
     29 C          59.7583   88.3104    6.9180 C.2     1  UNL1        0.2839
     30 O          59.8629   88.8510    8.0518 O.2     1  UNL1       -0.2665
     31 N          59.3457   86.9387    6.8058 N.am    1  UNL1       -0.2766
     32 H          58.9762   86.6117    5.8843 H       1  UNL1        0.1553
     33 C          57.5787   89.5891    4.9463 C.3     1  UNL1        0.0345
     34 C          59.0721   89.6592    4.8359 C.ar    1  UNL1        0.0202
     35 C          60.0205   89.0986    5.6988 C.ar    1  UNL1        0.1946
     36 O          61.2397   89.3760    5.2720 O.2     1  UNL1       -0.4492
     37 C          61.1310   90.0870    4.1764 C.ar    1  UNL1        0.1452
     38 C          62.1623   90.5962    3.3951 C.ar    1  UNL1        0.0375
     39 C          61.8197   91.3399    2.2527 C.ar    1  UNL1        0.0031
     40 C          60.4586   91.5627    1.9095 C.ar    1  UNL1        0.0002
     41 C          59.4390   91.0261    2.7320 C.ar    1  UNL1        0.0028
     42 C          59.8153   90.2926    3.8583 C.ar    1  UNL1        0.0337
     43 C          60.1087   92.3502    0.7002 C.ar    1  UNL1        0.0000
     44 C          61.1127   92.7850   -0.1860 C.ar    1  UNL1        0.0000
     45 C          60.7804   93.5264   -1.3241 C.ar    1  UNL1        0.0000
     46 C          59.4462   93.8407   -1.5909 C.ar    1  UNL1        0.0000
     47 C          58.4410   93.4148   -0.7200 C.ar    1  UNL1        0.0000
     48 C          58.7675   92.6738    0.4200 C.ar    1  UNL1        0.0000
@<TRIPOS>BOND
     1    33    34    1
     2    34    35   ar
     3    35    29    1
     4    29    30    2
     5    29    31   am
     6    31     1    1
     7     1     2   ar
     8     2     3   ar
     9     3     4   ar
    10     4     7    1
    11     7     8    1
    12     8     9    1
    13     9    10    1
    14    10    13    1
    15    13    14    1
    16    14    15    1
    17    15    16   ar
    18    16    17   ar
    19    17    21    1
    20    21    22    2
    21    21    23    1
    22    17    18   ar
    23    18    19   ar
    24    19    20   ar
    25    20    25    1
    26    25    26    2
    27    25    27    1
    28    10    11    1
    29    11    12    1
    30     4     5   ar
    31     5     6   ar
    32    35    36   ar
    33    36    37   ar
    34    37    38   ar
    35    38    39   ar
    36    39    40   ar
    37    40    43    1
    38    43    44   ar
    39    44    45   ar
    40    45    46   ar
    41    46    47   ar
    42    47    48   ar
    43    40    41   ar
    44    41    42   ar
    45    42    34   ar
    46     6     1   ar
    47    42    37   ar
    48    12     7    1
    49    48    43   ar
    50    20    15   ar
    51    31    32    1
    52    23    24    1
    53    27    28    1
@<TRIPOS>MOLECULE
*****
 48 53 0 0 0
SMALL
GASTEIGER

@<TRIPOS>ATOM
      1 C          60.4601   86.3941    8.0264 C.ar    1  UNL1        0.0702
      2 C          59.3986   86.1271    8.8986 C.ar    1  UNL1        0.0191
      3 C          59.5982   85.3335   10.0291 C.ar    1  UNL1        0.0356
      4 C          60.8699   84.7909   10.2811 C.ar    1  UNL1        0.1318
      5 N          61.8796   85.0391    9.4000 N.ar    1  UNL1       -0.2279
      6 C          61.7090   85.8118    8.2950 C.ar    1  UNL1        0.1149
      7 N          61.1175   83.9630   11.4383 N.pl3   1  UNL1       -0.2932
      8 C          62.4996   83.7404   11.8902 C.3     1  UNL1        0.0923
      9 C          62.6237   82.3601   12.5392 C.3     1  UNL1        0.0252
     10 C          61.6650   82.1902   13.7459 C.3     1  UNL1        0.0472
     11 C          60.4207   83.1095   13.6605 C.3     1  UNL1        0.0252
     12 C          59.9988   83.4010   12.2152 C.3     1  UNL1        0.0923
     13 C          61.2483   80.7138   13.9106 C.3     1  UNL1        0.2054
     14 O          61.2759   80.0265   12.6580 O.3     1  UNL1       -0.4752
     15 C          60.2564   80.0315   11.6883 C.ar    1  UNL1        0.1449
     16 C          60.4423   80.6163   10.4186 C.ar    1  UNL1        0.0435
     17 C          59.4192   80.5954    9.4573 C.ar    1  UNL1        0.0785
     18 C          58.1996   79.9799    9.7739 C.ar    1  UNL1        0.0068
     19 C          58.0049   79.3958   11.0253 C.ar    1  UNL1        0.0097
     20 C          59.0238   79.4112   11.9916 C.ar    1  UNL1        0.1093
     21 C          59.6269   81.2161    8.1293 C.2     1  UNL1        0.3381
     22 O          59.7863   82.4625    8.0246 O.2     1  UNL1       -0.2451
     23 O          59.6489   80.4285    6.9810 O.3     1  UNL1       -0.4771
     24 H          59.7906   80.8434    6.0678 H       1  UNL1        0.2954
     25 C          58.7800   78.8027   13.3233 C.2     1  UNL1        0.3410
     26 O          59.1058   77.6055   13.5408 O.2     1  UNL1       -0.2450
     27 O          58.1954   79.5332   14.3566 O.3     1  UNL1       -0.4770
     28 H          57.8378   80.4702   14.2194 H       1  UNL1        0.2954
     29 C          60.2127   88.6309    6.8513 C.2     1  UNL1        0.2839
     30 O          60.1413   89.2660    7.9376 O.2     1  UNL1       -0.2665
     31 N          60.2336   87.1942    6.8532 N.am    1  UNL1       -0.2766
     32 H          59.9865   86.6991    5.9663 H       1  UNL1        0.1553
     33 C          57.6829   89.7447    5.2286 C.3     1  UNL1        0.0345
     34 C          59.1319   89.8507    4.8590 C.ar    1  UNL1        0.0202
     35 C          60.2336   89.3621    5.5701 C.ar    1  UNL1        0.1946
     36 O          61.3510   89.6511    4.9270 O.2     1  UNL1       -0.4492
     37 C          61.0308   90.3013    3.8351 C.ar    1  UNL1        0.1452
     38 C          61.8940   90.7982    2.8649 C.ar    1  UNL1        0.0375
     39 C          61.3343   91.4721    1.7658 C.ar    1  UNL1        0.0031
     40 C          59.9274   91.6387    1.6527 C.ar    1  UNL1        0.0002
     41 C          59.0836   91.1170    2.6627 C.ar    1  UNL1        0.0028
     42 C          59.6734   90.4534    3.7396 C.ar    1  UNL1        0.0337
     43 C          59.3475   92.3527    0.4870 C.ar    1  UNL1        0.0000
     44 C          57.9817   92.2182    0.1725 C.ar    1  UNL1        0.0000
     45 C          57.4382   92.8917   -0.9259 C.ar    1  UNL1        0.0000
     46 C          58.2486   93.7057   -1.7202 C.ar    1  UNL1        0.0000
     47 C          59.6047   93.8477   -1.4184 C.ar    1  UNL1        0.0000
     48 C          60.1538   93.1759   -0.3218 C.ar    1  UNL1        0.0000
@<TRIPOS>BOND
     1    33    34    1
     2    34    35   ar
     3    35    29    1
     4    29    30    2
     5    29    31   am
     6    31     1    1
     7     1     2   ar
     8     2     3   ar
     9     3     4   ar
    10     4     7    1
    11     7     8    1
    12     8     9    1
    13     9    10    1
    14    10    13    1
    15    13    14    1
    16    14    15    1
    17    15    16   ar
    18    16    17   ar
    19    17    21    1
    20    21    22    2
    21    21    23    1
    22    17    18   ar
    23    18    19   ar
    24    19    20   ar
    25    20    25    1
    26    25    26    2
    27    25    27    1
    28    10    11    1
    29    11    12    1
    30     4     5   ar
    31     5     6   ar
    32    35    36   ar
    33    36    37   ar
    34    37    38   ar
    35    38    39   ar
    36    39    40   ar
    37    40    43    1
    38    43    44   ar
    39    44    45   ar
    40    45    46   ar
    41    46    47   ar
    42    47    48   ar
    43    40    41   ar
    44    41    42   ar
    45    42    34   ar
    46     6     1   ar
    47    42    37   ar
    48    12     7    1
    49    48    43   ar
    50    20    15   ar
    51    31    32    1
    52    23    24    1
    53    27    28    1
@<TRIPOS>MOLECULE
*****
 48 53 0 0 0
SMALL
GASTEIGER

@<TRIPOS>ATOM
      1 C          61.1897   87.8740    8.7583 C.ar    1  UNL1        0.0702
      2 C          61.2169   86.4989    9.0175 C.ar    1  UNL1        0.0191
      3 C          61.2828   86.0306   10.3305 C.ar    1  UNL1        0.0356
      4 C          61.3357   86.9485   11.3935 C.ar    1  UNL1        0.1318
      5 N          61.3401   88.2823   11.1138 N.ar    1  UNL1       -0.2279
      6 C          61.2728   88.7608    9.8434 C.ar    1  UNL1        0.1149
      7 N          61.4069   86.5050   12.7660 N.pl3   1  UNL1       -0.2932
      8 C          62.5630   86.8839   13.5930 C.3     1  UNL1        0.0923
      9 C          62.8479   85.7931   14.6280 C.3     1  UNL1        0.0252
     10 C          61.6317   85.5286   15.5524 C.3     1  UNL1        0.0472
     11 C          60.2811   85.9064   14.8936 C.3     1  UNL1        0.0252
     12 C          60.3003   85.7417   13.3690 C.3     1  UNL1        0.0923
     13 C          61.6182   84.0627   16.0336 C.3     1  UNL1        0.2054
     14 O          62.2902   83.2083   15.1060 O.3     1  UNL1       -0.4752
     15 C          61.7015   82.1708   14.3599 C.ar    1  UNL1        0.1449
     16 C          60.5290   82.3735   13.6030 C.ar    1  UNL1        0.0435
     17 C          59.9663   81.3305   12.8502 C.ar    1  UNL1        0.0785
     18 C          60.5881   80.0737   12.8564 C.ar    1  UNL1        0.0068
     19 C          61.7496   79.8618   13.5988 C.ar    1  UNL1        0.0097
     20 C          62.3194   80.9003   14.3532 C.ar    1  UNL1        0.1093
     21 C          58.7331   81.5564   12.0626 C.2     1  UNL1        0.3381
     22 O          58.1077   82.6475   12.1540 O.2     1  UNL1       -0.2451
     23 O          58.2512   80.5651   11.2114 O.3     1  UNL1       -0.4771
     24 H          57.4087   80.7100   10.6681 H       1  UNL1        0.2954
     25 C          63.5425   80.6394   15.1527 C.2     1  UNL1        0.3410
     26 O          63.7576   79.4908   15.6228 O.2     1  UNL1       -0.2450
     27 O          64.4757   81.6456   15.3969 O.3     1  UNL1       -0.4770
     28 H          64.3193   82.6058   15.1169 H       1  UNL1        0.2954
     29 C          59.9807   88.9160    6.7840 C.2     1  UNL1        0.2839
     30 O          58.8525   88.8067    7.3353 O.2     1  UNL1       -0.2665
     31 N          61.1452   88.3416    7.3991 N.am    1  UNL1       -0.2766
     32 H          61.9853   88.1761    6.7995 H       1  UNL1        0.1553
     33 C          57.6038   90.1818    5.0458 C.3     1  UNL1        0.0345
     34 C          59.0670   90.1547    4.7210 C.ar    1  UNL1        0.0202
     35 C          60.1018   89.6001    5.4825 C.ar    1  UNL1        0.1946
     36 O          61.2585   89.7738    4.8680 O.2     1  UNL1       -0.4492
     37 C          61.0272   90.4119    3.7468 C.ar    1  UNL1        0.1452
     38 C          61.9581   90.8028    2.7909 C.ar    1  UNL1        0.0375
     39 C          61.4905   91.4841    1.6539 C.ar    1  UNL1        0.0031
     40 C          60.1066   91.7632    1.4896 C.ar    1  UNL1        0.0002
     41 C          59.1918   91.3471    2.4867 C.ar    1  UNL1        0.0028
     42 C          59.6909   90.6729    3.6022 C.ar    1  UNL1        0.0337
     43 C          59.6243   92.4839    0.2842 C.ar    1  UNL1        0.0000
     44 C          60.5296   93.1614   -0.5548 C.ar    1  UNL1        0.0000
     45 C          60.0726   93.8392   -1.6892 C.ar    1  UNL1        0.0000
     46 C          58.7111   93.8479   -1.9995 C.ar    1  UNL1        0.0000
     47 C          57.8030   93.1793   -1.1757 C.ar    1  UNL1        0.0000
     48 C          58.2542   92.5006   -0.0394 C.ar    1  UNL1        0.0000
@<TRIPOS>BOND
     1    33    34    1
     2    34    35   ar
     3    35    29    1
     4    29    30    2
     5    29    31   am
     6    31     1    1
     7     1     2   ar
     8     2     3   ar
     9     3     4   ar
    10     4     7    1
    11     7     8    1
    12     8     9    1
    13     9    10    1
    14    10    13    1
    15    13    14    1
    16    14    15    1
    17    15    16   ar
    18    16    17   ar
    19    17    21    1
    20    21    22    2
    21    21    23    1
    22    17    18   ar
    23    18    19   ar
    24    19    20   ar
    25    20    25    1
    26    25    26    2
    27    25    27    1
    28    10    11    1
    29    11    12    1
    30     4     5   ar
    31     5     6   ar
    32    35    36   ar
    33    36    37   ar
    34    37    38   ar
    35    38    39   ar
    36    39    40   ar
    37    40    43    1
    38    43    44   ar
    39    44    45   ar
    40    45    46   ar
    41    46    47   ar
    42    47    48   ar
    43    40    41   ar
    44    41    42   ar
    45    42    34   ar
    46     6     1   ar
    47    42    37   ar
    48    12     7    1
    49    48    43   ar
    50    20    15   ar
    51    31    32    1
    52    23    24    1
    53    27    28    1
@<TRIPOS>MOLECULE
*****
 48 53 0 0 0
SMALL
GASTEIGER

@<TRIPOS>ATOM
      1 C          60.6867   87.0632    8.3660 C.ar    1  UNL1        0.0702
      2 C          59.8025   86.0374    8.7194 C.ar    1  UNL1        0.0191
      3 C          59.9040   85.4181    9.9659 C.ar    1  UNL1        0.0356
      4 C          60.9094   85.8206   10.8617 C.ar    1  UNL1        0.1318
      5 N          61.7781   86.7995   10.4820 N.ar    1  UNL1       -0.2279
      6 C          61.6957   87.4190    9.2749 C.ar    1  UNL1        0.1149
      7 N          61.0496   85.2036   12.1599 N.pl3   1  UNL1       -0.2932
      8 C          62.0783   85.6941   13.0901 C.3     1  UNL1        0.0923
      9 C          62.5756   84.5482   13.9743 C.3     1  UNL1        0.0252
     10 C          61.4295   83.8948   14.7887 C.3     1  UNL1        0.0472
     11 C          60.0419   84.0681   14.1214 C.3     1  UNL1        0.0252
     12 C          60.1261   84.1399   12.5918 C.3     1  UNL1        0.0923
     13 C          61.7288   82.4053   15.0573 C.3     1  UNL1        0.2054
     14 O          61.0150   81.5632   14.1497 O.3     1  UNL1       -0.4752
     15 C          61.4650   81.1389   12.8860 C.ar    1  UNL1        0.1449
     16 C          62.6543   81.6377   12.3154 C.ar    1  UNL1        0.0435
     17 C          63.0969   81.1887   11.0609 C.ar    1  UNL1        0.0785
     18 C          62.3391   80.2288   10.3748 C.ar    1  UNL1        0.0068
     19 C          61.1627   79.7259   10.9302 C.ar    1  UNL1        0.0097
     20 C          60.7141   80.1689   12.1851 C.ar    1  UNL1        0.1093
     21 C          64.3457   81.7234   10.4722 C.2     1  UNL1        0.3381
     22 O          64.6922   81.3973    9.3045 O.2     1  UNL1       -0.2451
     23 O          65.1511   82.5933   11.2029 O.3     1  UNL1       -0.4771
     24 H          66.0071   82.9649   10.8090 H       1  UNL1        0.2954
     25 C          59.4460   79.6337   12.7407 C.2     1  UNL1        0.3410
     26 O          58.3974   80.3308   12.7082 O.2     1  UNL1       -0.2450
     27 O          59.3827   78.3592   13.3018 O.3     1  UNL1       -0.4770
     28 H          60.2065   77.7854   13.4311 H       1  UNL1        0.2954
     29 C          59.8635   88.8912    6.8084 C.2     1  UNL1        0.2839
     30 O          59.0646   89.3519    7.6675 O.2     1  UNL1       -0.2665
     31 N          60.5845   87.6760    7.0691 N.am    1  UNL1       -0.2766
     32 H          60.9885   87.1611    6.2541 H       1  UNL1        0.1553
     33 C          57.5491   90.1652    4.9935 C.3     1  UNL1        0.0345
     34 C          59.0225   90.1364    4.7186 C.ar    1  UNL1        0.0202
     35 C          60.0299   89.5782    5.5135 C.ar    1  UNL1        0.1946
     36 O          61.2071   89.7513    4.9390 O.2     1  UNL1       -0.4492
     37 C          61.0150   90.3925    3.8122 C.ar    1  UNL1        0.1452
     38 C          61.9785   90.7841    2.8894 C.ar    1  UNL1        0.0375
     39 C          61.5509   91.4689    1.7388 C.ar    1  UNL1        0.0031
     40 C          60.1739   91.7508    1.5283 C.ar    1  UNL1        0.0002
     41 C          59.2251   91.3339    2.4927 C.ar    1  UNL1        0.0028
     42 C          59.6849   90.6562    3.6229 C.ar    1  UNL1        0.0337
     43 C          59.7340   92.4752    0.3090 C.ar    1  UNL1        0.0000
     44 C          58.3774   92.4843   -0.0677 C.ar    1  UNL1        0.0000
     45 C          57.9658   93.1672   -1.2165 C.ar    1  UNL1        0.0000
     46 C          58.9003   93.8479   -1.9998 C.ar    1  UNL1        0.0000
     47 C          60.2488   93.8469   -1.6366 C.ar    1  UNL1        0.0000
     48 C          60.6662   93.1649   -0.4893 C.ar    1  UNL1        0.0000
@<TRIPOS>BOND
     1    33    34    1
     2    34    35   ar
     3    35    29    1
     4    29    30    2
     5    29    31   am
     6    31     1    1
     7     1     2   ar
     8     2     3   ar
     9     3     4   ar
    10     4     7    1
    11     7     8    1
    12     8     9    1
    13     9    10    1
    14    10    13    1
    15    13    14    1
    16    14    15    1
    17    15    16   ar
    18    16    17   ar
    19    17    21    1
    20    21    22    2
    21    21    23    1
    22    17    18   ar
    23    18    19   ar
    24    19    20   ar
    25    20    25    1
    26    25    26    2
    27    25    27    1
    28    10    11    1
    29    11    12    1
    30     4     5   ar
    31     5     6   ar
    32    35    36   ar
    33    36    37   ar
    34    37    38   ar
    35    38    39   ar
    36    39    40   ar
    37    40    43    1
    38    43    44   ar
    39    44    45   ar
    40    45    46   ar
    41    46    47   ar
    42    47    48   ar
    43    40    41   ar
    44    41    42   ar
    45    42    34   ar
    46     6     1   ar
    47    42    37   ar
    48    12     7    1
    49    48    43   ar
    50    20    15   ar
    51    31    32    1
    52    23    24    1
    53    27    28    1
@<TRIPOS>MOLECULE
*****
 48 53 0 0 0
SMALL
GASTEIGER

@<TRIPOS>ATOM
      1 C          59.6749   87.3180    7.2602 C.ar    1  UNL1        0.0702
      2 C          58.9334   86.1344    7.1690 C.ar    1  UNL1        0.0191
      3 C          58.6916   85.3650    8.3079 C.ar    1  UNL1        0.0356
      4 C          59.2090   85.7778    9.5477 C.ar    1  UNL1        0.1318
      5 N          59.9547   86.9170    9.6051 N.ar    1  UNL1       -0.2279
      6 C          60.1997   87.6837    8.5099 C.ar    1  UNL1        0.1149
      7 N          58.9834   85.0090   10.7492 N.pl3   1  UNL1       -0.2932
      8 C          59.0792   85.6669   12.0615 C.3     1  UNL1        0.0923
      9 C          59.5635   84.6682   13.1152 C.3     1  UNL1        0.0252
     10 C          58.6257   83.4394   13.2344 C.3     1  UNL1        0.0472
     11 C          57.8275   83.1626   11.9355 C.3     1  UNL1        0.0252
     12 C          58.5848   83.5926   10.6732 C.3     1  UNL1        0.0923
     13 C          59.4153   82.1883   13.6722 C.3     1  UNL1        0.2054
     14 O          59.3233   81.1508   12.6937 O.3     1  UNL1       -0.4752
     15 C          60.3428   80.7551   11.8084 C.ar    1  UNL1        0.1449
     16 C          61.5552   81.4680   11.7060 C.ar    1  UNL1        0.0435
     17 C          62.5683   81.0473   10.8298 C.ar    1  UNL1        0.0785
     18 C          62.3623   79.8992   10.0514 C.ar    1  UNL1        0.0068
     19 C          61.1685   79.1843   10.1460 C.ar    1  UNL1        0.0097
     20 C          60.1510   79.5978   11.0210 C.ar    1  UNL1        0.1093
     21 C          63.8351   81.8071   10.7299 C.2     1  UNL1        0.3381
     22 O          64.6599   81.5559    9.8098 O.2     1  UNL1       -0.2451
     23 O          64.1286   82.8087   11.6520 O.3     1  UNL1       -0.4771
     24 H          64.9923   83.3345   11.5921 H       1  UNL1        0.2954
     25 C          58.8816   78.8310   11.0833 C.2     1  UNL1        0.3410
     26 O          58.8713   77.6620   11.5521 O.2     1  UNL1       -0.2450
     27 O          57.6816   79.3802   10.6342 O.3     1  UNL1       -0.4770
     28 H          57.6397   80.2803   10.1729 H       1  UNL1        0.2954
     29 C          59.2518   89.3067    5.7399 C.2     1  UNL1        0.2839
     30 O          58.1996   89.6326    6.3527 O.2     1  UNL1       -0.2665
     31 N          59.9356   88.0881    6.0740 N.am    1  UNL1       -0.2766
     32 H          60.6027   87.6923    5.3733 H       1  UNL1        0.1553
     33 C          62.0471   88.9956    4.2028 C.3     1  UNL1        0.0345
     34 C          60.9811   90.0244    3.9737 C.ar    1  UNL1        0.0202
     35 C          59.7620   90.1573    4.6479 C.ar    1  UNL1        0.1946
     36 O          59.0872   91.1847    4.1634 O.2     1  UNL1       -0.4492
     37 C          59.8061   91.7254    3.2101 C.ar    1  UNL1        0.1452
     38 C          59.4793   92.8284    2.4292 C.ar    1  UNL1        0.0375
     39 C          60.4021   93.2433    1.4536 C.ar    1  UNL1        0.0031
     40 C          61.6316   92.5535    1.2736 C.ar    1  UNL1        0.0002
     41 C          61.9257   91.4352    2.0904 C.ar    1  UNL1        0.0028
     42 C          60.9868   91.0513    3.0490 C.ar    1  UNL1        0.0337
     43 C          62.5988   93.0009    0.2395 C.ar    1  UNL1        0.0000
     44 C          63.9806   93.0141    0.5098 C.ar    1  UNL1        0.0000
     45 C          64.8891   93.4359   -0.4659 C.ar    1  UNL1        0.0000
     46 C          64.4310   93.8472   -1.7193 C.ar    1  UNL1        0.0000
     47 C          63.0630   93.8382   -2.0000 C.ar    1  UNL1        0.0000
     48 C          62.1497   93.4182   -1.0278 C.ar    1  UNL1        0.0000
@<TRIPOS>BOND
     1    33    34    1
     2    34    35   ar
     3    35    29    1
     4    29    30    2
     5    29    31   am
     6    31     1    1
     7     1     2   ar
     8     2     3   ar
     9     3     4   ar
    10     4     7    1
    11     7     8    1
    12     8     9    1
    13     9    10    1
    14    10    13    1
    15    13    14    1
    16    14    15    1
    17    15    16   ar
    18    16    17   ar
    19    17    21    1
    20    21    22    2
    21    21    23    1
    22    17    18   ar
    23    18    19   ar
    24    19    20   ar
    25    20    25    1
    26    25    26    2
    27    25    27    1
    28    10    11    1
    29    11    12    1
    30     4     5   ar
    31     5     6   ar
    32    35    36   ar
    33    36    37   ar
    34    37    38   ar
    35    38    39   ar
    36    39    40   ar
    37    40    43    1
    38    43    44   ar
    39    44    45   ar
    40    45    46   ar
    41    46    47   ar
    42    47    48   ar
    43    40    41   ar
    44    41    42   ar
    45    42    34   ar
    46     6     1   ar
    47    42    37   ar
    48    12     7    1
    49    48    43   ar
    50    20    15   ar
    51    31    32    1
    52    23    24    1
    53    27    28    1
