@<TRIPOS>MOLECULE
*****
 38 40 0 0 0
SMALL
GASTEIGER

@<TRIPOS>ATOM
      1 C         -21.6007   -9.4661  -13.0953 C.ar    1  UNL1       -0.0023
      2 C         -21.5768  -10.6808  -12.3910 C.ar    1  UNL1       -0.0026
      3 C         -20.8345  -10.8002  -11.2132 C.ar    1  UNL1       -0.0003
      4 C         -20.0966   -9.7104  -10.7276 C.ar    1  UNL1        0.0001
      5 C         -20.1214   -8.4952  -11.4300 C.ar    1  UNL1       -0.0003
      6 C         -20.8624   -8.3765  -12.6083 C.ar    1  UNL1       -0.0026
      7 C         -19.3281   -9.8346   -9.4668 C.ar    1  UNL1        0.0032
      8 C         -18.3508  -10.8373   -9.3871 C.ar    1  UNL1        0.0001
      9 C         -17.6507  -11.0514   -8.2043 C.ar    1  UNL1        0.0002
     10 C         -17.8984  -10.2553   -7.0895 C.ar    1  UNL1        0.0065
     11 C         -18.8452   -9.2177   -7.1411 C.ar    1  UNL1        0.0784
     12 C         -19.5861   -9.0110   -8.3380 C.ar    1  UNL1        0.0434
     13 C         -20.6325   -7.9648   -8.4132 C.ar    1  UNL1        0.1808
     14 N         -20.3910   -6.6477   -8.5532 N.ar    1  UNL1       -0.1083
     15 N         -21.5904   -6.0866   -8.6208 N.ar    1  UNL1       -0.0229
     16 N         -22.5309   -7.0158   -8.5337 N.ar    1  UNL1       -0.0464
     17 N         -21.9549   -8.1970   -8.4054 N.ar    1  UNL1       -0.2388
     18 H         -22.4533   -9.1115   -8.3343 H       1  UNL1        0.1923
     19 C         -18.9839   -8.3404   -5.9526 C.2     1  UNL1        0.3381
     20 O         -19.3269   -8.8308   -4.8427 O.2     1  UNL1       -0.2451
     21 O         -18.6928   -6.9815   -6.0343 O.3     1  UNL1       -0.4771
     22 H         -18.7749   -6.3816   -5.2222 H       1  UNL1        0.2954
     23 C         -22.4434   -9.3199  -14.3353 C.3     1  UNL1        0.1206
     24 C         -24.6230  -10.5147  -14.5610 C.2     1  UNL1        0.2262
     25 O         -24.6130  -10.7115  -15.8056 O.2     1  UNL1       -0.2749
     26 N         -23.8767   -9.4081  -14.0138 N.am    1  UNL1       -0.2673
     27 C         -25.3048  -11.5236  -13.6808 C.3     1  UNL1        0.0853
     28 C         -24.6062  -12.8851  -13.7923 C.3     1  UNL1        0.0096
     29 C         -24.8625  -14.6770  -15.5901 C.3     1  UNL1        0.0000
     30 C         -25.5117  -13.9641  -14.4044 C.3     1  UNL1        0.0005
     31 C         -24.4866   -8.3775  -13.1364 C.3     1  UNL1        0.1746
     32 C         -24.3935   -8.7693  -11.6739 C.2     1  UNL1        0.3320
     33 O         -24.7063   -9.9375  -11.3215 O.2     1  UNL1       -0.2485
     34 O         -23.8535   -7.9137  -10.7145 O.3     1  UNL1       -0.4790
     35 H         -23.4914   -6.9974  -10.9394 H       1  UNL1        0.2951
     36 C         -25.9053   -7.9188  -13.6111 C.3     1  UNL1        0.0292
     37 C         -26.9648   -8.1130  -12.5167 C.3     1  UNL1        0.0023
     38 C         -25.9714   -6.4868  -14.1690 C.3     1  UNL1        0.0023
@<TRIPOS>BOND
     1    29    30    1
     2    30    28    1
     3    28    27    1
     4    27    24    1
     5    24    25    2
     6    24    26   am
     7    26    23    1
     8    23     1    1
     9     1     2   ar
    10     2     3   ar
    11     3     4   ar
    12     4     7    1
    13     7     8   ar
    14     8     9   ar
    15     9    10   ar
    16    10    11   ar
    17    11    19    1
    18    19    20    2
    19    19    21    1
    20    11    12   ar
    21    12    13    1
    22    13    14   ar
    23    14    15   ar
    24    15    16   ar
    25    16    17   ar
    26     4     5   ar
    27     5     6   ar
    28    26    31    1
    29    31    32    1
    30    32    33    2
    31    32    34    1
    32    31    36    1
    33    36    37    1
    34    36    38    1
    35     6     1   ar
    36    12     7   ar
    37    17    13   ar
    38    21    22    1
    39    17    18    1
    40    34    35    1
@<TRIPOS>MOLECULE
*****
 38 40 0 0 0
SMALL
GASTEIGER

@<TRIPOS>ATOM
      1 C         -21.3234   -9.7092  -12.9463 C.ar    1  UNL1       -0.0023
      2 C         -21.2338  -10.8949  -12.1991 C.ar    1  UNL1       -0.0026
      3 C         -20.5604  -10.9094  -10.9748 C.ar    1  UNL1       -0.0003
      4 C         -19.9575   -9.7415  -10.4843 C.ar    1  UNL1        0.0001
      5 C         -20.0482   -8.5554  -11.2296 C.ar    1  UNL1       -0.0003
      6 C         -20.7203   -8.5415  -12.4544 C.ar    1  UNL1       -0.0026
      7 C         -19.2630   -9.7559   -9.1755 C.ar    1  UNL1        0.0032
      8 C         -18.2477  -10.7032   -8.9789 C.ar    1  UNL1        0.0001
      9 C         -17.6124  -10.8150   -7.7464 C.ar    1  UNL1        0.0002
     10 C         -17.9642   -9.9699   -6.6976 C.ar    1  UNL1        0.0065
     11 C         -18.9523   -8.9847   -6.8665 C.ar    1  UNL1        0.0784
     12 C         -19.6271   -8.8831   -8.1149 C.ar    1  UNL1        0.0434
     13 C         -20.7135   -7.8955   -8.3137 C.ar    1  UNL1        0.1808
     14 N         -20.5235   -6.5823   -8.5418 N.ar    1  UNL1       -0.1083
     15 N         -21.7418   -6.0846   -8.7032 N.ar    1  UNL1       -0.0229
     16 N         -22.6439   -7.0481   -8.5871 N.ar    1  UNL1       -0.0464
     17 N         -22.0234   -8.1883   -8.3455 N.ar    1  UNL1       -0.2388
     18 H         -22.4843   -9.1175   -8.2273 H       1  UNL1        0.1923
     19 C         -19.2036   -8.0490   -5.7427 C.2     1  UNL1        0.3381
     20 O         -18.4837   -7.0234   -5.6023 O.2     1  UNL1       -0.2451
     21 O         -20.2603   -8.2633   -4.8620 O.3     1  UNL1       -0.4771
     22 H         -20.4422   -7.6204   -4.1006 H       1  UNL1        0.2954
     23 C         -22.0950   -9.6793  -14.2397 C.3     1  UNL1        0.1206
     24 C         -22.2086  -11.9619  -15.2427 C.2     1  UNL1        0.2262
     25 O         -21.8185  -11.6856  -16.4086 O.2     1  UNL1       -0.2749
     26 N         -22.8333  -10.9358  -14.4439 N.am    1  UNL1       -0.2673
     27 C         -21.8852  -13.3172  -14.6805 C.3     1  UNL1        0.0853
     28 C         -22.4080  -14.4182  -15.6125 C.3     1  UNL1        0.0096
     29 C         -24.8046  -15.0564  -16.2107 C.3     1  UNL1        0.0000
     30 C         -23.7312  -15.0256  -15.1233 C.3     1  UNL1        0.0005
     31 C         -24.1672  -11.1024  -13.8139 C.3     1  UNL1        0.1746
     32 C         -25.1935  -11.6018  -14.8131 C.2     1  UNL1        0.3320
     33 O         -26.1481  -12.3221  -14.4173 O.2     1  UNL1       -0.2485
     34 O         -25.1874  -11.1888  -16.1448 O.3     1  UNL1       -0.4790
     35 H         -24.5101  -10.5350  -16.5125 H       1  UNL1        0.2951
     36 C         -24.6131   -9.8636  -12.9682 C.3     1  UNL1        0.0292
     37 C         -25.8873   -9.2167  -13.5300 C.3     1  UNL1        0.0023
     38 C         -24.7700  -10.1292  -11.4612 C.3     1  UNL1        0.0023
@<TRIPOS>BOND
     1    29    30    1
     2    30    28    1
     3    28    27    1
     4    27    24    1
     5    24    25    2
     6    24    26   am
     7    26    23    1
     8    23     1    1
     9     1     2   ar
    10     2     3   ar
    11     3     4   ar
    12     4     7    1
    13     7     8   ar
    14     8     9   ar
    15     9    10   ar
    16    10    11   ar
    17    11    19    1
    18    19    20    2
    19    19    21    1
    20    11    12   ar
    21    12    13    1
    22    13    14   ar
    23    14    15   ar
    24    15    16   ar
    25    16    17   ar
    26     4     5   ar
    27     5     6   ar
    28    26    31    1
    29    31    32    1
    30    32    33    2
    31    32    34    1
    32    31    36    1
    33    36    37    1
    34    36    38    1
    35     6     1   ar
    36    12     7   ar
    37    17    13   ar
    38    21    22    1
    39    17    18    1
    40    34    35    1
@<TRIPOS>MOLECULE
*****
 38 40 0 0 0
SMALL
GASTEIGER

@<TRIPOS>ATOM
      1 C         -22.0271   -9.6485  -12.9067 C.ar    1  UNL1       -0.0023
      2 C         -22.0064  -10.7823  -12.0781 C.ar    1  UNL1       -0.0026
      3 C         -21.1900  -10.8142  -10.9445 C.ar    1  UNL1       -0.0003
      4 C         -20.3743   -9.7176  -10.6281 C.ar    1  UNL1        0.0001
      5 C         -20.3957   -8.5832  -11.4548 C.ar    1  UNL1       -0.0003
      6 C         -21.2109   -8.5520  -12.5889 C.ar    1  UNL1       -0.0026
      7 C         -19.5263   -9.7469   -9.4134 C.ar    1  UNL1        0.0032
      8 C         -18.5336  -10.7337   -9.3267 C.ar    1  UNL1        0.0001
      9 C         -17.7575  -10.8587   -8.1790 C.ar    1  UNL1        0.0002
     10 C         -17.9443   -9.9883   -7.1087 C.ar    1  UNL1        0.0065
     11 C         -18.9052   -8.9645   -7.1718 C.ar    1  UNL1        0.0784
     12 C         -19.7227   -8.8482   -8.3304 C.ar    1  UNL1        0.0434
     13 C         -20.7847   -7.8182   -8.4112 C.ar    1  UNL1        0.1808
     14 N         -20.5652   -6.5047   -8.6090 N.ar    1  UNL1       -0.1083
     15 N         -21.7735   -5.9610   -8.6588 N.ar    1  UNL1       -0.0229
     16 N         -22.6983   -6.8973   -8.5059 N.ar    1  UNL1       -0.0464
     17 N         -22.1030   -8.0657   -8.3515 N.ar    1  UNL1       -0.2388
     18 H         -22.5868   -8.9826   -8.2295 H       1  UNL1        0.1923
     19 C         -18.9796   -8.0071   -6.0407 C.2     1  UNL1        0.3381
     20 O         -18.1676   -7.0446   -5.9740 O.2     1  UNL1       -0.2451
     21 O         -19.9700   -8.1292   -5.0699 O.3     1  UNL1       -0.4771
     22 H         -20.0311   -7.4705   -4.3028 H       1  UNL1        0.2954
     23 C         -22.9467   -9.5916  -14.0984 C.3     1  UNL1        0.1206
     24 C         -24.3727  -11.6360  -13.9718 C.2     1  UNL1        0.2262
     25 O         -24.3899  -11.7883  -12.7210 O.2     1  UNL1       -0.2749
     26 N         -23.2658  -10.9432  -14.5849 N.am    1  UNL1       -0.2673
     27 C         -25.5756  -12.0653  -14.7632 C.3     1  UNL1        0.0853
     28 C         -26.0447  -13.4532  -14.3070 C.3     1  UNL1        0.0096
     29 C         -25.0898  -14.9836  -16.1111 C.3     1  UNL1        0.0000
     30 C         -25.0325  -14.5580  -14.6444 C.3     1  UNL1        0.0005
     31 C         -22.4573  -11.5263  -15.6850 C.3     1  UNL1        0.1746
     32 C         -23.0860  -11.2553  -17.0386 C.2     1  UNL1        0.3320
     33 O         -22.7836  -10.2059  -17.6662 O.2     1  UNL1       -0.2485
     34 O         -23.9000  -12.1921  -17.6741 O.3     1  UNL1       -0.4790
     35 H         -24.1082  -13.0971  -17.2752 H       1  UNL1        0.2951
     36 C         -22.0454  -13.0144  -15.4310 C.3     1  UNL1        0.0292
     37 C         -21.4735  -13.6729  -16.6948 C.3     1  UNL1        0.0023
     38 C         -21.0954  -13.2307  -14.2407 C.3     1  UNL1        0.0023
@<TRIPOS>BOND
     1    29    30    1
     2    30    28    1
     3    28    27    1
     4    27    24    1
     5    24    25    2
     6    24    26   am
     7    26    23    1
     8    23     1    1
     9     1     2   ar
    10     2     3   ar
    11     3     4   ar
    12     4     7    1
    13     7     8   ar
    14     8     9   ar
    15     9    10   ar
    16    10    11   ar
    17    11    19    1
    18    19    20    2
    19    19    21    1
    20    11    12   ar
    21    12    13    1
    22    13    14   ar
    23    14    15   ar
    24    15    16   ar
    25    16    17   ar
    26     4     5   ar
    27     5     6   ar
    28    26    31    1
    29    31    32    1
    30    32    33    2
    31    32    34    1
    32    31    36    1
    33    36    37    1
    34    36    38    1
    35     6     1   ar
    36    12     7   ar
    37    17    13   ar
    38    21    22    1
    39    17    18    1
    40    34    35    1
@<TRIPOS>MOLECULE
*****
 38 40 0 0 0
SMALL
GASTEIGER

@<TRIPOS>ATOM
      1 C         -21.6842   -9.3776  -13.1324 C.ar    1  UNL1       -0.0023
      2 C         -21.6918  -10.5888  -12.4216 C.ar    1  UNL1       -0.0026
      3 C         -20.9375  -10.7274  -11.2535 C.ar    1  UNL1       -0.0003
      4 C         -20.1562   -9.6609  -10.7844 C.ar    1  UNL1        0.0001
      5 C         -20.1495   -8.4492  -11.4932 C.ar    1  UNL1       -0.0003
      6 C         -20.9026   -8.3113  -12.6618 C.ar    1  UNL1       -0.0026
      7 C         -19.3747   -9.8048   -9.5337 C.ar    1  UNL1        0.0032
      8 C         -18.4012  -10.8126   -9.4775 C.ar    1  UNL1        0.0001
      9 C         -17.6894  -11.0451   -8.3052 C.ar    1  UNL1        0.0002
     10 C         -17.9215  -10.2624   -7.1776 C.ar    1  UNL1        0.0065
     11 C         -18.8641   -9.2201   -7.2056 C.ar    1  UNL1        0.0784
     12 C         -19.6169   -8.9947   -8.3916 C.ar    1  UNL1        0.0434
     13 C         -20.6593   -7.9431   -8.4420 C.ar    1  UNL1        0.1808
     14 N         -20.4139   -6.6263   -8.5784 N.ar    1  UNL1       -0.1083
     15 N         -21.6116   -6.0591   -8.6215 N.ar    1  UNL1       -0.0229
     16 N         -22.5549   -6.9842   -8.5233 N.ar    1  UNL1       -0.0464
     17 N         -21.9825   -8.1689   -8.4122 N.ar    1  UNL1       -0.2388
     18 H         -22.4841   -9.0814   -8.3378 H       1  UNL1        0.1923
     19 C         -18.9861   -8.3576   -6.0044 C.2     1  UNL1        0.3381
     20 O         -19.2771   -8.8673   -4.8884 O.2     1  UNL1       -0.2451
     21 O         -18.7356   -6.9904   -6.0826 O.3     1  UNL1       -0.4771
     22 H         -18.8063   -6.4003   -5.2623 H       1  UNL1        0.2954
     23 C         -22.5388   -9.2092  -14.3614 C.3     1  UNL1        0.1206
     24 C         -24.4487  -10.8048  -14.5498 C.2     1  UNL1        0.2262
     25 O         -24.3459  -11.0933  -15.7721 O.2     1  UNL1       -0.2749
     26 N         -23.9445   -9.5386  -14.0770 N.am    1  UNL1       -0.2673
     27 C         -24.9726  -11.8512  -13.6075 C.3     1  UNL1        0.0853
     28 C         -25.7204  -12.9416  -14.3861 C.3     1  UNL1        0.0096
     29 C         -24.8488  -14.8114  -15.8872 C.3     1  UNL1        0.0000
     30 C         -24.9303  -14.2563  -14.4656 C.3     1  UNL1        0.0005
     31 C         -24.7730   -8.5748  -13.3098 C.3     1  UNL1        0.1746
     32 C         -25.1514   -7.3735  -14.1553 C.2     1  UNL1        0.3320
     33 O         -24.3573   -6.9618  -15.0421 O.2     1  UNL1       -0.2485
     34 O         -26.4092   -6.7781  -14.0689 O.3     1  UNL1       -0.4790
     35 H         -27.1334   -7.1150  -13.4496 H       1  UNL1        0.2951
     36 C         -24.1844   -8.2348  -11.9003 C.3     1  UNL1        0.0292
     37 C         -24.1213   -6.7199  -11.6574 C.3     1  UNL1        0.0023
     38 C         -24.8797   -8.9354  -10.7205 C.3     1  UNL1        0.0023
@<TRIPOS>BOND
     1    29    30    1
     2    30    28    1
     3    28    27    1
     4    27    24    1
     5    24    25    2
     6    24    26   am
     7    26    23    1
     8    23     1    1
     9     1     2   ar
    10     2     3   ar
    11     3     4   ar
    12     4     7    1
    13     7     8   ar
    14     8     9   ar
    15     9    10   ar
    16    10    11   ar
    17    11    19    1
    18    19    20    2
    19    19    21    1
    20    11    12   ar
    21    12    13    1
    22    13    14   ar
    23    14    15   ar
    24    15    16   ar
    25    16    17   ar
    26     4     5   ar
    27     5     6   ar
    28    26    31    1
    29    31    32    1
    30    32    33    2
    31    32    34    1
    32    31    36    1
    33    36    37    1
    34    36    38    1
    35     6     1   ar
    36    12     7   ar
    37    17    13   ar
    38    21    22    1
    39    17    18    1
    40    34    35    1
@<TRIPOS>MOLECULE
*****
 38 40 0 0 0
SMALL
GASTEIGER

@<TRIPOS>ATOM
      1 C         -21.7205   -9.4262  -13.1037 C.ar    1  UNL1       -0.0023
      2 C         -21.6307  -10.6628  -12.4442 C.ar    1  UNL1       -0.0026
      3 C         -20.8668  -10.7895  -11.2810 C.ar    1  UNL1       -0.0003
      4 C         -20.1727   -9.6846  -10.7657 C.ar    1  UNL1        0.0001
      5 C         -20.2634   -8.4476  -11.4233 C.ar    1  UNL1       -0.0003
      6 C         -21.0260   -8.3215  -12.5870 C.ar    1  UNL1       -0.0026
      7 C         -19.3812   -9.8179   -9.5202 C.ar    1  UNL1        0.0032
      8 C         -18.4100  -10.8279   -9.4618 C.ar    1  UNL1        0.0001
      9 C         -17.6890  -11.0504   -8.2932 C.ar    1  UNL1        0.0002
     10 C         -17.9096  -10.2555   -7.1717 C.ar    1  UNL1        0.0065
     11 C         -18.8495   -9.2110   -7.2025 C.ar    1  UNL1        0.0784
     12 C         -19.6116   -8.9956   -8.3845 C.ar    1  UNL1        0.0434
     13 C         -20.6516   -7.9416   -8.4369 C.ar    1  UNL1        0.1808
     14 N         -20.4032   -6.6258   -8.5773 N.ar    1  UNL1       -0.1083
     15 N         -21.5995   -6.0559   -8.6209 N.ar    1  UNL1       -0.0229
     16 N         -22.5449   -6.9785   -8.5192 N.ar    1  UNL1       -0.0464
     17 N         -21.9753   -8.1642   -8.4053 N.ar    1  UNL1       -0.2388
     18 H         -22.4790   -9.0753   -8.3278 H       1  UNL1        0.1923
     19 C         -18.9591   -8.3359   -6.0093 C.2     1  UNL1        0.3381
     20 O         -19.2831   -8.8271   -4.8941 O.2     1  UNL1       -0.2451
     21 O         -18.6611   -6.9786   -6.0933 O.3     1  UNL1       -0.4771
     22 H         -18.7233   -6.3804   -5.2782 H       1  UNL1        0.2954
     23 C         -22.5868   -9.2752  -14.3267 C.3     1  UNL1        0.1206
     24 C         -24.8114   -9.2490  -13.1954 C.2     1  UNL1        0.2262
     25 O         -24.4311   -9.0205  -12.0160 O.2     1  UNL1       -0.2749
     26 N         -23.9072   -9.8906  -14.1184 N.am    1  UNL1       -0.2673
     27 C         -26.1483   -8.7211  -13.6330 C.3     1  UNL1        0.0853
     28 C         -26.5451   -7.5073  -12.7823 C.3     1  UNL1        0.0096
     29 C         -26.9669   -5.5385  -14.3490 C.3     1  UNL1        0.0000
     30 C         -26.0067   -6.1866  -13.3523 C.3     1  UNL1        0.0005
     31 C         -24.2586  -11.1219  -14.8696 C.3     1  UNL1        0.1746
     32 C         -24.9189  -12.1499  -13.9707 C.2     1  UNL1        0.3320
     33 O         -24.4895  -12.3192  -12.7986 O.2     1  UNL1       -0.2485
     34 O         -26.0713  -12.8341  -14.3557 O.3     1  UNL1       -0.4790
     35 H         -26.5296  -12.6791  -15.2430 H       1  UNL1        0.2951
     36 C         -23.0861  -11.6671  -15.7509 C.3     1  UNL1        0.0292
     37 C         -22.6444  -13.0701  -15.3103 C.3     1  UNL1        0.0023
     38 C         -23.3477  -11.6420  -17.2666 C.3     1  UNL1        0.0023
@<TRIPOS>BOND
     1    29    30    1
     2    30    28    1
     3    28    27    1
     4    27    24    1
     5    24    25    2
     6    24    26   am
     7    26    23    1
     8    23     1    1
     9     1     2   ar
    10     2     3   ar
    11     3     4   ar
    12     4     7    1
    13     7     8   ar
    14     8     9   ar
    15     9    10   ar
    16    10    11   ar
    17    11    19    1
    18    19    20    2
    19    19    21    1
    20    11    12   ar
    21    12    13    1
    22    13    14   ar
    23    14    15   ar
    24    15    16   ar
    25    16    17   ar
    26     4     5   ar
    27     5     6   ar
    28    26    31    1
    29    31    32    1
    30    32    33    2
    31    32    34    1
    32    31    36    1
    33    36    37    1
    34    36    38    1
    35     6     1   ar
    36    12     7   ar
    37    17    13   ar
    38    21    22    1
    39    17    18    1
    40    34    35    1
@<TRIPOS>MOLECULE
*****
 38 40 0 0 0
SMALL
GASTEIGER

@<TRIPOS>ATOM
      1 C         -25.9060   -6.9830  -12.8161 C.ar    1  UNL1       -0.0023
      2 C         -27.0155   -7.6334  -13.3803 C.ar    1  UNL1       -0.0026
      3 C         -27.9741   -6.9069  -14.0917 C.ar    1  UNL1       -0.0003
      4 C         -27.8434   -5.5181  -14.2405 C.ar    1  UNL1        0.0001
      5 C         -26.7337   -4.8674  -13.6785 C.ar    1  UNL1       -0.0003
      6 C         -25.7762   -5.5937  -12.9661 C.ar    1  UNL1       -0.0026
      7 C         -28.8507   -4.7546  -15.0138 C.ar    1  UNL1        0.0032
      8 C         -30.1910   -4.8344  -14.6090 C.ar    1  UNL1        0.0001
      9 C         -31.1907   -4.2014  -15.3405 C.ar    1  UNL1        0.0002
     10 C         -30.8673   -3.4611  -16.4742 C.ar    1  UNL1        0.0065
     11 C         -29.5317   -3.3288  -16.8916 C.ar    1  UNL1        0.0784
     12 C         -28.5066   -3.9970  -16.1657 C.ar    1  UNL1        0.0434
     13 C         -27.0940   -3.9283  -16.6073 C.ar    1  UNL1        0.1808
     14 N         -26.2568   -2.9076  -16.3425 N.ar    1  UNL1       -0.1083
     15 N         -25.0982   -3.2701  -16.8756 N.ar    1  UNL1       -0.0229
     16 N         -25.2122   -4.4641  -17.4384 N.ar    1  UNL1       -0.0464
     17 N         -26.4504   -4.8950  -17.2810 N.ar    1  UNL1       -0.2388
     18 H         -26.8197   -5.8149  -17.6081 H       1  UNL1        0.1923
     19 C         -29.2462   -2.4399  -18.0448 C.2     1  UNL1        0.3381
     20 O         -30.1226   -1.6279  -18.4480 O.2     1  UNL1       -0.2451
     21 O         -27.9988   -2.4558  -18.6628 O.3     1  UNL1       -0.4771
     22 H         -27.7963   -1.8420  -19.4428 H       1  UNL1        0.2954
     23 C         -24.8443   -7.7722  -12.0957 C.3     1  UNL1        0.1206
     24 C         -23.6279   -8.5709  -14.1234 C.2     1  UNL1        0.2262
     25 O         -24.0026   -9.7740  -14.1181 O.2     1  UNL1       -0.2749
     26 N         -23.6035   -7.8321  -12.8846 N.am    1  UNL1       -0.2673
     27 C         -23.3488   -7.9124  -15.4447 C.3     1  UNL1        0.0853
     28 C         -22.8514   -8.9489  -16.4610 C.3     1  UNL1        0.0096
     29 C         -20.4235   -8.1659  -16.4304 C.3     1  UNL1        0.0000
     30 C         -21.3832   -9.3390  -16.2347 C.3     1  UNL1        0.0005
     31 C         -22.3960   -7.1247  -12.3893 C.3     1  UNL1        0.1746
     32 C         -21.1852   -8.0383  -12.3754 C.2     1  UNL1        0.3320
     33 O         -21.3294   -9.2584  -12.0973 O.2     1  UNL1       -0.2485
     34 O         -19.9257   -7.5993  -12.7817 O.3     1  UNL1       -0.4790
     35 H         -19.7532   -6.6596  -13.1115 H       1  UNL1        0.2951
     36 C         -22.6422   -6.3297  -11.0642 C.3     1  UNL1        0.0292
     37 C         -21.7756   -6.8573   -9.9116 C.3     1  UNL1        0.0023
     38 C         -22.4952   -4.8034  -11.1863 C.3     1  UNL1        0.0023
@<TRIPOS>BOND
     1    29    30    1
     2    30    28    1
     3    28    27    1
     4    27    24    1
     5    24    25    2
     6    24    26   am
     7    26    23    1
     8    23     1    1
     9     1     2   ar
    10     2     3   ar
    11     3     4   ar
    12     4     7    1
    13     7     8   ar
    14     8     9   ar
    15     9    10   ar
    16    10    11   ar
    17    11    19    1
    18    19    20    2
    19    19    21    1
    20    11    12   ar
    21    12    13    1
    22    13    14   ar
    23    14    15   ar
    24    15    16   ar
    25    16    17   ar
    26     4     5   ar
    27     5     6   ar
    28    26    31    1
    29    31    32    1
    30    32    33    2
    31    32    34    1
    32    31    36    1
    33    36    37    1
    34    36    38    1
    35     6     1   ar
    36    12     7   ar
    37    17    13   ar
    38    21    22    1
    39    17    18    1
    40    34    35    1
@<TRIPOS>MOLECULE
*****
 38 40 0 0 0
SMALL
GASTEIGER

@<TRIPOS>ATOM
      1 C         -20.0019   -9.3443  -10.9061 C.ar    1  UNL1       -0.0023
      2 C         -20.6519   -8.9501  -12.0869 C.ar    1  UNL1       -0.0026
      3 C         -21.3113   -9.8934  -12.8792 C.ar    1  UNL1       -0.0003
      4 C         -21.3216  -11.2464  -12.5087 C.ar    1  UNL1        0.0001
      5 C         -20.6737  -11.6411  -11.3275 C.ar    1  UNL1       -0.0003
      6 C         -20.0133  -10.6980  -10.5362 C.ar    1  UNL1       -0.0026
      7 C         -22.0402  -12.2403  -13.3403 C.ar    1  UNL1        0.0032
      8 C         -21.2889  -13.2554  -13.9499 C.ar    1  UNL1        0.0001
      9 C         -21.8965  -14.1713  -14.8027 C.ar    1  UNL1        0.0002
     10 C         -23.2658  -14.1027  -15.0437 C.ar    1  UNL1        0.0065
     11 C         -24.0583  -13.1213  -14.4237 C.ar    1  UNL1        0.0784
     12 C         -23.4398  -12.1630  -13.5731 C.ar    1  UNL1        0.0434
     13 C         -24.2321  -11.0790  -12.9468 C.ar    1  UNL1        0.1808
     14 N         -24.4276  -10.9396  -11.6219 N.ar    1  UNL1       -0.1083
     15 N         -25.1437   -9.8306  -11.4980 N.ar    1  UNL1       -0.0229
     16 N         -25.3744   -9.3044  -12.6918 N.ar    1  UNL1       -0.0464
     17 N         -24.8123  -10.0670  -13.6115 N.ar    1  UNL1       -0.2388
     18 H         -24.8179   -9.8837  -14.6392 H       1  UNL1        0.1923
     19 C         -25.5253  -13.1701  -14.6404 C.2     1  UNL1        0.3381
     20 O         -26.1236  -12.1765  -15.1352 O.2     1  UNL1       -0.2451
     21 O         -26.2492  -14.3226  -14.3474 O.3     1  UNL1       -0.4771
     22 H         -27.2490  -14.3637  -14.5051 H       1  UNL1        0.2954
     23 C         -19.3372   -8.3207  -10.0232 C.3     1  UNL1        0.1206
     24 C         -19.4008   -8.7036   -7.5577 C.2     1  UNL1        0.2262
     25 O         -19.0219   -9.9052   -7.5341 O.2     1  UNL1       -0.2749
     26 N         -20.0464   -8.1886   -8.7405 N.am    1  UNL1       -0.2673
     27 C         -19.0432   -7.8159   -6.3995 C.3     1  UNL1        0.0853
     28 C         -18.6764   -8.6628   -5.1737 C.3     1  UNL1        0.0096
     29 C         -16.6421   -7.1271   -5.0636 C.3     1  UNL1        0.0000
     30 C         -17.1982   -8.5222   -4.7809 C.3     1  UNL1        0.0005
     31 C         -21.3734   -7.5238   -8.7122 C.3     1  UNL1        0.1746
     32 C         -22.4799   -8.5089   -8.3862 C.2     1  UNL1        0.3320
     33 O         -22.4473   -9.6671   -8.8802 O.2     1  UNL1       -0.2485
     34 O         -23.4757   -8.2173   -7.4547 O.3     1  UNL1       -0.4790
     35 H         -23.5107   -7.3451   -6.9453 H       1  UNL1        0.2951
     36 C         -21.6396   -6.6161   -9.9587 C.3     1  UNL1        0.0292
     37 C         -22.9929   -6.9276  -10.6141 C.3     1  UNL1        0.0023
     38 C         -21.5070   -5.1053   -9.7016 C.3     1  UNL1        0.0023
@<TRIPOS>BOND
     1    29    30    1
     2    30    28    1
     3    28    27    1
     4    27    24    1
     5    24    25    2
     6    24    26   am
     7    26    23    1
     8    23     1    1
     9     1     2   ar
    10     2     3   ar
    11     3     4   ar
    12     4     7    1
    13     7     8   ar
    14     8     9   ar
    15     9    10   ar
    16    10    11   ar
    17    11    19    1
    18    19    20    2
    19    19    21    1
    20    11    12   ar
    21    12    13    1
    22    13    14   ar
    23    14    15   ar
    24    15    16   ar
    25    16    17   ar
    26     4     5   ar
    27     5     6   ar
    28    26    31    1
    29    31    32    1
    30    32    33    2
    31    32    34    1
    32    31    36    1
    33    36    37    1
    34    36    38    1
    35     6     1   ar
    36    12     7   ar
    37    17    13   ar
    38    21    22    1
    39    17    18    1
    40    34    35    1
@<TRIPOS>MOLECULE
*****
 38 40 0 0 0
SMALL
GASTEIGER

@<TRIPOS>ATOM
      1 C         -23.7472  -11.9334  -12.7061 C.ar    1  UNL1       -0.0023
      2 C         -22.3434  -11.8983  -12.7244 C.ar    1  UNL1       -0.0026
      3 C         -21.6501  -10.9565  -11.9595 C.ar    1  UNL1       -0.0003
      4 C         -22.3499  -10.0291  -11.1733 C.ar    1  UNL1        0.0001
      5 C         -23.7531  -10.0647  -11.1529 C.ar    1  UNL1       -0.0003
      6 C         -24.4461  -11.0054  -11.9188 C.ar    1  UNL1       -0.0026
      7 C         -21.6106   -9.0461  -10.3470 C.ar    1  UNL1        0.0032
      8 C         -20.6010   -9.5248   -9.4996 C.ar    1  UNL1        0.0001
      9 C         -19.9247   -8.6604   -8.6449 C.ar    1  UNL1        0.0002
     10 C         -20.2294   -7.3020   -8.6373 C.ar    1  UNL1        0.0065
     11 C         -21.2106   -6.7789   -9.4972 C.ar    1  UNL1        0.0784
     12 C         -21.9269   -7.6608  -10.3535 C.ar    1  UNL1        0.0434
     13 C         -23.0073   -7.1559  -11.2327 C.ar    1  UNL1        0.1808
     14 N         -24.2601   -6.8781  -10.8254 N.ar    1  UNL1       -0.1083
     15 N         -24.8753   -6.4170  -11.9057 N.ar    1  UNL1       -0.0229
     16 N         -24.0384   -6.4038  -12.9327 N.ar    1  UNL1       -0.0464
     17 N         -22.8649   -6.8595  -12.5344 N.ar    1  UNL1       -0.2388
     18 H         -22.0114   -6.9424  -13.1298 H       1  UNL1        0.1923
     19 C         -21.4111   -5.3088   -9.5140 C.2     1  UNL1        0.3381
     20 O         -21.8929   -4.7260   -8.5050 O.2     1  UNL1       -0.2451
     21 O         -21.0282   -4.5518  -10.6178 O.3     1  UNL1       -0.4771
     22 H         -21.1526   -3.5465  -10.6283 H       1  UNL1        0.2954
     23 C         -24.4941  -12.9824  -13.4877 C.3     1  UNL1        0.1206
     24 C         -24.6154  -11.4229  -15.4325 C.2     1  UNL1        0.2262
     25 O         -25.7107  -10.8595  -15.1665 O.2     1  UNL1       -0.2749
     26 N         -24.3657  -12.7540  -14.9357 N.am    1  UNL1       -0.2673
     27 C         -23.5561  -10.6311  -16.1454 C.3     1  UNL1        0.0853
     28 C         -23.2621   -9.3309  -15.3855 C.3     1  UNL1        0.0096
     29 C         -21.1946   -8.1231  -16.2661 C.3     1  UNL1        0.0000
     30 C         -21.7574   -9.0765  -15.2125 C.3     1  UNL1        0.0005
     31 C         -23.9726  -13.8839  -15.8148 C.3     1  UNL1        0.1746
     32 C         -25.1304  -14.8370  -16.0433 C.2     1  UNL1        0.3320
     33 O         -26.0755  -14.8787  -15.2116 O.2     1  UNL1       -0.2485
     34 O         -25.2477  -15.5873  -17.2126 O.3     1  UNL1       -0.4790
     35 H         -24.5784  -15.5328  -17.9679 H       1  UNL1        0.2951
     36 C         -22.6286  -14.5630  -15.3891 C.3     1  UNL1        0.0292
     37 C         -22.5060  -15.9879  -15.9480 C.3     1  UNL1        0.0023
     38 C         -21.3615  -13.7529  -15.7118 C.3     1  UNL1        0.0023
@<TRIPOS>BOND
     1    29    30    1
     2    30    28    1
     3    28    27    1
     4    27    24    1
     5    24    25    2
     6    24    26   am
     7    26    23    1
     8    23     1    1
     9     1     2   ar
    10     2     3   ar
    11     3     4   ar
    12     4     7    1
    13     7     8   ar
    14     8     9   ar
    15     9    10   ar
    16    10    11   ar
    17    11    19    1
    18    19    20    2
    19    19    21    1
    20    11    12   ar
    21    12    13    1
    22    13    14   ar
    23    14    15   ar
    24    15    16   ar
    25    16    17   ar
    26     4     5   ar
    27     5     6   ar
    28    26    31    1
    29    31    32    1
    30    32    33    2
    31    32    34    1
    32    31    36    1
    33    36    37    1
    34    36    38    1
    35     6     1   ar
    36    12     7   ar
    37    17    13   ar
    38    21    22    1
    39    17    18    1
    40    34    35    1
@<TRIPOS>MOLECULE
*****
 38 40 0 0 0
SMALL
GASTEIGER

@<TRIPOS>ATOM
      1 C         -27.1089   -6.7055  -13.1459 C.ar    1  UNL1       -0.0023
      2 C         -26.5559   -5.4327  -13.3613 C.ar    1  UNL1       -0.0026
      3 C         -27.1278   -4.5622  -14.2929 C.ar    1  UNL1       -0.0003
      4 C         -28.2545   -4.9551  -15.0306 C.ar    1  UNL1        0.0001
      5 C         -28.8091   -6.2265  -14.8146 C.ar    1  UNL1       -0.0003
      6 C         -28.2363   -7.0972  -13.8842 C.ar    1  UNL1       -0.0026
      7 C         -28.8707   -4.0211  -16.0019 C.ar    1  UNL1        0.0032
      8 C         -30.1561   -3.5344  -15.7233 C.ar    1  UNL1        0.0001
      9 C         -30.8160   -2.7153  -16.6336 C.ar    1  UNL1        0.0002
     10 C         -30.1963   -2.3510  -17.8258 C.ar    1  UNL1        0.0065
     11 C         -28.8950   -2.7901  -18.1248 C.ar    1  UNL1        0.0784
     12 C         -28.2246   -3.6516  -17.2123 C.ar    1  UNL1        0.0434
     13 C         -26.8752   -4.1812  -17.5184 C.ar    1  UNL1        0.1808
     14 N         -25.7512   -3.8433  -16.8587 N.ar    1  UNL1       -0.1083
     15 N         -24.7952   -4.5715  -17.4188 N.ar    1  UNL1       -0.0229
     16 N         -25.3064   -5.3306  -18.3769 N.ar    1  UNL1       -0.0464
     17 N         -26.6049   -5.1043  -18.4551 N.ar    1  UNL1       -0.2388
     18 H         -27.2656   -5.5777  -19.1102 H       1  UNL1        0.1923
     19 C         -28.2535   -2.2793  -19.3614 C.2     1  UNL1        0.3381
     20 O         -27.2196   -2.8412  -19.8145 O.2     1  UNL1       -0.2451
     21 O         -28.8076   -1.2103  -20.0602 O.3     1  UNL1       -0.4771
     22 H         -28.3792   -0.8664  -20.9113 H       1  UNL1        0.2954
     23 C         -26.5262   -7.6238  -12.1036 C.3     1  UNL1        0.1206
     24 C         -24.7072   -8.4519  -13.5986 C.2     1  UNL1        0.2262
     25 O         -25.2181   -9.5515  -13.9417 O.2     1  UNL1       -0.2749
     26 N         -25.0927   -7.8537  -12.3437 N.am    1  UNL1       -0.2673
     27 C         -23.8154   -7.7395  -14.5755 C.3     1  UNL1        0.0853
     28 C         -22.7511   -8.7001  -15.1224 C.3     1  UNL1        0.0096
     29 C         -20.6201   -8.2048  -16.4348 C.3     1  UNL1        0.0000
     30 C         -22.1482   -8.2179  -16.4502 C.3     1  UNL1        0.0005
     31 C         -24.1110   -7.4506  -11.3055 C.3     1  UNL1        0.1746
     32 C         -23.3270   -6.2237  -11.7309 C.2     1  UNL1        0.3320
     33 O         -23.7926   -5.0764  -11.4993 O.2     1  UNL1       -0.2485
     34 O         -22.0420   -6.3183  -12.2640 O.3     1  UNL1       -0.4790
     35 H         -21.5642   -7.2002  -12.3884 H       1  UNL1        0.2951
     36 C         -23.2443   -8.6407  -10.7755 C.3     1  UNL1        0.0292
     37 C         -22.3181   -8.2075   -9.6299 C.3     1  UNL1        0.0023
     38 C         -24.0400   -9.8941  -10.3727 C.3     1  UNL1        0.0023
@<TRIPOS>BOND
     1    29    30    1
     2    30    28    1
     3    28    27    1
     4    27    24    1
     5    24    25    2
     6    24    26   am
     7    26    23    1
     8    23     1    1
     9     1     2   ar
    10     2     3   ar
    11     3     4   ar
    12     4     7    1
    13     7     8   ar
    14     8     9   ar
    15     9    10   ar
    16    10    11   ar
    17    11    19    1
    18    19    20    2
    19    19    21    1
    20    11    12   ar
    21    12    13    1
    22    13    14   ar
    23    14    15   ar
    24    15    16   ar
    25    16    17   ar
    26     4     5   ar
    27     5     6   ar
    28    26    31    1
    29    31    32    1
    30    32    33    2
    31    32    34    1
    32    31    36    1
    33    36    37    1
    34    36    38    1
    35     6     1   ar
    36    12     7   ar
    37    17    13   ar
    38    21    22    1
    39    17    18    1
    40    34    35    1
