@<TRIPOS>MOLECULE
*****
 40 44 0 0 0
SMALL
GASTEIGER

@<TRIPOS>ATOM
      1 C         -31.4860   49.6761   -8.8747 C.3     1  UNL1        0.1333
      2 N         -30.1168   49.6922   -8.3590 N.ar    1  UNL1       -0.2950
      3 C         -29.6623   49.2666   -7.1478 C.ar    1  UNL1        0.2019
      4 N         -28.3149   49.3472   -7.0124 N.ar    1  UNL1       -0.2129
      5 C         -27.9226   49.8747   -8.1871 C.ar    1  UNL1        0.1094
      6 C         -26.6211   50.2040   -8.5722 C.ar    1  UNL1        0.0612
      7 BR        -25.1800   49.9610   -7.3253 Br      1  UNL1       -0.0471
      8 C         -26.4339   50.7726   -9.8600 C.ar    1  UNL1        0.0983
      9 C         -27.5592   51.0071  -10.6932 C.ar    1  UNL1        0.1787
     10 C         -28.8589   50.6874  -10.2528 C.ar    1  UNL1        0.1897
     11 C         -29.0014   50.0947   -8.9966 C.ar    1  UNL1        0.1178
     12 O         -29.9524   50.9802  -11.0735 O.3     1  UNL1       -0.4669
     13 C         -29.8098   51.8229  -12.2187 C.3     1  UNL1        0.2527
     14 C         -28.4766   51.5396  -12.9212 C.3     1  UNL1        0.2526
     15 O         -27.4061   51.5542  -11.9738 O.3     1  UNL1       -0.4682
     16 C         -25.0886   51.1273  -10.3497 C.2     1  UNL1        0.2531
     17 O         -24.6442   50.5597  -11.3840 O.2     1  UNL1       -0.2697
     18 N         -24.2972   52.1043   -9.6528 N.am    1  UNL1       -0.2803
     19 H         -24.7434   52.6350   -8.8710 H       1  UNL1        0.1552
     20 C         -22.9561   52.4649  -10.0226 C.ar    1  UNL1        0.0506
     21 C         -22.7148   52.9810  -11.3022 C.ar    1  UNL1        0.0170
     22 C         -21.4270   53.3664  -11.6772 C.ar    1  UNL1        0.0309
     23 C         -20.3666   53.2509  -10.7751 C.ar    1  UNL1        0.1441
     24 F         -19.1270   53.6479  -11.1602 F       1  UNL1       -0.2042
     25 C         -20.5875   52.7451   -9.4804 C.ar    1  UNL1        0.1000
     26 C         -21.8933   52.3733   -9.1058 C.ar    1  UNL1        0.0208
     27 C         -19.4414   52.6651   -8.4998 C.3     1  UNL1        0.4207
     28 F         -18.8156   53.8901   -8.3437 F       1  UNL1       -0.1658
     29 F         -18.5130   51.7475   -8.9556 F       1  UNL1       -0.1658
     30 F         -19.9100   52.2579   -7.2634 F       1  UNL1       -0.1658
     31 N         -30.4998   48.7716   -6.0942 N.pl3   1  UNL1       -0.2814
     32 H         -30.7521   47.7582   -6.1170 H       1  UNL1        0.1551
     33 C         -30.8714   49.5407   -4.9370 C.ar    1  UNL1        0.0889
     34 C         -31.0803   50.9327   -5.0277 C.ar    1  UNL1        0.1543
     35 F         -30.9136   51.5872   -6.2045 F       1  UNL1       -0.2028
     36 C         -31.4337   51.6667   -3.8916 C.ar    1  UNL1        0.0310
     37 C         -31.5709   51.0290   -2.6579 C.ar    1  UNL1        0.0033
     38 C         -31.3495   49.6546   -2.5532 C.ar    1  UNL1        0.0128
     39 C         -30.9952   48.9087   -3.6833 C.ar    1  UNL1        0.0733
     40 CL        -30.7533   47.1753   -3.5094 Cl      1  UNL1       -0.0809
@<TRIPOS>BOND
     1     1     2    1
     2     2     3   ar
     3     3    31    1
     4    31    33    1
     5    33    34   ar
     6    34    35    1
     7    34    36   ar
     8    36    37   ar
     9    37    38   ar
    10    38    39   ar
    11    39    40    1
    12     3     4   ar
    13     4     5   ar
    14     5     6   ar
    15     6     7    1
    16     6     8   ar
    17     8    16    1
    18    16    17    2
    19    16    18   am
    20    18    20    1
    21    20    21   ar
    22    21    22   ar
    23    22    23   ar
    24    23    24    1
    25    23    25   ar
    26    25    27    1
    27    27    28    1
    28    27    29    1
    29    27    30    1
    30    25    26   ar
    31     8     9   ar
    32     9    10   ar
    33    10    11   ar
    34    10    12    1
    35    12    13    1
    36    13    14    1
    37    14    15    1
    38    11     2   ar
    39    39    33   ar
    40    11     5   ar
    41    26    20   ar
    42    15     9    1
    43    31    32    1
    44    18    19    1
@<TRIPOS>MOLECULE
*****
 40 44 0 0 0
SMALL
GASTEIGER

@<TRIPOS>ATOM
      1 C         -31.4961   49.7669   -8.5074 C.3     1  UNL1        0.1333
      2 N         -30.1010   49.7163   -8.0690 N.ar    1  UNL1       -0.2950
      3 C         -29.5957   49.2204   -6.9057 C.ar    1  UNL1        0.2019
      4 N         -28.2409   49.2527   -6.8424 N.ar    1  UNL1       -0.2129
      5 C         -27.8958   49.8223   -8.0123 C.ar    1  UNL1        0.1094
      6 C         -26.6069   50.1289   -8.4545 C.ar    1  UNL1        0.0612
      7 BR        -25.1089   49.7830   -7.3026 Br      1  UNL1       -0.0471
      8 C         -26.4713   50.7513   -9.7237 C.ar    1  UNL1        0.0983
      9 C         -27.6319   51.0595  -10.4810 C.ar    1  UNL1        0.1787
     10 C         -28.9156   50.7599   -9.9834 C.ar    1  UNL1        0.1897
     11 C         -29.0092   50.1135   -8.7493 C.ar    1  UNL1        0.1178
     12 O         -30.0418   51.1247  -10.7275 O.3     1  UNL1       -0.4669
     13 C         -29.9337   52.0154  -11.8395 C.3     1  UNL1        0.2527
     14 C         -28.6511   51.7243  -12.6277 C.3     1  UNL1        0.2526
     15 O         -27.5306   51.6611  -11.7422 O.3     1  UNL1       -0.4682
     16 C         -25.1436   51.0867  -10.2715 C.2     1  UNL1        0.2531
     17 O         -24.7330   50.4791  -11.2969 O.2     1  UNL1       -0.2697
     18 N         -24.3309   52.0906   -9.6402 N.am    1  UNL1       -0.2803
     19 H         -24.7516   52.6514   -8.8655 H       1  UNL1        0.1552
     20 C         -23.0034   52.4366  -10.0684 C.ar    1  UNL1        0.0506
     21 C         -22.8252   53.0528  -11.3135 C.ar    1  UNL1        0.0170
     22 C         -21.5502   53.4258  -11.7411 C.ar    1  UNL1        0.0309
     23 C         -20.4391   53.1974  -10.9258 C.ar    1  UNL1        0.1441
     24 F         -19.2123   53.5844  -11.3592 F       1  UNL1       -0.2042
     25 C         -20.5955   52.5894   -9.6661 C.ar    1  UNL1        0.1000
     26 C         -21.8880   52.2306   -9.2366 C.ar    1  UNL1        0.0208
     27 C         -19.3925   52.3866   -8.7756 C.3     1  UNL1        0.4207
     28 F         -18.4564   51.5526   -9.3627 F       1  UNL1       -0.1658
     29 F         -19.7988   51.8250   -7.5792 F       1  UNL1       -0.1658
     30 F         -18.7875   53.6045   -8.5207 F       1  UNL1       -0.1658
     31 N         -30.3906   48.7026   -5.8302 N.pl3   1  UNL1       -0.2814
     32 H         -31.4002   48.5185   -6.0245 H       1  UNL1        0.1551
     33 C         -29.8502   48.2743   -4.5679 C.ar    1  UNL1        0.0889
     34 C         -29.0361   47.1257   -4.4797 C.ar    1  UNL1        0.1543
     35 F         -28.7600   46.3810   -5.5798 F       1  UNL1       -0.2028
     36 C         -28.5251   46.7188   -3.2438 C.ar    1  UNL1        0.0310
     37 C         -28.8263   47.4395   -2.0873 C.ar    1  UNL1        0.0033
     38 C         -29.6453   48.5677   -2.1605 C.ar    1  UNL1        0.0128
     39 C         -30.1631   48.9853   -3.3920 C.ar    1  UNL1        0.0733
     40 CL        -31.1676   50.4283   -3.4402 Cl      1  UNL1       -0.0809
@<TRIPOS>BOND
     1     1     2    1
     2     2     3   ar
     3     3    31    1
     4    31    33    1
     5    33    34   ar
     6    34    35    1
     7    34    36   ar
     8    36    37   ar
     9    37    38   ar
    10    38    39   ar
    11    39    40    1
    12     3     4   ar
    13     4     5   ar
    14     5     6   ar
    15     6     7    1
    16     6     8   ar
    17     8    16    1
    18    16    17    2
    19    16    18   am
    20    18    20    1
    21    20    21   ar
    22    21    22   ar
    23    22    23   ar
    24    23    24    1
    25    23    25   ar
    26    25    27    1
    27    27    28    1
    28    27    29    1
    29    27    30    1
    30    25    26   ar
    31     8     9   ar
    32     9    10   ar
    33    10    11   ar
    34    10    12    1
    35    12    13    1
    36    13    14    1
    37    14    15    1
    38    11     2   ar
    39    39    33   ar
    40    11     5   ar
    41    26    20   ar
    42    15     9    1
    43    31    32    1
    44    18    19    1
@<TRIPOS>MOLECULE
*****
 40 44 0 0 0
SMALL
GASTEIGER

@<TRIPOS>ATOM
      1 C         -31.5841   47.1721  -14.6374 C.3     1  UNL1        0.1333
      2 N         -30.8668   48.2989  -14.0400 N.ar    1  UNL1       -0.2950
      3 C         -30.3717   49.4094  -14.6533 C.ar    1  UNL1        0.2019
      4 N         -29.8265   50.3082  -13.7957 N.ar    1  UNL1       -0.2129
      5 C         -29.9672   49.7095  -12.5983 C.ar    1  UNL1        0.1094
      6 C         -29.5392   50.1897  -11.3586 C.ar    1  UNL1        0.0612
      7 BR        -28.5859   51.8553  -11.2720 Br      1  UNL1       -0.0471
      8 C         -29.7741   49.3796  -10.2161 C.ar    1  UNL1        0.0983
      9 C         -30.4047   48.1170  -10.3695 C.ar    1  UNL1        0.1787
     10 C         -30.7936   47.6577  -11.6436 C.ar    1  UNL1        0.1897
     11 C         -30.5816   48.4969  -12.7392 C.ar    1  UNL1        0.1178
     12 O         -31.3628   46.3868  -11.7700 O.3     1  UNL1       -0.4669
     13 C         -31.3201   45.4495  -10.6923 C.3     1  UNL1        0.2527
     14 C         -31.5322   46.1702   -9.3556 C.3     1  UNL1        0.2526
     15 O         -30.6624   47.3007   -9.2605 O.3     1  UNL1       -0.4682
     16 C         -29.3726   49.8253   -8.8687 C.2     1  UNL1        0.2531
     17 O         -30.2280   50.3794   -8.1268 O.2     1  UNL1       -0.2697
     18 N         -28.0229   49.6316   -8.4128 N.am    1  UNL1       -0.2803
     19 H         -27.3765   49.0669   -9.0086 H       1  UNL1        0.1552
     20 C         -27.5300   50.0884   -7.1426 C.ar    1  UNL1        0.0506
     21 C         -27.2304   51.4462   -6.9733 C.ar    1  UNL1        0.0170
     22 C         -26.7780   51.9216   -5.7417 C.ar    1  UNL1        0.0309
     23 C         -26.6293   51.0486   -4.6613 C.ar    1  UNL1        0.1441
     24 F         -26.2026   51.5402   -3.4701 F       1  UNL1       -0.2042
     25 C         -26.9346   49.6822   -4.8051 C.ar    1  UNL1        0.1000
     26 C         -27.4053   49.2145   -6.0474 C.ar    1  UNL1        0.0208
     27 C         -26.8109   48.7563   -3.6183 C.3     1  UNL1        0.4207
     28 F         -25.8266   49.1781   -2.7410 F       1  UNL1       -0.1658
     29 F         -26.4954   47.4850   -4.0612 F       1  UNL1       -0.1658
     30 F         -28.0114   48.7108   -2.9322 F       1  UNL1       -0.1658
     31 N         -30.4090   49.6408  -16.0681 N.pl3   1  UNL1       -0.2814
     32 H         -31.1241   50.3126  -16.4263 H       1  UNL1        0.1551
     33 C         -29.4272   49.1348  -16.9894 C.ar    1  UNL1        0.0889
     34 C         -28.0814   49.5513  -16.9163 C.ar    1  UNL1        0.1543
     35 F         -27.6820   50.4581  -15.9895 F       1  UNL1       -0.2028
     36 C         -27.1413   49.0556  -17.8243 C.ar    1  UNL1        0.0310
     37 C         -27.5300   48.1542  -18.8163 C.ar    1  UNL1        0.0033
     38 C         -28.8626   47.7487  -18.9087 C.ar    1  UNL1        0.0128
     39 C         -29.8134   48.2379  -18.0056 C.ar    1  UNL1        0.0733
     40 CL        -31.4752   47.6779  -18.1428 Cl      1  UNL1       -0.0809
@<TRIPOS>BOND
     1     1     2    1
     2     2     3   ar
     3     3    31    1
     4    31    33    1
     5    33    34   ar
     6    34    35    1
     7    34    36   ar
     8    36    37   ar
     9    37    38   ar
    10    38    39   ar
    11    39    40    1
    12     3     4   ar
    13     4     5   ar
    14     5     6   ar
    15     6     7    1
    16     6     8   ar
    17     8    16    1
    18    16    17    2
    19    16    18   am
    20    18    20    1
    21    20    21   ar
    22    21    22   ar
    23    22    23   ar
    24    23    24    1
    25    23    25   ar
    26    25    27    1
    27    27    28    1
    28    27    29    1
    29    27    30    1
    30    25    26   ar
    31     8     9   ar
    32     9    10   ar
    33    10    11   ar
    34    10    12    1
    35    12    13    1
    36    13    14    1
    37    14    15    1
    38    11     2   ar
    39    39    33   ar
    40    11     5   ar
    41    26    20   ar
    42    15     9    1
    43    31    32    1
    44    18    19    1
@<TRIPOS>MOLECULE
*****
 40 44 0 0 0
SMALL
GASTEIGER

@<TRIPOS>ATOM
      1 C         -31.4384   48.3520   -8.4020 C.3     1  UNL1        0.1333
      2 N         -30.1326   48.7247   -7.8571 N.ar    1  UNL1       -0.2950
      3 C         -29.5356   48.2882   -6.7136 C.ar    1  UNL1        0.2019
      4 N         -28.2806   48.7716   -6.5352 N.ar    1  UNL1       -0.2129
      5 C         -28.1065   49.5672   -7.6070 C.ar    1  UNL1        0.1094
      6 C         -26.9875   50.3474   -7.9066 C.ar    1  UNL1        0.0612
      7 BR        -25.5125   50.3901   -6.6765 Br      1  UNL1       -0.0471
      8 C         -27.0238   51.1334   -9.0888 C.ar    1  UNL1        0.0983
      9 C         -28.1862   51.1208   -9.9038 C.ar    1  UNL1        0.1787
     10 C         -29.3051   50.3418   -9.5481 C.ar    1  UNL1        0.1897
     11 C         -29.2197   49.5522   -8.3996 C.ar    1  UNL1        0.1178
     12 O         -30.4556   50.3920  -10.3411 O.3     1  UNL1       -0.4669
     13 C         -30.6176   51.3988  -11.3420 C.3     1  UNL1        0.2527
     14 C         -29.2819   51.6635  -12.0471 C.3     1  UNL1        0.2526
     15 O         -28.2477   51.8747  -11.0830 O.3     1  UNL1       -0.4682
     16 C         -25.8740   51.9670   -9.4869 C.2     1  UNL1        0.2531
     17 O         -26.0112   53.2195   -9.5291 O.2     1  UNL1       -0.2697
     18 N         -24.6173   51.3559   -9.8245 N.am    1  UNL1       -0.2803
     19 H         -24.5091   50.3287   -9.6662 H       1  UNL1        0.1552
     20 C         -23.4658   52.0845  -10.2810 C.ar    1  UNL1        0.0506
     21 C         -23.5710   53.4643  -10.4973 C.ar    1  UNL1        0.0170
     22 C         -22.4609   54.2011  -10.9125 C.ar    1  UNL1        0.0309
     23 C         -21.2296   53.5704  -11.1065 C.ar    1  UNL1        0.1441
     24 F         -20.1621   54.3133  -11.4952 F       1  UNL1       -0.2042
     25 C         -21.0976   52.1868  -10.8848 C.ar    1  UNL1        0.1000
     26 C         -22.2197   51.4544  -10.4510 C.ar    1  UNL1        0.0208
     27 C         -19.7514   51.5239  -11.0564 C.3     1  UNL1        0.4207
     28 F         -19.8471   50.1448  -10.9808 F       1  UNL1       -0.1658
     29 F         -18.8951   51.9643  -10.0641 F       1  UNL1       -0.1658
     30 F         -19.2204   51.8537  -12.2906 F       1  UNL1       -0.1658
     31 N         -30.1451   47.3995   -5.7672 N.pl3   1  UNL1       -0.2814
     32 H         -31.1826   47.2875   -5.8126 H       1  UNL1        0.1551
     33 C         -29.4050   46.5420   -4.8808 C.ar    1  UNL1        0.0889
     34 C         -28.9449   45.2794   -5.3095 C.ar    1  UNL1        0.1543
     35 F         -29.2083   44.8303   -6.5625 F       1  UNL1       -0.2028
     36 C         -28.2335   44.4550   -4.4330 C.ar    1  UNL1        0.0310
     37 C         -27.9836   44.8707   -3.1244 C.ar    1  UNL1        0.0033
     38 C         -28.4494   46.1110   -2.6843 C.ar    1  UNL1        0.0128
     39 C         -29.1629   46.9455   -3.5523 C.ar    1  UNL1        0.0733
     40 CL        -29.7063   48.5109   -2.9626 Cl      1  UNL1       -0.0809
@<TRIPOS>BOND
     1     1     2    1
     2     2     3   ar
     3     3    31    1
     4    31    33    1
     5    33    34   ar
     6    34    35    1
     7    34    36   ar
     8    36    37   ar
     9    37    38   ar
    10    38    39   ar
    11    39    40    1
    12     3     4   ar
    13     4     5   ar
    14     5     6   ar
    15     6     7    1
    16     6     8   ar
    17     8    16    1
    18    16    17    2
    19    16    18   am
    20    18    20    1
    21    20    21   ar
    22    21    22   ar
    23    22    23   ar
    24    23    24    1
    25    23    25   ar
    26    25    27    1
    27    27    28    1
    28    27    29    1
    29    27    30    1
    30    25    26   ar
    31     8     9   ar
    32     9    10   ar
    33    10    11   ar
    34    10    12    1
    35    12    13    1
    36    13    14    1
    37    14    15    1
    38    11     2   ar
    39    39    33   ar
    40    11     5   ar
    41    26    20   ar
    42    15     9    1
    43    31    32    1
    44    18    19    1
@<TRIPOS>MOLECULE
*****
 40 44 0 0 0
SMALL
GASTEIGER

@<TRIPOS>ATOM
      1 C         -27.0994   51.3266  -11.3817 C.3     1  UNL1        0.1333
      2 N         -26.8731   51.4534   -9.9417 N.ar    1  UNL1       -0.2950
      3 C         -26.0397   52.3084   -9.2869 C.ar    1  UNL1        0.2019
      4 N         -26.1245   52.2241   -7.9355 N.ar    1  UNL1       -0.2129
      5 C         -27.0342   51.2496   -7.7486 C.ar    1  UNL1        0.1094
      6 C         -27.4770   50.7303   -6.5300 C.ar    1  UNL1        0.0612
      7 BR        -26.7126   51.3851   -4.8937 Br      1  UNL1       -0.0471
      8 C         -28.4351   49.6826   -6.5641 C.ar    1  UNL1        0.0983
      9 C         -28.8879   49.1870   -7.8150 C.ar    1  UNL1        0.1787
     10 C         -28.3919   49.7197   -9.0215 C.ar    1  UNL1        0.1897
     11 C         -27.4798   50.7745   -8.9499 C.ar    1  UNL1        0.1178
     12 O         -28.8155   49.1742  -10.2372 O.3     1  UNL1       -0.4669
     13 C         -29.5267   47.9357  -10.2815 C.3     1  UNL1        0.2527
     14 C         -30.5079   47.8468   -9.1066 C.3     1  UNL1        0.2526
     15 O         -29.8421   48.1634   -7.8818 O.3     1  UNL1       -0.4682
     16 C         -28.9692   49.0959   -5.3208 C.2     1  UNL1        0.2531
     17 O         -30.0793   49.5001   -4.8806 O.2     1  UNL1       -0.2697
     18 N         -28.2300   48.0800   -4.6219 N.am    1  UNL1       -0.2803
     19 H         -27.3743   47.6902   -5.0775 H       1  UNL1        0.1552
     20 C         -28.6442   47.4987   -3.3746 C.ar    1  UNL1        0.0506
     21 C         -28.3938   46.1414   -3.1360 C.ar    1  UNL1        0.0170
     22 C         -28.7593   45.5584   -1.9219 C.ar    1  UNL1        0.0309
     23 C         -29.3696   46.3264   -0.9274 C.ar    1  UNL1        0.1441
     24 F         -29.7005   45.7379    0.2503 F       1  UNL1       -0.2042
     25 C         -29.6213   47.6946   -1.1408 C.ar    1  UNL1        0.1000
     26 C         -29.2349   48.2777   -2.3632 C.ar    1  UNL1        0.0208
     27 C         -30.2426   48.5241   -0.0421 C.3     1  UNL1        0.4207
     28 F         -30.6886   49.7467   -0.5144 F       1  UNL1       -0.1658
     29 F         -29.3044   48.7468    0.9489 F       1  UNL1       -0.1658
     30 F         -31.3219   47.8501    0.5008 F       1  UNL1       -0.1658
     31 N         -25.1465   53.2261   -9.9325 N.pl3   1  UNL1       -0.2814
     32 H         -25.4698   54.2131  -10.0437 H       1  UNL1        0.1551
     33 C         -23.7878   52.9102  -10.2827 C.ar    1  UNL1        0.0889
     34 C         -23.3692   51.5712  -10.4297 C.ar    1  UNL1        0.1543
     35 F         -24.2317   50.5446  -10.2219 F       1  UNL1       -0.2028
     36 C         -22.0429   51.2812  -10.7630 C.ar    1  UNL1        0.0310
     37 C         -21.1214   52.3140  -10.9413 C.ar    1  UNL1        0.0033
     38 C         -21.5207   53.6421  -10.7811 C.ar    1  UNL1        0.0128
     39 C         -22.8457   53.9454  -10.4475 C.ar    1  UNL1        0.0733
     40 CL        -23.3100   55.6339  -10.2832 Cl      1  UNL1       -0.0809
@<TRIPOS>BOND
     1     1     2    1
     2     2     3   ar
     3     3    31    1
     4    31    33    1
     5    33    34   ar
     6    34    35    1
     7    34    36   ar
     8    36    37   ar
     9    37    38   ar
    10    38    39   ar
    11    39    40    1
    12     3     4   ar
    13     4     5   ar
    14     5     6   ar
    15     6     7    1
    16     6     8   ar
    17     8    16    1
    18    16    17    2
    19    16    18   am
    20    18    20    1
    21    20    21   ar
    22    21    22   ar
    23    22    23   ar
    24    23    24    1
    25    23    25   ar
    26    25    27    1
    27    27    28    1
    28    27    29    1
    29    27    30    1
    30    25    26   ar
    31     8     9   ar
    32     9    10   ar
    33    10    11   ar
    34    10    12    1
    35    12    13    1
    36    13    14    1
    37    14    15    1
    38    11     2   ar
    39    39    33   ar
    40    11     5   ar
    41    26    20   ar
    42    15     9    1
    43    31    32    1
    44    18    19    1
@<TRIPOS>MOLECULE
*****
 40 44 0 0 0
SMALL
GASTEIGER

@<TRIPOS>ATOM
      1 C         -28.5548   50.2044   -6.0717 C.3     1  UNL1        0.1333
      2 N         -28.9026   48.9183   -6.6767 N.ar    1  UNL1       -0.2950
      3 C         -29.0213   47.7028   -6.0742 C.ar    1  UNL1        0.2019
      4 N         -29.4384   46.7188   -6.9098 N.ar    1  UNL1       -0.2129
      5 C         -29.5554   47.3531   -8.0914 C.ar    1  UNL1        0.1094
      6 C         -29.9247   46.7942   -9.3169 C.ar    1  UNL1        0.0612
      7 BR        -30.2660   44.9068   -9.4266 Br      1  UNL1       -0.0471
      8 C         -29.9650   47.6485  -10.4506 C.ar    1  UNL1        0.0983
      9 C         -29.6115   49.0163  -10.3108 C.ar    1  UNL1        0.1787
     10 C         -29.2155   49.5323   -9.0608 C.ar    1  UNL1        0.1897
     11 C         -29.2243   48.6726   -7.9607 C.ar    1  UNL1        0.1178
     12 O         -28.8206   50.8702   -8.9653 O.3     1  UNL1       -0.4669
     13 C         -28.5607   51.6474  -10.1359 C.3     1  UNL1        0.2527
     14 C         -29.5737   51.3041  -11.2346 C.3     1  UNL1        0.2526
     15 O         -29.6541   49.8873  -11.4072 O.3     1  UNL1       -0.4682
     16 C         -30.3666   47.1401  -11.7756 C.2     1  UNL1        0.2531
     17 O         -31.3362   46.3383  -11.8557 O.2     1  UNL1       -0.2697
     18 N         -29.6579   47.5529  -12.9563 N.am    1  UNL1       -0.2803
     19 H         -28.9382   48.3046  -12.8630 H       1  UNL1        0.1552
     20 C         -29.9406   47.0616  -14.2769 C.ar    1  UNL1        0.0506
     21 C         -30.3596   45.7347  -14.4379 C.ar    1  UNL1        0.0170
     22 C         -30.6689   45.2404  -15.7057 C.ar    1  UNL1        0.0309
     23 C         -30.5735   46.0683  -16.8269 C.ar    1  UNL1        0.1441
     24 F         -30.8955   45.5666  -18.0464 F       1  UNL1       -0.2042
     25 C         -30.1650   47.4080  -16.6879 C.ar    1  UNL1        0.1000
     26 C         -29.8700   47.9022  -15.4024 C.ar    1  UNL1        0.0208
     27 C         -30.1071   48.3051  -17.9015 C.3     1  UNL1        0.4207
     28 F         -31.3411   48.4085  -18.5205 F       1  UNL1       -0.1658
     29 F         -29.1980   47.7907  -18.8074 F       1  UNL1       -0.1658
     30 F         -29.7031   49.5743  -17.5273 F       1  UNL1       -0.1658
     31 N         -28.7430   47.4516   -4.6900 N.pl3   1  UNL1       -0.2814
     32 H         -29.4567   47.7605   -3.9928 H       1  UNL1        0.1551
     33 C         -27.6323   46.6646   -4.2255 C.ar    1  UNL1        0.0889
     34 C         -27.5966   45.2692   -4.4288 C.ar    1  UNL1        0.1543
     35 F         -28.6203   44.6288   -5.0476 F       1  UNL1       -0.2028
     36 C         -26.5132   44.5180   -3.9642 C.ar    1  UNL1        0.0310
     37 C         -25.4650   45.1418   -3.2861 C.ar    1  UNL1        0.0033
     38 C         -25.4983   46.5196   -3.0640 C.ar    1  UNL1        0.0128
     39 C         -26.5776   47.2828   -3.5242 C.ar    1  UNL1        0.0733
     40 CL        -26.5635   49.0195   -3.2459 Cl      1  UNL1       -0.0809
@<TRIPOS>BOND
     1     1     2    1
     2     2     3   ar
     3     3    31    1
     4    31    33    1
     5    33    34   ar
     6    34    35    1
     7    34    36   ar
     8    36    37   ar
     9    37    38   ar
    10    38    39   ar
    11    39    40    1
    12     3     4   ar
    13     4     5   ar
    14     5     6   ar
    15     6     7    1
    16     6     8   ar
    17     8    16    1
    18    16    17    2
    19    16    18   am
    20    18    20    1
    21    20    21   ar
    22    21    22   ar
    23    22    23   ar
    24    23    24    1
    25    23    25   ar
    26    25    27    1
    27    27    28    1
    28    27    29    1
    29    27    30    1
    30    25    26   ar
    31     8     9   ar
    32     9    10   ar
    33    10    11   ar
    34    10    12    1
    35    12    13    1
    36    13    14    1
    37    14    15    1
    38    11     2   ar
    39    39    33   ar
    40    11     5   ar
    41    26    20   ar
    42    15     9    1
    43    31    32    1
    44    18    19    1
@<TRIPOS>MOLECULE
*****
 40 44 0 0 0
SMALL
GASTEIGER

@<TRIPOS>ATOM
      1 C         -31.4643   49.8410   -8.1979 C.3     1  UNL1        0.1333
      2 N         -30.0550   49.7994   -7.8064 N.ar    1  UNL1       -0.2950
      3 C         -29.5106   49.3341   -6.6481 C.ar    1  UNL1        0.2019
      4 N         -28.1544   49.3654   -6.6322 N.ar    1  UNL1       -0.2129
      5 C         -27.8491   49.9026   -7.8282 C.ar    1  UNL1        0.1094
      6 C         -26.5758   50.1945   -8.3224 C.ar    1  UNL1        0.0612
      7 BR        -25.0395   49.8768   -7.2135 Br      1  UNL1       -0.0471
      8 C         -26.4831   50.7821   -9.6119 C.ar    1  UNL1        0.0983
      9 C         -27.6686   51.0720  -10.3371 C.ar    1  UNL1        0.1787
     10 C         -28.9349   50.7885   -9.7879 C.ar    1  UNL1        0.1897
     11 C         -28.9868   50.1760   -8.5342 C.ar    1  UNL1        0.1178
     12 O         -30.0856   51.1354  -10.5025 O.3     1  UNL1       -0.4669
     13 C         -30.0147   51.9955  -11.6413 C.3     1  UNL1        0.2527
     14 C         -28.7602   51.6807  -12.4648 C.3     1  UNL1        0.2526
     15 O         -27.6100   51.6392  -11.6168 O.3     1  UNL1       -0.4682
     16 C         -25.1747   51.0999  -10.2138 C.2     1  UNL1        0.2531
     17 O         -24.9066   50.6593  -11.3641 O.2     1  UNL1       -0.2697
     18 N         -24.2199   51.8984   -9.4942 N.am    1  UNL1       -0.2803
     19 H         -24.5220   52.3402   -8.5968 H       1  UNL1        0.1552
     20 C         -22.9014   52.2046   -9.9769 C.ar    1  UNL1        0.0506
     21 C         -22.2387   51.2773  -10.7911 C.ar    1  UNL1        0.0170
     22 C         -20.9697   51.5617  -11.2973 C.ar    1  UNL1        0.0309
     23 C         -20.3517   52.7800  -11.0052 C.ar    1  UNL1        0.1441
     24 F         -19.1239   53.0376  -11.5236 F       1  UNL1       -0.2042
     25 C         -21.0032   53.7313  -10.1982 C.ar    1  UNL1        0.1000
     26 C         -22.2902   53.4418   -9.7046 C.ar    1  UNL1        0.0208
     27 C         -20.3433   55.0621   -9.9247 C.3     1  UNL1        0.4207
     28 F         -19.4595   54.9858   -8.8618 F       1  UNL1       -0.1658
     29 F         -21.3138   56.0013   -9.6282 F       1  UNL1       -0.1658
     30 F         -19.6409   55.4755  -11.0426 F       1  UNL1       -0.1658
     31 N         -30.2687   48.8471   -5.5324 N.pl3   1  UNL1       -0.2814
     32 H         -31.0051   49.4759   -5.1408 H       1  UNL1        0.1551
     33 C         -30.1868   47.5004   -5.0340 C.ar    1  UNL1        0.0889
     34 C         -30.7835   46.4306   -5.7335 C.ar    1  UNL1        0.1543
     35 F         -31.4706   46.6468   -6.8833 F       1  UNL1       -0.2028
     36 C         -30.7010   45.1286   -5.2313 C.ar    1  UNL1        0.0310
     37 C         -30.0378   44.8801   -4.0288 C.ar    1  UNL1        0.0033
     38 C         -29.4587   45.9339   -3.3195 C.ar    1  UNL1        0.0128
     39 C         -29.5344   47.2419   -3.8118 C.ar    1  UNL1        0.0733
     40 CL        -28.7663   48.5339   -2.8983 Cl      1  UNL1       -0.0809
@<TRIPOS>BOND
     1     1     2    1
     2     2     3   ar
     3     3    31    1
     4    31    33    1
     5    33    34   ar
     6    34    35    1
     7    34    36   ar
     8    36    37   ar
     9    37    38   ar
    10    38    39   ar
    11    39    40    1
    12     3     4   ar
    13     4     5   ar
    14     5     6   ar
    15     6     7    1
    16     6     8   ar
    17     8    16    1
    18    16    17    2
    19    16    18   am
    20    18    20    1
    21    20    21   ar
    22    21    22   ar
    23    22    23   ar
    24    23    24    1
    25    23    25   ar
    26    25    27    1
    27    27    28    1
    28    27    29    1
    29    27    30    1
    30    25    26   ar
    31     8     9   ar
    32     9    10   ar
    33    10    11   ar
    34    10    12    1
    35    12    13    1
    36    13    14    1
    37    14    15    1
    38    11     2   ar
    39    39    33   ar
    40    11     5   ar
    41    26    20   ar
    42    15     9    1
    43    31    32    1
    44    18    19    1
@<TRIPOS>MOLECULE
*****
 40 44 0 0 0
SMALL
GASTEIGER

@<TRIPOS>ATOM
      1 C         -25.4420   51.6662  -12.9673 C.3     1  UNL1        0.1333
      2 N         -25.2199   51.4647  -11.5351 N.ar    1  UNL1       -0.2950
      3 C         -24.0391   51.4263  -10.8579 C.ar    1  UNL1        0.2019
      4 N         -24.1850   51.3013   -9.5149 N.ar    1  UNL1       -0.2129
      5 C         -25.5203   51.2310   -9.3597 C.ar    1  UNL1        0.1094
      6 C         -26.2238   51.0611   -8.1652 C.ar    1  UNL1        0.0612
      7 BR        -25.2518   50.8386   -6.5232 Br      1  UNL1       -0.0471
      8 C         -27.6407   50.9931   -8.2335 C.ar    1  UNL1        0.0983
      9 C         -28.2866   51.0745   -9.4951 C.ar    1  UNL1        0.1787
     10 C         -27.5360   51.2157  -10.6792 C.ar    1  UNL1        0.1897
     11 C         -26.1477   51.3174  -10.5708 C.ar    1  UNL1        0.1178
     12 O         -28.1968   51.2382  -11.9113 O.3     1  UNL1       -0.4669
     13 C         -29.5715   50.8632  -12.0174 C.3     1  UNL1        0.2527
     14 C         -30.3556   51.3790  -10.8048 C.3     1  UNL1        0.2526
     15 O         -29.6831   51.0241   -9.5942 O.3     1  UNL1       -0.4682
     16 C         -28.4570   50.8371   -7.0150 C.2     1  UNL1        0.2531
     17 O         -28.9877   51.8575   -6.4987 O.2     1  UNL1       -0.2697
     18 N         -28.6399   49.5386   -6.4257 N.am    1  UNL1       -0.2803
     19 H         -28.2826   48.7055   -6.9454 H       1  UNL1        0.1552
     20 C         -29.3661   49.3033   -5.2081 C.ar    1  UNL1        0.0506
     21 C         -30.7560   49.4760   -5.1963 C.ar    1  UNL1        0.0170
     22 C         -31.4892   49.2262   -4.0355 C.ar    1  UNL1        0.0309
     23 C         -30.8443   48.7906   -2.8754 C.ar    1  UNL1        0.1441
     24 F         -31.5833   48.5396   -1.7647 F       1  UNL1       -0.2042
     25 C         -29.4499   48.5997   -2.8669 C.ar    1  UNL1        0.1000
     26 C         -28.7204   48.8395   -4.0476 C.ar    1  UNL1        0.0208
     27 C         -28.7697   48.0874   -1.6195 C.3     1  UNL1        0.4207
     28 F         -29.3655   48.5825   -0.4721 F       1  UNL1       -0.1658
     29 F         -27.4418   48.4729   -1.6317 F       1  UNL1       -0.1658
     30 F         -28.8389   46.7062   -1.5815 F       1  UNL1       -0.1658
     31 N         -22.7464   51.5103  -11.4733 N.pl3   1  UNL1       -0.2814
     32 H         -22.6591   51.1672  -12.4560 H       1  UNL1        0.1551
     33 C         -21.6191   52.1801  -10.8824 C.ar    1  UNL1        0.0889
     34 C         -20.3971   51.5045  -10.6824 C.ar    1  UNL1        0.1543
     35 F         -20.2597   50.1978  -11.0209 F       1  UNL1       -0.2028
     36 C         -19.3135   52.1681  -10.0996 C.ar    1  UNL1        0.0310
     37 C         -19.4370   53.4999   -9.7014 C.ar    1  UNL1        0.0033
     38 C         -20.6471   54.1729   -9.8786 C.ar    1  UNL1        0.0128
     39 C         -21.7394   53.5196  -10.4608 C.ar    1  UNL1        0.0733
     40 CL        -23.2356   54.4155  -10.6896 Cl      1  UNL1       -0.0809
@<TRIPOS>BOND
     1     1     2    1
     2     2     3   ar
     3     3    31    1
     4    31    33    1
     5    33    34   ar
     6    34    35    1
     7    34    36   ar
     8    36    37   ar
     9    37    38   ar
    10    38    39   ar
    11    39    40    1
    12     3     4   ar
    13     4     5   ar
    14     5     6   ar
    15     6     7    1
    16     6     8   ar
    17     8    16    1
    18    16    17    2
    19    16    18   am
    20    18    20    1
    21    20    21   ar
    22    21    22   ar
    23    22    23   ar
    24    23    24    1
    25    23    25   ar
    26    25    27    1
    27    27    28    1
    28    27    29    1
    29    27    30    1
    30    25    26   ar
    31     8     9   ar
    32     9    10   ar
    33    10    11   ar
    34    10    12    1
    35    12    13    1
    36    13    14    1
    37    14    15    1
    38    11     2   ar
    39    39    33   ar
    40    11     5   ar
    41    26    20   ar
    42    15     9    1
    43    31    32    1
    44    18    19    1
@<TRIPOS>MOLECULE
*****
 40 44 0 0 0
SMALL
GASTEIGER

@<TRIPOS>ATOM
      1 C         -31.5840   49.1044   -8.4440 C.3     1  UNL1        0.1333
      2 N         -30.3794   49.4762   -7.7013 N.ar    1  UNL1       -0.2950
      3 C         -30.0859   49.2446   -6.3918 C.ar    1  UNL1        0.2019
      4 N         -28.8425   49.6508   -6.0319 N.ar    1  UNL1       -0.2129
      5 C         -28.3566   50.1844   -7.1683 C.ar    1  UNL1        0.1094
      6 C         -27.1112   50.7894   -7.3519 C.ar    1  UNL1        0.0612
      7 BR        -25.9224   50.9712   -5.8539 Br      1  UNL1       -0.0471
      8 C         -26.8085   51.3074   -8.6391 C.ar    1  UNL1        0.0983
      9 C         -27.7740   51.2174   -9.6760 C.ar    1  UNL1        0.1787
     10 C         -29.0305   50.6254   -9.4389 C.ar    1  UNL1        0.1897
     11 C         -29.2791   50.0927   -8.1724 C.ar    1  UNL1        0.1178
     12 O         -29.9810   50.6002  -10.4640 O.3     1  UNL1       -0.4669
     13 C         -29.8094   51.3819  -11.6477 C.3     1  UNL1        0.2527
     14 C         -28.3362   51.3814  -12.0731 C.3     1  UNL1        0.2526
     15 O         -27.5005   51.7069  -10.9598 O.3     1  UNL1       -0.4682
     16 C         -25.5067   51.9411   -8.9202 C.2     1  UNL1        0.2531
     17 O         -25.4841   53.0951   -9.4271 O.2     1  UNL1       -0.2697
     18 N         -24.2830   51.2479   -8.6218 N.am    1  UNL1       -0.2803
     19 H         -24.3414   50.3459   -8.0976 H       1  UNL1        0.1552
     20 C         -22.9745   51.7626   -8.9184 C.ar    1  UNL1        0.0506
     21 C         -21.9602   51.6465   -7.9593 C.ar    1  UNL1        0.0170
     22 C         -20.6731   52.1114   -8.2324 C.ar    1  UNL1        0.0309
     23 C         -20.3807   52.6885   -9.4705 C.ar    1  UNL1        0.1441
     24 F         -19.1166   53.1182   -9.7158 F       1  UNL1       -0.2042
     25 C         -21.3812   52.8060  -10.4534 C.ar    1  UNL1        0.1000
     26 C         -22.6733   52.3198  -10.1744 C.ar    1  UNL1        0.0208
     27 C         -21.0425   53.3925  -11.8034 C.3     1  UNL1        0.4207
     28 F         -22.1810   53.6727  -12.5395 F       1  UNL1       -0.1658
     29 F         -20.2668   52.4929  -12.5111 F       1  UNL1       -0.1658
     30 F         -20.3333   54.5690  -11.6387 F       1  UNL1       -0.1658
     31 N         -30.9809   48.6293   -5.4552 N.pl3   1  UNL1       -0.2814
     32 H         -31.8532   48.1991   -5.8359 H       1  UNL1        0.1551
     33 C         -30.6727   48.4291   -4.0647 C.ar    1  UNL1        0.0889
     34 C         -30.9944   49.4087   -3.1021 C.ar    1  UNL1        0.1543
     35 F         -31.5823   50.5762   -3.4655 F       1  UNL1       -0.2028
     36 C         -30.6810   49.2016   -1.7556 C.ar    1  UNL1        0.0310
     37 C         -30.0375   48.0293   -1.3563 C.ar    1  UNL1        0.0033
     38 C         -29.6988   47.0609   -2.3030 C.ar    1  UNL1        0.0128
     39 C         -30.0071   47.2565   -3.6542 C.ar    1  UNL1        0.0733
     40 CL        -29.5863   45.9970   -4.8075 Cl      1  UNL1       -0.0809
@<TRIPOS>BOND
     1     1     2    1
     2     2     3   ar
     3     3    31    1
     4    31    33    1
     5    33    34   ar
     6    34    35    1
     7    34    36   ar
     8    36    37   ar
     9    37    38   ar
    10    38    39   ar
    11    39    40    1
    12     3     4   ar
    13     4     5   ar
    14     5     6   ar
    15     6     7    1
    16     6     8   ar
    17     8    16    1
    18    16    17    2
    19    16    18   am
    20    18    20    1
    21    20    21   ar
    22    21    22   ar
    23    22    23   ar
    24    23    24    1
    25    23    25   ar
    26    25    27    1
    27    27    28    1
    28    27    29    1
    29    27    30    1
    30    25    26   ar
    31     8     9   ar
    32     9    10   ar
    33    10    11   ar
    34    10    12    1
    35    12    13    1
    36    13    14    1
    37    14    15    1
    38    11     2   ar
    39    39    33   ar
    40    11     5   ar
    41    26    20   ar
    42    15     9    1
    43    31    32    1
    44    18    19    1
