@<TRIPOS>MOLECULE
*****
 55 61 0 0 0
SMALL
GASTEIGER

@<TRIPOS>ATOM
      1 N          -4.1368  -17.4071   21.1231 N.ar    1  UNL1       -0.2357
      2 N          -4.4408  -18.1488   20.0609 N.ar    1  UNL1       -0.1663
      3 C          -5.7604  -18.4603   20.1155 C.ar    1  UNL1        0.1260
      4 C          -6.2956  -17.8725   21.2438 C.ar    1  UNL1        0.0880
      5 C          -7.5569  -17.8488   21.8293 C.ar    1  UNL1        0.1383
      6 N          -7.6869  -17.1776   23.0131 N.ar    1  UNL1       -0.2117
      7 C          -6.6274  -16.5317   23.6047 C.ar    1  UNL1        0.1653
      8 N          -5.3950  -16.5618   23.0074 N.ar    1  UNL1       -0.2079
      9 C          -5.2595  -17.2351   21.8401 C.ar    1  UNL1        0.1652
     10 C           0.3801  -19.6669   20.7670 C.2     1  UNL1        0.4050
     11 O           0.9540  -19.7111   19.6435 O.2     1  UNL1       -0.2262
     12 N          -0.7796  -18.8305   20.9580 N.am    1  UNL1       -0.2459
     13 C          -1.5084  -18.8788   22.2335 C.3     1  UNL1        0.0987
     14 C          -2.1064  -17.5081   22.5910 C.3     1  UNL1        0.0461
     15 C          -2.8211  -16.8178   21.4105 C.3     1  UNL1        0.1102
     16 C          -1.9374  -16.8133   20.1544 C.3     1  UNL1        0.0461
     17 C          -1.4484  -18.2179   19.8015 C.3     1  UNL1        0.0987
     18 C           1.7508  -21.5368   21.6389 C.3     1  UNL1        0.2573
     19 O           0.8753  -20.4319   21.8294 O.3     1  UNL1       -0.4304
     20 N          -8.6878  -18.5051   21.2359 N.pl3   1  UNL1       -0.2807
     21 C          -8.4519  -19.5195   20.2049 C.3     1  UNL1        0.1247
     22 C          -9.7046  -19.6851   19.3407 C.3     1  UNL1        0.1636
     23 O         -10.8436  -19.9186   20.1463 O.3     1  UNL1       -0.3496
     24 C         -11.1180  -18.7723   20.9305 C.3     1  UNL1        0.1734
     25 C          -9.9823  -18.4941   21.9326 C.3     1  UNL1        0.2035
     26 C          -9.9754  -19.4969   23.0550 C.2     1  UNL1        0.3346
     27 O         -10.9969  -20.1940   23.2994 O.2     1  UNL1       -0.2484
     28 O          -8.8193  -19.6784   23.8075 O.3     1  UNL1       -0.4790
     29 H          -8.7894  -20.3578   24.5583 H       1  UNL1        0.2951
     30 C          -6.8174  -15.8076   24.8853 C.ar    1  UNL1        0.0360
     31 C          -8.0527  -15.8521   25.5572 C.ar    1  UNL1        0.0043
     32 C          -8.2315  -15.1692   26.7637 C.ar    1  UNL1        0.0148
     33 C          -7.1746  -14.4370   27.3304 C.ar    1  UNL1        0.0516
     34 C          -5.9503  -14.3727   26.6518 C.ar    1  UNL1        0.0148
     35 C          -5.7688  -15.0556   25.4460 C.ar    1  UNL1        0.0043
     36 N          -7.3413  -13.7046   28.5565 N.am    1  UNL1       -0.2681
     37 C          -8.6165  -13.3179   29.0941 C.2     1  UNL1        0.3082
     38 O          -9.6602  -13.9368   28.7531 O.2     1  UNL1       -0.2522
     39 N          -8.7095  -12.2925   30.0932 N.am    1  UNL1       -0.2681
     40 H          -6.4921  -13.5118   29.1344 H       1  UNL1        0.1564
     41 H          -9.5304  -12.3178   30.7398 H       1  UNL1        0.1564
     42 C          -7.7323  -11.2542   30.2745 C.ar    1  UNL1        0.0516
     43 C          -7.5000  -10.3383   29.2385 C.ar    1  UNL1        0.0144
     44 C          -6.5409   -9.3319   29.3839 C.ar    1  UNL1       -0.0029
     45 C          -5.7805   -9.2428   30.5600 C.ar    1  UNL1       -0.0207
     46 C          -6.0033  -10.1647   31.5941 C.ar    1  UNL1       -0.0029
     47 C          -6.9628  -11.1706   31.4486 C.ar    1  UNL1        0.0144
     48 C          -4.7737   -8.1363   30.7310 C.3     1  UNL1        0.0437
     49 C          -5.4137   -6.9256   31.4236 C.3     1  UNL1        0.0769
     50 N          -6.8106   -6.7314   30.9779 N.3     1  UNL1       -0.2681
     51 C          -7.7721   -6.9656   32.0806 C.3     1  UNL1        0.1046
     52 C          -9.1674   -6.4074   31.7390 C.3     1  UNL1        0.1595
     53 O          -9.3001   -6.2210   30.3456 O.3     1  UNL1       -0.3508
     54 C          -8.4309   -5.1875   29.9167 C.3     1  UNL1        0.1595
     55 C          -6.9874   -5.3727   30.4328 C.3     1  UNL1        0.1046
@<TRIPOS>BOND
     1    18    19    1
     2    19    10    1
     3    10    11    2
     4    10    12   am
     5    12    13    1
     6    13    14    1
     7    14    15    1
     8    15     1    1
     9     1     2   ar
    10     2     3   ar
    11     3     4   ar
    12     4     5   ar
    13     5    20    1
    14    20    21    1
    15    21    22    1
    16    22    23    1
    17    23    24    1
    18    24    25    1
    19    25    26    1
    20    26    27    2
    21    26    28    1
    22     5     6   ar
    23     6     7   ar
    24     7    30    1
    25    30    31   ar
    26    31    32   ar
    27    32    33   ar
    28    33    36    1
    29    36    37   am
    30    37    38    2
    31    37    39   am
    32    39    42    1
    33    42    43   ar
    34    43    44   ar
    35    44    45   ar
    36    45    48    1
    37    48    49    1
    38    49    50    1
    39    50    51    1
    40    51    52    1
    41    52    53    1
    42    53    54    1
    43    54    55    1
    44    45    46   ar
    45    46    47   ar
    46    33    34   ar
    47    34    35   ar
    48     7     8   ar
    49     8     9   ar
    50    15    16    1
    51    16    17    1
    52    17    12    1
    53     9     1   ar
    54     9     4   ar
    55    25    20    1
    56    35    30   ar
    57    47    42   ar
    58    55    50    1
    59    28    29    1
    60    36    40    1
    61    39    41    1
@<TRIPOS>MOLECULE
*****
 55 61 0 0 0
SMALL
GASTEIGER

@<TRIPOS>ATOM
      1 N         -10.6940   -9.5661   30.7178 N.ar    1  UNL1       -0.2357
      2 N         -11.5602   -9.3622   31.7072 N.ar    1  UNL1       -0.1663
      3 C         -11.9333  -10.5664   32.2091 C.ar    1  UNL1        0.1260
      4 C         -11.2571  -11.5502   31.5163 C.ar    1  UNL1        0.0880
      5 C         -11.2375  -12.9402   31.5612 C.ar    1  UNL1        0.1383
      6 N         -10.4511  -13.5866   30.6487 N.ar    1  UNL1       -0.2117
      7 C          -9.6906  -12.9043   29.7291 C.ar    1  UNL1        0.1653
      8 N          -9.7193  -11.5349   29.7069 N.ar    1  UNL1       -0.2079
      9 C         -10.5057  -10.8909   30.6020 C.ar    1  UNL1        0.1652
     10 C          -5.9074   -8.0029   31.2483 C.2     1  UNL1        0.4050
     11 O          -4.9877   -8.6438   30.6678 O.2     1  UNL1       -0.2262
     12 N          -7.2894   -8.2667   30.9300 N.am    1  UNL1       -0.2459
     13 C          -8.3519   -7.6004   31.6967 C.3     1  UNL1        0.0987
     14 C          -9.5845   -7.3198   30.8213 C.3     1  UNL1        0.0461
     15 C         -10.0087   -8.5185   29.9472 C.3     1  UNL1        0.1102
     16 C          -8.8094   -9.0978   29.1823 C.3     1  UNL1        0.0461
     17 C          -7.6513   -9.4385   30.1199 C.3     1  UNL1        0.0987
     18 C          -4.6450   -7.2654   33.2478 C.3     1  UNL1        0.2573
     19 O          -5.5808   -7.0320   32.2022 O.3     1  UNL1       -0.4304
     20 N         -12.0123  -13.6855   32.5130 N.pl3   1  UNL1       -0.2807
     21 C         -12.3467  -15.0800   32.2108 C.3     1  UNL1        0.1247
     22 C         -13.5759  -15.5073   33.0168 C.3     1  UNL1        0.1636
     23 O         -13.3965  -15.2300   34.3922 O.3     1  UNL1       -0.3496
     24 C         -13.3255  -13.8303   34.5926 C.3     1  UNL1        0.1734
     25 C         -12.0841  -13.2286   33.9085 C.3     1  UNL1        0.2035
     26 C         -10.8186  -13.5910   34.6383 C.2     1  UNL1        0.3346
     27 O          -9.8284  -12.8108   34.6327 O.2     1  UNL1       -0.2484
     28 O         -10.7543  -14.7833   35.3525 O.3     1  UNL1       -0.4790
     29 H          -9.9169  -15.0395   35.8616 H       1  UNL1        0.2951
     30 C          -8.8445  -13.6477   28.7638 C.ar    1  UNL1        0.0360
     31 C          -7.4605  -13.4062   28.6898 C.ar    1  UNL1        0.0043
     32 C          -6.6636  -14.1067   27.7797 C.ar    1  UNL1        0.0148
     33 C          -7.2321  -15.0727   26.9325 C.ar    1  UNL1        0.0516
     34 C          -8.6138  -15.2990   26.9886 C.ar    1  UNL1        0.0148
     35 C          -9.4124  -14.6007   27.8985 C.ar    1  UNL1        0.0043
     36 N          -6.4383  -15.7874   25.9697 N.am    1  UNL1       -0.2681
     37 C          -5.3280  -15.2144   25.2601 C.2     1  UNL1        0.3082
     38 O          -4.7336  -14.2050   25.7253 O.2     1  UNL1       -0.2522
     39 N          -4.8210  -15.8347   24.0699 N.am    1  UNL1       -0.2681
     40 H          -6.6260  -16.8068   25.8361 H       1  UNL1        0.1564
     41 H          -3.8197  -15.6645   23.8227 H       1  UNL1        0.1564
     42 C          -5.5960  -16.6934   23.2168 C.ar    1  UNL1        0.0516
     43 C          -6.8521  -16.2640   22.7652 C.ar    1  UNL1        0.0144
     44 C          -7.6327  -17.0893   21.9507 C.ar    1  UNL1       -0.0029
     45 C          -7.1785  -18.3691   21.5967 C.ar    1  UNL1       -0.0207
     46 C          -5.9265  -18.8057   22.0562 C.ar    1  UNL1       -0.0029
     47 C          -5.1460  -17.9798   22.8702 C.ar    1  UNL1        0.0144
     48 C          -8.0028  -19.2432   20.6892 C.3     1  UNL1        0.0437
     49 C          -9.5006  -19.0012   20.9202 C.3     1  UNL1        0.0769
     50 N          -9.8075  -18.8866   22.3624 N.3     1  UNL1       -0.2681
     51 C         -11.1402  -18.2802   22.5895 C.3     1  UNL1        0.1046
     52 C         -11.6204  -18.5020   24.0371 C.3     1  UNL1        0.1595
     53 O         -10.5316  -18.8197   24.8782 O.3     1  UNL1       -0.3508
     54 C         -10.0049  -20.0856   24.5208 C.3     1  UNL1        0.1595
     55 C          -9.7389  -20.2121   23.0050 C.3     1  UNL1        0.1046
@<TRIPOS>BOND
     1    18    19    1
     2    19    10    1
     3    10    11    2
     4    10    12   am
     5    12    13    1
     6    13    14    1
     7    14    15    1
     8    15     1    1
     9     1     2   ar
    10     2     3   ar
    11     3     4   ar
    12     4     5   ar
    13     5    20    1
    14    20    21    1
    15    21    22    1
    16    22    23    1
    17    23    24    1
    18    24    25    1
    19    25    26    1
    20    26    27    2
    21    26    28    1
    22     5     6   ar
    23     6     7   ar
    24     7    30    1
    25    30    31   ar
    26    31    32   ar
    27    32    33   ar
    28    33    36    1
    29    36    37   am
    30    37    38    2
    31    37    39   am
    32    39    42    1
    33    42    43   ar
    34    43    44   ar
    35    44    45   ar
    36    45    48    1
    37    48    49    1
    38    49    50    1
    39    50    51    1
    40    51    52    1
    41    52    53    1
    42    53    54    1
    43    54    55    1
    44    45    46   ar
    45    46    47   ar
    46    33    34   ar
    47    34    35   ar
    48     7     8   ar
    49     8     9   ar
    50    15    16    1
    51    16    17    1
    52    17    12    1
    53     9     1   ar
    54     9     4   ar
    55    25    20    1
    56    35    30   ar
    57    47    42   ar
    58    55    50    1
    59    28    29    1
    60    36    40    1
    61    39    41    1
@<TRIPOS>MOLECULE
*****
 55 61 0 0 0
SMALL
GASTEIGER

@<TRIPOS>ATOM
      1 N          -7.3866  -19.3630   20.7570 N.ar    1  UNL1       -0.2357
      2 N          -6.6379  -19.7824   19.7399 N.ar    1  UNL1       -0.1663
      3 C          -5.4118  -19.2100   19.8417 C.ar    1  UNL1        0.1260
      4 C          -5.3967  -18.4227   20.9753 C.ar    1  UNL1        0.0880
      5 C          -4.4550  -17.5965   21.5795 C.ar    1  UNL1        0.1383
      6 N          -4.8423  -16.9195   22.7022 N.ar    1  UNL1       -0.2117
      7 C          -6.1023  -17.0530   23.2353 C.ar    1  UNL1        0.1653
      8 N          -7.0122  -17.8775   22.6282 N.ar    1  UNL1       -0.2079
      9 C          -6.6361  -18.5415   21.5093 C.ar    1  UNL1        0.1652
     10 C         -11.5937  -16.5618   20.4571 C.2     1  UNL1        0.4050
     11 O         -12.1618  -16.4310   19.3375 O.2     1  UNL1       -0.2262
     12 N         -10.5445  -17.5367   20.6301 N.am    1  UNL1       -0.2459
     13 C          -9.8108  -17.5969   21.9023 C.3     1  UNL1        0.0987
     14 C          -9.3841  -19.0357   22.2370 C.3     1  UNL1        0.0461
     15 C          -8.7636  -19.7908   21.0430 C.3     1  UNL1        0.1102
     16 C          -9.6456  -19.6684   19.7917 C.3     1  UNL1        0.0461
     17 C          -9.9600  -18.2095   19.4614 C.3     1  UNL1        0.0987
     18 C         -12.7904  -16.2430   22.6023 C.3     1  UNL1        0.2573
     19 O         -11.9875  -15.7577   21.5330 O.3     1  UNL1       -0.4304
     20 N          -3.1274  -17.4392   21.0554 N.pl3   1  UNL1       -0.2807
     21 C          -2.2587  -16.4116   21.6359 C.3     1  UNL1        0.1247
     22 C          -1.1628  -16.0310   20.6372 C.3     1  UNL1        0.1636
     23 O          -0.4840  -17.1819   20.1730 O.3     1  UNL1       -0.3496
     24 C          -1.3699  -17.9879   19.4182 C.3     1  UNL1        0.1734
     25 C          -2.5124  -18.5357   20.2934 C.3     1  UNL1        0.2035
     26 C          -2.0274  -19.6094   21.2300 C.2     1  UNL1        0.3346
     27 O          -2.8118  -20.5083   21.6375 O.2     1  UNL1       -0.2484
     28 O          -0.6927  -19.6278   21.6225 O.3     1  UNL1       -0.4790
     29 H          -0.3429  -20.3495   22.2413 H       1  UNL1        0.2951
     30 C          -6.4754  -16.3057   24.4612 C.ar    1  UNL1        0.0360
     31 C          -5.4867  -15.8582   25.3565 C.ar    1  UNL1        0.0043
     32 C          -5.8388  -15.1545   26.5117 C.ar    1  UNL1        0.0148
     33 C          -7.1868  -14.8723   26.7901 C.ar    1  UNL1        0.0516
     34 C          -8.1749  -15.3363   25.9115 C.ar    1  UNL1        0.0148
     35 C          -7.8252  -16.0392   24.7552 C.ar    1  UNL1        0.0043
     36 N          -7.5764  -14.1733   27.9848 N.am    1  UNL1       -0.2681
     37 C          -8.8488  -14.3364   28.6321 C.2     1  UNL1        0.3082
     38 O          -9.5276  -15.3805   28.4379 O.2     1  UNL1       -0.2522
     39 N          -9.3193  -13.3651   29.5774 N.am    1  UNL1       -0.2681
     40 H          -6.8643  -13.5724   28.4581 H       1  UNL1        0.1564
     41 H          -9.9949  -13.6861   30.3076 H       1  UNL1        0.1564
     42 C          -8.8983  -11.9910   29.5969 C.ar    1  UNL1        0.0516
     43 C          -7.5626  -11.6839   29.8930 C.ar    1  UNL1        0.0144
     44 C          -7.1339  -10.3541   29.9372 C.ar    1  UNL1       -0.0029
     45 C          -8.0429   -9.3091   29.7109 C.ar    1  UNL1       -0.0207
     46 C          -9.3827   -9.6132   29.4251 C.ar    1  UNL1       -0.0029
     47 C          -9.8107  -10.9431   29.3805 C.ar    1  UNL1        0.0144
     48 C          -7.5732   -7.8786   29.7220 C.3     1  UNL1        0.0437
     49 C          -7.8338   -7.2348   31.0905 C.3     1  UNL1        0.0769
     50 N          -8.9741   -6.2948   31.0306 N.3     1  UNL1       -0.2681
     51 C          -8.9009   -5.4247   29.8336 C.3     1  UNL1        0.1046
     52 C         -10.2467   -4.7236   29.5641 C.3     1  UNL1        0.1595
     53 O         -11.0502   -4.7282   30.7252 O.3     1  UNL1       -0.3508
     54 C         -11.4395   -6.0556   31.0320 C.3     1  UNL1        0.1595
     55 C         -10.2480   -7.0377   31.0387 C.3     1  UNL1        0.1046
@<TRIPOS>BOND
     1    18    19    1
     2    19    10    1
     3    10    11    2
     4    10    12   am
     5    12    13    1
     6    13    14    1
     7    14    15    1
     8    15     1    1
     9     1     2   ar
    10     2     3   ar
    11     3     4   ar
    12     4     5   ar
    13     5    20    1
    14    20    21    1
    15    21    22    1
    16    22    23    1
    17    23    24    1
    18    24    25    1
    19    25    26    1
    20    26    27    2
    21    26    28    1
    22     5     6   ar
    23     6     7   ar
    24     7    30    1
    25    30    31   ar
    26    31    32   ar
    27    32    33   ar
    28    33    36    1
    29    36    37   am
    30    37    38    2
    31    37    39   am
    32    39    42    1
    33    42    43   ar
    34    43    44   ar
    35    44    45   ar
    36    45    48    1
    37    48    49    1
    38    49    50    1
    39    50    51    1
    40    51    52    1
    41    52    53    1
    42    53    54    1
    43    54    55    1
    44    45    46   ar
    45    46    47   ar
    46    33    34   ar
    47    34    35   ar
    48     7     8   ar
    49     8     9   ar
    50    15    16    1
    51    16    17    1
    52    17    12    1
    53     9     1   ar
    54     9     4   ar
    55    25    20    1
    56    35    30   ar
    57    47    42   ar
    58    55    50    1
    59    28    29    1
    60    36    40    1
    61    39    41    1
@<TRIPOS>MOLECULE
*****
 55 61 0 0 0
SMALL
GASTEIGER

@<TRIPOS>ATOM
      1 N          -7.5944  -19.2197   21.0204 N.ar    1  UNL1       -0.2357
      2 N          -6.8648  -19.6271   19.9847 N.ar    1  UNL1       -0.1663
      3 C          -5.6306  -19.0714   20.0811 C.ar    1  UNL1        0.1260
      4 C          -5.5905  -18.3076   21.2301 C.ar    1  UNL1        0.0880
      5 C          -4.6307  -17.5052   21.8378 C.ar    1  UNL1        0.1383
      6 N          -4.9944  -16.8468   22.9793 N.ar    1  UNL1       -0.2117
      7 C          -6.2485  -16.9763   23.5271 C.ar    1  UNL1        0.1653
      8 N          -7.1766  -17.7774   22.9160 N.ar    1  UNL1       -0.2079
      9 C          -6.8238  -18.4228   21.7787 C.ar    1  UNL1        0.1652
     10 C         -11.8157  -16.4796   20.4651 C.2     1  UNL1        0.4050
     11 O         -12.3686  -16.4326   19.3312 O.2     1  UNL1       -0.2262
     12 N         -10.7625  -17.4317   20.7211 N.am    1  UNL1       -0.2459
     13 C         -10.0468  -17.3962   22.0044 C.3     1  UNL1        0.0987
     14 C          -9.6151  -18.8045   22.4457 C.3     1  UNL1        0.0461
     15 C          -8.9724  -19.6371   21.3168 C.3     1  UNL1        0.1102
     16 C          -9.8372  -19.6101   20.0478 C.3     1  UNL1        0.0461
     17 C         -10.1567  -18.1806   19.6110 C.3     1  UNL1        0.0987
     18 C         -12.7932  -16.0572   22.7015 C.3     1  UNL1        0.2573
     19 O         -12.2305  -15.6047   21.4760 O.3     1  UNL1       -0.4304
     20 N          -3.3086  -17.3529   21.2986 N.pl3   1  UNL1       -0.2807
     21 C          -2.3985  -16.3916   21.9273 C.3     1  UNL1        0.1247
     22 C          -1.3097  -15.9785   20.9338 C.3     1  UNL1        0.1636
     23 O          -0.6749  -17.1159   20.3821 O.3     1  UNL1       -0.3496
     24 C          -1.5986  -17.8442   19.5943 C.3     1  UNL1        0.1734
     25 C          -2.7414  -18.4145   20.4546 C.3     1  UNL1        0.2035
     26 C          -2.2726  -19.5612   21.3093 C.2     1  UNL1        0.3346
     27 O          -3.0642  -20.4886   21.6298 O.2     1  UNL1       -0.2484
     28 O          -0.9447  -19.6137   21.7212 O.3     1  UNL1       -0.4790
     29 H          -0.6057  -20.3838   22.2854 H       1  UNL1        0.2951
     30 C          -6.5959  -16.2499   24.7729 C.ar    1  UNL1        0.0360
     31 C          -5.6160  -15.5276   25.4781 C.ar    1  UNL1        0.0043
     32 C          -5.9436  -14.8436   26.6523 C.ar    1  UNL1        0.0148
     33 C          -7.2613  -14.8572   27.1397 C.ar    1  UNL1        0.0516
     34 C          -8.2342  -15.5943   26.4515 C.ar    1  UNL1        0.0148
     35 C          -7.9092  -16.2780   25.2766 C.ar    1  UNL1        0.0043
     36 N          -7.6177  -14.1836   28.3592 N.am    1  UNL1       -0.2681
     37 C          -8.8889  -13.5536   28.5868 C.2     1  UNL1        0.3082
     38 O          -9.8955  -13.8989   27.9114 O.2     1  UNL1       -0.2522
     39 N          -9.0535  -12.5977   29.6439 N.am    1  UNL1       -0.2681
     40 H          -6.9455  -14.2234   29.1583 H       1  UNL1        0.1564
     41 H         -10.0114  -12.4774   30.0447 H       1  UNL1        0.1564
     42 C          -7.9806  -11.8197   30.2001 C.ar    1  UNL1        0.0516
     43 C          -8.0158  -11.4685   31.5571 C.ar    1  UNL1        0.0144
     44 C          -6.9938  -10.6959   32.1162 C.ar    1  UNL1       -0.0029
     45 C          -5.9328  -10.2406   31.3183 C.ar    1  UNL1       -0.0207
     46 C          -5.9007  -10.5815   29.9574 C.ar    1  UNL1       -0.0029
     47 C          -6.9226  -11.3545   29.3990 C.ar    1  UNL1        0.0144
     48 C          -4.8133   -9.4398   31.9286 C.3     1  UNL1        0.0437
     49 C          -5.3432   -8.1170   32.4982 C.3     1  UNL1        0.0769
     50 N          -6.3312   -7.5001   31.5867 N.3     1  UNL1       -0.2681
     51 C          -7.5892   -7.1636   32.2936 C.3     1  UNL1        0.1046
     52 C          -8.4588   -6.1971   31.4660 C.3     1  UNL1        0.1595
     53 O          -8.0742   -6.2224   30.1077 O.3     1  UNL1       -0.3508
     54 C          -6.7736   -5.6775   29.9688 C.3     1  UNL1        0.1595
     55 C          -5.7631   -6.2911   30.9622 C.3     1  UNL1        0.1046
@<TRIPOS>BOND
     1    18    19    1
     2    19    10    1
     3    10    11    2
     4    10    12   am
     5    12    13    1
     6    13    14    1
     7    14    15    1
     8    15     1    1
     9     1     2   ar
    10     2     3   ar
    11     3     4   ar
    12     4     5   ar
    13     5    20    1
    14    20    21    1
    15    21    22    1
    16    22    23    1
    17    23    24    1
    18    24    25    1
    19    25    26    1
    20    26    27    2
    21    26    28    1
    22     5     6   ar
    23     6     7   ar
    24     7    30    1
    25    30    31   ar
    26    31    32   ar
    27    32    33   ar
    28    33    36    1
    29    36    37   am
    30    37    38    2
    31    37    39   am
    32    39    42    1
    33    42    43   ar
    34    43    44   ar
    35    44    45   ar
    36    45    48    1
    37    48    49    1
    38    49    50    1
    39    50    51    1
    40    51    52    1
    41    52    53    1
    42    53    54    1
    43    54    55    1
    44    45    46   ar
    45    46    47   ar
    46    33    34   ar
    47    34    35   ar
    48     7     8   ar
    49     8     9   ar
    50    15    16    1
    51    16    17    1
    52    17    12    1
    53     9     1   ar
    54     9     4   ar
    55    25    20    1
    56    35    30   ar
    57    47    42   ar
    58    55    50    1
    59    28    29    1
    60    36    40    1
    61    39    41    1
@<TRIPOS>MOLECULE
*****
 55 61 0 0 0
SMALL
GASTEIGER

@<TRIPOS>ATOM
      1 N         -11.4749  -10.7276   32.0462 N.ar    1  UNL1       -0.2357
      2 N         -11.3758   -9.6838   32.8658 N.ar    1  UNL1       -0.1663
      3 C         -10.1187   -9.1813   32.7745 C.ar    1  UNL1        0.1260
      4 C          -9.4210   -9.9312   31.8492 C.ar    1  UNL1        0.0880
      5 C          -8.1211   -9.9119   31.3551 C.ar    1  UNL1        0.1383
      6 N          -7.7773  -10.8819   30.4551 N.ar    1  UNL1       -0.2117
      7 C          -8.6739  -11.8340   30.0318 C.ar    1  UNL1        0.1653
      8 N          -9.9515  -11.8303   30.5260 N.ar    1  UNL1       -0.2079
      9 C         -10.2930  -10.8778   31.4262 C.ar    1  UNL1        0.1652
     10 C         -12.5381  -15.3329   33.8620 C.2     1  UNL1        0.4050
     11 O         -13.0329  -15.4340   35.0189 O.2     1  UNL1       -0.2262
     12 N         -12.4480  -14.0440   33.2203 N.am    1  UNL1       -0.2459
     13 C         -11.7627  -13.9229   31.9257 C.3     1  UNL1        0.0987
     14 C         -12.4038  -12.8331   31.0506 C.3     1  UNL1        0.0461
     15 C         -12.6901  -11.5199   31.8083 C.3     1  UNL1        0.1102
     16 C         -13.4330  -11.7910   33.1250 C.3     1  UNL1        0.0461
     17 C         -12.6983  -12.8162   33.9885 C.3     1  UNL1        0.0987
     18 C         -12.7650  -17.0575   32.0986 C.3     1  UNL1        0.2573
     19 O         -12.0785  -16.4782   33.2016 O.3     1  UNL1       -0.4304
     20 N          -7.1605   -8.9279   31.7684 N.pl3   1  UNL1       -0.2807
     21 C          -5.7489   -9.3133   31.8506 C.3     1  UNL1        0.1247
     22 C          -5.0042   -8.3652   32.7939 C.3     1  UNL1        0.1636
     23 O          -5.2258   -7.0166   32.4291 O.3     1  UNL1       -0.3496
     24 C          -6.5895   -6.6875   32.6196 C.3     1  UNL1        0.1734
     25 C          -7.4986   -7.5001   31.6791 C.3     1  UNL1        0.2035
     26 C          -7.3850   -7.0287   30.2542 C.2     1  UNL1        0.3346
     27 O          -8.2590   -7.3437   29.4021 O.2     1  UNL1       -0.2484
     28 O          -6.3225   -6.2104   29.8835 O.3     1  UNL1       -0.4790
     29 H          -6.2350   -5.8711   28.9330 H       1  UNL1        0.2951
     30 C          -8.2590  -12.8619   29.0461 C.ar    1  UNL1        0.0360
     31 C          -6.9147  -12.9686   28.6449 C.ar    1  UNL1        0.0043
     32 C          -6.5242  -13.9371   27.7158 C.ar    1  UNL1        0.0148
     33 C          -7.4679  -14.8279   27.1771 C.ar    1  UNL1        0.0516
     34 C          -8.8112  -14.7091   27.5581 C.ar    1  UNL1        0.0148
     35 C          -9.2037  -13.7422   28.4878 C.ar    1  UNL1        0.0043
     36 N          -7.0960  -15.8153   26.2001 N.am    1  UNL1       -0.2681
     37 C          -6.1861  -15.5693   25.1156 C.2     1  UNL1        0.3082
     38 O          -5.3570  -14.6228   25.1885 O.2     1  UNL1       -0.2522
     39 N          -6.1415  -16.4492   23.9833 N.am    1  UNL1       -0.2681
     40 H          -7.4425  -16.7925   26.3311 H       1  UNL1        0.1564
     41 H          -5.2472  -16.5024   23.4449 H       1  UNL1        0.1564
     42 C          -7.2386  -17.2776   23.5638 C.ar    1  UNL1        0.0516
     43 C          -8.5096  -17.0707   24.1187 C.ar    1  UNL1        0.0144
     44 C          -9.5877  -17.8763   23.7411 C.ar    1  UNL1       -0.0029
     45 C          -9.4040  -18.9195   22.8205 C.ar    1  UNL1       -0.0207
     46 C          -8.1307  -19.1358   22.2718 C.ar    1  UNL1       -0.0029
     47 C          -7.0531  -18.3296   22.6492 C.ar    1  UNL1        0.0144
     48 C         -10.5730  -19.7632   22.3861 C.3     1  UNL1        0.0437
     49 C         -10.7873  -19.6504   20.8707 C.3     1  UNL1        0.0769
     50 N         -11.5983  -18.4608   20.5325 N.3     1  UNL1       -0.2681
     51 C         -12.3823  -17.9867   21.6970 C.3     1  UNL1        0.1046
     52 C         -12.9199  -16.5602   21.4706 C.3     1  UNL1        0.1595
     53 O         -12.9170  -16.2409   20.0951 O.3     1  UNL1       -0.3508
     54 C         -11.5823  -16.1553   19.6271 C.3     1  UNL1        0.1595
     55 C         -10.7309  -17.3781   20.0322 C.3     1  UNL1        0.1046
@<TRIPOS>BOND
     1    18    19    1
     2    19    10    1
     3    10    11    2
     4    10    12   am
     5    12    13    1
     6    13    14    1
     7    14    15    1
     8    15     1    1
     9     1     2   ar
    10     2     3   ar
    11     3     4   ar
    12     4     5   ar
    13     5    20    1
    14    20    21    1
    15    21    22    1
    16    22    23    1
    17    23    24    1
    18    24    25    1
    19    25    26    1
    20    26    27    2
    21    26    28    1
    22     5     6   ar
    23     6     7   ar
    24     7    30    1
    25    30    31   ar
    26    31    32   ar
    27    32    33   ar
    28    33    36    1
    29    36    37   am
    30    37    38    2
    31    37    39   am
    32    39    42    1
    33    42    43   ar
    34    43    44   ar
    35    44    45   ar
    36    45    48    1
    37    48    49    1
    38    49    50    1
    39    50    51    1
    40    51    52    1
    41    52    53    1
    42    53    54    1
    43    54    55    1
    44    45    46   ar
    45    46    47   ar
    46    33    34   ar
    47    34    35   ar
    48     7     8   ar
    49     8     9   ar
    50    15    16    1
    51    16    17    1
    52    17    12    1
    53     9     1   ar
    54     9     4   ar
    55    25    20    1
    56    35    30   ar
    57    47    42   ar
    58    55    50    1
    59    28    29    1
    60    36    40    1
    61    39    41    1
@<TRIPOS>MOLECULE
*****
 55 61 0 0 0
SMALL
GASTEIGER

@<TRIPOS>ATOM
      1 N         -10.2279   -9.5362   30.8911 N.ar    1  UNL1       -0.2357
      2 N         -11.0063   -9.3188   31.9484 N.ar    1  UNL1       -0.1663
      3 C         -11.3813  -10.5176   32.4618 C.ar    1  UNL1        0.1260
      4 C         -10.7965  -11.5126   31.7047 C.ar    1  UNL1        0.0880
      5 C         -10.8226  -12.9029   31.7292 C.ar    1  UNL1        0.1383
      6 N         -10.1334  -13.5609   30.7489 N.ar    1  UNL1       -0.2117
      7 C          -9.4236  -12.8902   29.7815 C.ar    1  UNL1        0.1653
      8 N          -9.4056  -11.5205   29.7800 N.ar    1  UNL1       -0.2079
      9 C         -10.0962  -10.8646   30.7429 C.ar    1  UNL1        0.1652
     10 C          -5.4357   -7.9446   31.2622 C.2     1  UNL1        0.4050
     11 O          -4.5293   -8.5925   30.6687 O.2     1  UNL1       -0.2262
     12 N          -6.8247   -8.2197   30.9866 N.am    1  UNL1       -0.2459
     13 C          -7.8688   -7.5436   31.7696 C.3     1  UNL1        0.0987
     14 C          -9.1261   -7.2840   30.9232 C.3     1  UNL1        0.0461
     15 C          -9.5685   -8.5002   30.0831 C.3     1  UNL1        0.1102
     16 C          -8.3879   -9.0887   29.2965 C.3     1  UNL1        0.0461
     17 C          -7.2032   -9.4076   30.2082 C.3     1  UNL1        0.0987
     18 C          -4.4435   -7.2492   33.4226 C.3     1  UNL1        0.2573
     19 O          -5.0876   -6.9550   32.1889 O.3     1  UNL1       -0.4304
     20 N         -11.5463  -13.6367   32.7290 N.pl3   1  UNL1       -0.2807
     21 C         -11.3015  -13.3314   34.1413 C.3     1  UNL1        0.1247
     22 C         -11.7077  -14.5244   35.0101 C.3     1  UNL1        0.1636
     23 O         -13.0300  -14.9325   34.7170 O.3     1  UNL1       -0.3496
     24 C         -13.0935  -15.4347   33.3948 C.3     1  UNL1        0.1734
     25 C         -12.7873  -14.3342   32.3622 C.3     1  UNL1        0.2035
     26 C         -13.9206  -13.3503   32.2481 C.2     1  UNL1        0.3346
     27 O         -13.8716  -12.4088   31.4111 O.2     1  UNL1       -0.2484
     28 O         -15.0464  -13.5021   33.0515 O.3     1  UNL1       -0.4790
     29 H         -15.8258  -12.8590   32.9807 H       1  UNL1        0.2951
     30 C          -8.6825  -13.6464   28.7425 C.ar    1  UNL1        0.0360
     31 C          -9.3538  -14.5490   27.8976 C.ar    1  UNL1        0.0043
     32 C          -8.6550  -15.2617   26.9190 C.ar    1  UNL1        0.0148
     33 C          -7.2715  -15.0776   26.7563 C.ar    1  UNL1        0.0516
     34 C          -6.5969  -14.1960   27.6114 C.ar    1  UNL1        0.0148
     35 C          -7.2937  -13.4815   28.5898 C.ar    1  UNL1        0.0043
     36 N          -6.5259  -15.8182   25.7749 N.am    1  UNL1       -0.2681
     37 C          -5.3886  -15.2966   25.0684 C.2     1  UNL1        0.3082
     38 O          -4.7344  -14.3321   25.5482 O.2     1  UNL1       -0.2522
     39 N          -4.9251  -15.9222   23.8633 N.am    1  UNL1       -0.2681
     40 H          -6.7728  -16.8224   25.6236 H       1  UNL1        0.1564
     41 H          -3.9172  -15.8051   23.6124 H       1  UNL1        0.1564
     42 C          -5.7533  -16.7185   22.9997 C.ar    1  UNL1        0.0516
     43 C          -5.3020  -17.9788   22.5825 C.ar    1  UNL1        0.0144
     44 C          -6.0809  -18.7633   21.7271 C.ar    1  UNL1       -0.0029
     45 C          -7.3134  -18.2864   21.2548 C.ar    1  UNL1       -0.0207
     46 C          -7.7626  -17.0209   21.6620 C.ar    1  UNL1       -0.0029
     47 C          -6.9836  -16.2371   22.5179 C.ar    1  UNL1        0.0144
     48 C          -8.1690  -19.1467   20.3631 C.3     1  UNL1        0.0437
     49 C          -9.1232  -20.0101   21.1993 C.3     1  UNL1        0.0769
     50 N          -9.7054  -19.2352   22.3164 N.3     1  UNL1       -0.2681
     51 C         -11.0964  -18.8172   22.0230 C.3     1  UNL1        0.1046
     52 C         -11.8256  -18.3529   23.2989 C.3     1  UNL1        0.1595
     53 O         -10.8965  -18.0264   24.3109 O.3     1  UNL1       -0.3508
     54 C         -10.2237  -19.1979   24.7382 C.3     1  UNL1        0.1595
     55 C          -9.6668  -20.0264   23.5602 C.3     1  UNL1        0.1046
@<TRIPOS>BOND
     1    18    19    1
     2    19    10    1
     3    10    11    2
     4    10    12   am
     5    12    13    1
     6    13    14    1
     7    14    15    1
     8    15     1    1
     9     1     2   ar
    10     2     3   ar
    11     3     4   ar
    12     4     5   ar
    13     5    20    1
    14    20    21    1
    15    21    22    1
    16    22    23    1
    17    23    24    1
    18    24    25    1
    19    25    26    1
    20    26    27    2
    21    26    28    1
    22     5     6   ar
    23     6     7   ar
    24     7    30    1
    25    30    31   ar
    26    31    32   ar
    27    32    33   ar
    28    33    36    1
    29    36    37   am
    30    37    38    2
    31    37    39   am
    32    39    42    1
    33    42    43   ar
    34    43    44   ar
    35    44    45   ar
    36    45    48    1
    37    48    49    1
    38    49    50    1
    39    50    51    1
    40    51    52    1
    41    52    53    1
    42    53    54    1
    43    54    55    1
    44    45    46   ar
    45    46    47   ar
    46    33    34   ar
    47    34    35   ar
    48     7     8   ar
    49     8     9   ar
    50    15    16    1
    51    16    17    1
    52    17    12    1
    53     9     1   ar
    54     9     4   ar
    55    25    20    1
    56    35    30   ar
    57    47    42   ar
    58    55    50    1
    59    28    29    1
    60    36    40    1
    61    39    41    1
