@<TRIPOS>MOLECULE
*****
 38 42 0 0 0
SMALL
GASTEIGER

@<TRIPOS>ATOM
      1 C         -22.6271   -8.5095  -10.3687 C.2     1  UNL1        0.2506
      2 O         -23.7933   -8.9260  -10.1311 O.2     1  UNL1       -0.2699
      3 N         -22.3487   -7.8087  -11.5976 N.am    1  UNL1       -0.2679
      4 C         -21.4324   -6.6640  -11.5967 C.3     1  UNL1        0.1412
      5 C         -20.0810   -7.0761  -12.1735 C.3     1  UNL1        0.2268
      6 O         -20.2251   -8.0888  -13.1671 O.3     1  UNL1       -0.4738
      7 C         -21.0829   -7.9548  -14.2610 C.ar    1  UNL1        0.1384
      8 C         -20.5143   -7.9144  -15.5362 C.ar    1  UNL1        0.0368
      9 C         -21.3142   -7.7609  -16.6660 C.ar    1  UNL1        0.0053
     10 C         -22.7071   -7.6669  -16.5426 C.ar    1  UNL1        0.0275
     11 C         -23.2900   -7.7262  -15.2618 C.ar    1  UNL1        0.1406
     12 F         -24.6400   -7.6315  -15.1330 F       1  UNL1       -0.2043
     13 C         -22.4899   -7.8662  -14.1084 C.ar    1  UNL1        0.0591
     14 C         -23.1961   -8.0555  -12.7725 C.3     1  UNL1        0.1258
     15 C         -23.5437   -7.5193  -17.7575 C.ar    1  UNL1        0.0037
     16 C         -24.2652   -6.3170  -17.9953 C.ar    1  UNL1        0.0017
     17 C         -25.0677   -6.1736  -19.1429 C.ar    1  UNL1        0.0206
     18 C         -25.1316   -7.2460  -20.0266 C.ar    1  UNL1        0.0985
     19 N         -25.8295   -7.3279  -21.1736 N.ar    1  UNL1       -0.2241
     20 C         -25.5324   -8.5773  -21.6192 C.ar    1  UNL1        0.1750
     21 N         -24.6918   -9.2571  -20.8027 N.ar    1  UNL1       -0.3349
     22 C         -24.4496   -8.4019  -19.8026 C.ar    1  UNL1        0.0757
     23 C         -23.6453   -8.5865  -18.6814 C.ar    1  UNL1        0.0186
     24 H         -24.3208  -10.2251  -20.9278 H       1  UNL1        0.1675
     25 C         -20.3994   -9.4725   -9.6729 C.ar    1  UNL1        0.0503
     26 C         -19.4007   -9.5978   -8.6854 C.ar    1  UNL1        0.0328
     27 C         -19.5720   -9.0359   -7.4145 C.ar    1  UNL1        0.1069
     28 C         -20.7437   -8.3341   -7.1185 C.ar    1  UNL1        0.0186
     29 C         -21.7380   -8.1914   -8.0851 C.ar    1  UNL1        0.0071
     30 C         -21.5708   -8.7380   -9.3652 C.ar    1  UNL1        0.0667
     31 S         -18.3024   -9.1962   -6.2049 S.O2    1  UNL1        0.0105
     32 C         -19.0413   -9.4218   -4.6034 C.3     1  UNL1        0.1816
     33 O         -17.4504   -7.9580   -6.1984 O.2     1  UNL1       -0.1686
     34 O         -17.4320  -10.3790   -6.5253 O.2     1  UNL1       -0.1686
     35 N         -20.2548  -10.1087  -10.9631 N.pl3   1  UNL1       -0.3325
     36 H         -19.8782   -9.5581  -11.7667 H       1  UNL1        0.1468
     37 C         -21.5590  -11.6006  -12.4114 C.3     1  UNL1        0.0229
     38 C         -20.5854  -11.5060  -11.2421 C.3     1  UNL1        0.0871
@<TRIPOS>BOND
     1    37    38    1
     2    38    35    1
     3    35    25    1
     4    25    26   ar
     5    26    27   ar
     6    27    31    1
     7    31    32    1
     8    31    33    2
     9    31    34    2
    10    27    28   ar
    11    28    29   ar
    12    29    30   ar
    13    30     1    1
    14     1     2    2
    15     1     3   am
    16     3     4    1
    17     4     5    1
    18     5     6    1
    19     6     7    1
    20     7     8   ar
    21     8     9   ar
    22     9    10   ar
    23    10    15    1
    24    15    16   ar
    25    16    17   ar
    26    17    18   ar
    27    18    19   ar
    28    19    20   ar
    29    20    21   ar
    30    21    22   ar
    31    22    23   ar
    32    10    11   ar
    33    11    12    1
    34    11    13   ar
    35    13    14    1
    36    30    25   ar
    37    14     3    1
    38    13     7   ar
    39    23    15   ar
    40    22    18   ar
    41    35    36    1
    42    21    24    1
@<TRIPOS>MOLECULE
*****
 38 42 0 0 0
SMALL
GASTEIGER

@<TRIPOS>ATOM
      1 C         -21.7131   -8.1394   -9.3965 C.2     1  UNL1        0.2506
      2 O         -22.4781   -7.9896   -8.4054 O.2     1  UNL1       -0.2699
      3 N         -22.0132   -7.4817  -10.6440 N.am    1  UNL1       -0.2679
      4 C         -20.9293   -6.9142  -11.4523 C.3     1  UNL1        0.1412
      5 C         -20.6329   -7.8236  -12.6412 C.3     1  UNL1        0.2268
      6 O         -21.8083   -8.4949  -13.0901 O.3     1  UNL1       -0.4738
      7 C         -22.9868   -7.8178  -13.4111 C.ar    1  UNL1        0.1384
      8 C         -23.4274   -7.8649  -14.7357 C.ar    1  UNL1        0.0368
      9 C         -24.5839   -7.1928  -15.1239 C.ar    1  UNL1        0.0053
     10 C         -25.3375   -6.4754  -14.1849 C.ar    1  UNL1        0.0275
     11 C         -24.9106   -6.4388  -12.8433 C.ar    1  UNL1        0.1406
     12 F         -25.6335   -5.7418  -11.9270 F       1  UNL1       -0.2043
     13 C         -23.7330   -7.1027  -12.4402 C.ar    1  UNL1        0.0591
     14 C         -23.4060   -7.1295  -10.9531 C.3     1  UNL1        0.1258
     15 C         -26.5740   -5.7789  -14.6134 C.ar    1  UNL1        0.0037
     16 C         -26.5008   -4.5388  -15.3058 C.ar    1  UNL1        0.0017
     17 C         -27.6714   -3.8685  -15.7082 C.ar    1  UNL1        0.0206
     18 C         -28.8934   -4.4581  -15.4012 C.ar    1  UNL1        0.0985
     19 N         -30.1249   -3.9975  -15.6854 N.ar    1  UNL1       -0.2241
     20 C         -30.9340   -4.9550  -15.1600 C.ar    1  UNL1        0.1750
     21 N         -30.2581   -5.9713  -14.5719 N.ar    1  UNL1       -0.3349
     22 C         -28.9716   -5.6408  -14.7332 C.ar    1  UNL1        0.0757
     23 C         -27.8403   -6.3369  -14.3166 C.ar    1  UNL1        0.0186
     24 H         -30.6531   -6.8159  -14.1018 H       1  UNL1        0.1675
     25 C         -19.6638   -8.8713   -8.1166 C.ar    1  UNL1        0.0503
     26 C         -18.5660   -9.7495   -8.0072 C.ar    1  UNL1        0.0328
     27 C         -18.2954  -10.6900   -9.0083 C.ar    1  UNL1        0.1069
     28 C         -19.1260  -10.7683  -10.1295 C.ar    1  UNL1        0.0186
     29 C         -20.2216   -9.9149  -10.2506 C.ar    1  UNL1        0.0071
     30 C         -20.5099   -8.9789   -9.2474 C.ar    1  UNL1        0.0667
     31 S         -16.9256  -11.7836   -8.8391 S.O2    1  UNL1        0.0105
     32 C         -16.5204  -11.9563   -7.1165 C.3     1  UNL1        0.1816
     33 O         -15.7424  -11.2317   -9.5837 O.2     1  UNL1       -0.1686
     34 O         -17.2689  -13.1312   -9.4098 O.2     1  UNL1       -0.1686
     35 N         -19.9063   -7.8545   -7.1178 N.pl3   1  UNL1       -0.3325
     36 H         -20.6702   -7.1587   -7.2697 H       1  UNL1        0.1468
     37 C         -19.7968   -8.5784   -4.7750 C.3     1  UNL1        0.0229
     38 C         -19.1604   -7.7248   -5.8662 C.3     1  UNL1        0.0871
@<TRIPOS>BOND
     1    37    38    1
     2    38    35    1
     3    35    25    1
     4    25    26   ar
     5    26    27   ar
     6    27    31    1
     7    31    32    1
     8    31    33    2
     9    31    34    2
    10    27    28   ar
    11    28    29   ar
    12    29    30   ar
    13    30     1    1
    14     1     2    2
    15     1     3   am
    16     3     4    1
    17     4     5    1
    18     5     6    1
    19     6     7    1
    20     7     8   ar
    21     8     9   ar
    22     9    10   ar
    23    10    15    1
    24    15    16   ar
    25    16    17   ar
    26    17    18   ar
    27    18    19   ar
    28    19    20   ar
    29    20    21   ar
    30    21    22   ar
    31    22    23   ar
    32    10    11   ar
    33    11    12    1
    34    11    13   ar
    35    13    14    1
    36    30    25   ar
    37    14     3    1
    38    13     7   ar
    39    23    15   ar
    40    22    18   ar
    41    35    36    1
    42    21    24    1
@<TRIPOS>MOLECULE
*****
 38 42 0 0 0
SMALL
GASTEIGER

@<TRIPOS>ATOM
      1 C         -22.0796   -8.0394   -9.4821 C.2     1  UNL1        0.2506
      2 O         -22.8687   -7.8765   -8.5122 O.2     1  UNL1       -0.2699
      3 N         -22.3291   -7.3696  -10.7342 N.am    1  UNL1       -0.2679
      4 C         -21.2101   -6.8235  -11.5087 C.3     1  UNL1        0.1412
      5 C         -20.9009   -7.7343  -12.6934 C.3     1  UNL1        0.2268
      6 O         -22.0781   -8.3765  -13.1786 O.3     1  UNL1       -0.4738
      7 C         -23.2313   -7.6711  -13.5293 C.ar    1  UNL1        0.1384
      8 C         -23.6352   -7.7023  -14.8661 C.ar    1  UNL1        0.0368
      9 C         -24.7646   -7.0021  -15.2834 C.ar    1  UNL1        0.0053
     10 C         -25.5280   -6.2719  -14.3625 C.ar    1  UNL1        0.0275
     11 C         -25.1385   -6.2509  -13.0091 C.ar    1  UNL1        0.1406
     12 F         -25.8711   -5.5416  -12.1101 F       1  UNL1       -0.2043
     13 C         -23.9882   -6.9434  -12.5763 C.ar    1  UNL1        0.0591
     14 C         -23.7042   -6.9842  -11.0807 C.3     1  UNL1        0.1258
     15 C         -26.7357   -5.5453  -14.8221 C.ar    1  UNL1        0.0037
     16 C         -26.6129   -4.3513  -15.5850 C.ar    1  UNL1        0.0017
     17 C         -27.7557   -3.6524  -16.0176 C.ar    1  UNL1        0.0206
     18 C         -29.0001   -4.1673  -15.6694 C.ar    1  UNL1        0.0985
     19 N         -30.2121   -3.6680  -15.9715 N.ar    1  UNL1       -0.2241
     20 C         -31.0588   -4.5562  -15.3867 C.ar    1  UNL1        0.1750
     21 N         -30.4241   -5.5670  -14.7457 N.ar    1  UNL1       -0.3349
     22 C         -29.1256   -5.3052  -14.9341 C.ar    1  UNL1        0.0757
     23 C         -28.0230   -6.0272  -14.4856 C.ar    1  UNL1        0.0186
     24 H         -30.8526   -6.3645  -14.2254 H       1  UNL1        0.1675
     25 C         -20.6909  -10.0522  -10.1098 C.ar    1  UNL1        0.0503
     26 C         -19.5096  -10.8006   -9.9282 C.ar    1  UNL1        0.0328
     27 C         -18.5742  -10.4410   -8.9505 C.ar    1  UNL1        0.1069
     28 C         -18.8064   -9.3218   -8.1464 C.ar    1  UNL1        0.0186
     29 C         -19.9639   -8.5640   -8.3179 C.ar    1  UNL1        0.0071
     30 C         -20.9004   -8.9069   -9.3033 C.ar    1  UNL1        0.0667
     31 S         -17.1011  -11.3856   -8.7546 S.O2    1  UNL1        0.0105
     32 C         -17.3830  -13.0419   -9.3365 C.3     1  UNL1        0.1816
     33 O         -16.7107  -11.4194   -7.3036 O.2     1  UNL1       -0.1686
     34 O         -15.9816  -10.7630   -9.5409 O.2     1  UNL1       -0.1686
     35 N         -21.6899  -10.4599  -11.0721 N.pl3   1  UNL1       -0.3325
     36 H         -22.5991   -9.9478  -11.1152 H       1  UNL1        0.1468
     37 C         -22.7375  -11.6471  -12.9476 C.3     1  UNL1        0.0229
     38 C         -21.5228  -11.5514  -12.0314 C.3     1  UNL1        0.0871
@<TRIPOS>BOND
     1    37    38    1
     2    38    35    1
     3    35    25    1
     4    25    26   ar
     5    26    27   ar
     6    27    31    1
     7    31    32    1
     8    31    33    2
     9    31    34    2
    10    27    28   ar
    11    28    29   ar
    12    29    30   ar
    13    30     1    1
    14     1     2    2
    15     1     3   am
    16     3     4    1
    17     4     5    1
    18     5     6    1
    19     6     7    1
    20     7     8   ar
    21     8     9   ar
    22     9    10   ar
    23    10    15    1
    24    15    16   ar
    25    16    17   ar
    26    17    18   ar
    27    18    19   ar
    28    19    20   ar
    29    20    21   ar
    30    21    22   ar
    31    22    23   ar
    32    10    11   ar
    33    11    12    1
    34    11    13   ar
    35    13    14    1
    36    30    25   ar
    37    14     3    1
    38    13     7   ar
    39    23    15   ar
    40    22    18   ar
    41    35    36    1
    42    21    24    1
@<TRIPOS>MOLECULE
*****
 38 42 0 0 0
SMALL
GASTEIGER

@<TRIPOS>ATOM
      1 C         -21.8818   -9.8067  -13.0898 C.2     1  UNL1        0.2506
      2 O         -21.5563  -10.0761  -14.2778 O.2     1  UNL1       -0.2699
      3 N         -23.1524   -9.1833  -12.8146 N.am    1  UNL1       -0.2679
      4 C         -23.9250   -9.5846  -11.6346 C.3     1  UNL1        0.1412
      5 C         -23.7964   -8.5274  -10.5417 C.3     1  UNL1        0.2268
      6 O         -23.6462   -7.2214  -11.0945 O.3     1  UNL1       -0.4738
      7 C         -24.5348   -6.6940  -12.0340 C.ar    1  UNL1        0.1384
      8 C         -25.2868   -5.5758  -11.6663 C.ar    1  UNL1        0.0368
      9 C         -26.2056   -5.0157  -12.5506 C.ar    1  UNL1        0.0053
     10 C         -26.3744   -5.5527  -13.8341 C.ar    1  UNL1        0.0275
     11 C         -25.6061   -6.6684  -14.2196 C.ar    1  UNL1        0.1406
     12 F         -25.7666   -7.1980  -15.4613 F       1  UNL1       -0.2043
     13 C         -24.6830   -7.2544  -13.3281 C.ar    1  UNL1        0.0591
     14 C         -23.7951   -8.3723  -13.8580 C.3     1  UNL1        0.1258
     15 C         -27.3460   -4.9338  -14.7672 C.ar    1  UNL1        0.0037
     16 C         -28.7442   -5.1033  -14.5703 C.ar    1  UNL1        0.0017
     17 C         -29.6717   -4.5250  -15.4573 C.ar    1  UNL1        0.0206
     18 C         -29.1727   -3.7909  -16.5283 C.ar    1  UNL1        0.0985
     19 N         -29.8694   -3.1586  -17.4896 N.ar    1  UNL1       -0.2241
     20 C         -28.8923   -2.6168  -18.2639 C.ar    1  UNL1        0.1750
     21 N         -27.6403   -2.8877  -17.8230 N.ar    1  UNL1       -0.3349
     22 C         -27.8363   -3.6300  -16.7271 C.ar    1  UNL1        0.0757
     23 C         -26.8848   -4.1844  -15.8756 C.ar    1  UNL1        0.0186
     24 H         -26.7336   -2.5857  -18.2439 H       1  UNL1        0.1675
     25 C         -20.6350  -11.5013  -11.6942 C.ar    1  UNL1        0.0503
     26 C         -19.6883  -11.7606  -10.6818 C.ar    1  UNL1        0.0328
     27 C         -19.0934  -10.7129   -9.9686 C.ar    1  UNL1        0.1069
     28 C         -19.4336   -9.3903  -10.2657 C.ar    1  UNL1        0.0186
     29 C         -20.3602   -9.1141  -11.2700 C.ar    1  UNL1        0.0071
     30 C         -20.9515  -10.1550  -11.9997 C.ar    1  UNL1        0.0667
     31 S         -17.9041  -11.0651   -8.7187 S.O2    1  UNL1        0.0105
     32 C         -18.2401  -10.0637   -7.2884 C.3     1  UNL1        0.1816
     33 O         -16.5245  -10.7641   -9.2336 O.2     1  UNL1       -0.1686
     34 O         -17.9708  -12.5179   -8.3390 O.2     1  UNL1       -0.1686
     35 N         -21.3007  -12.5825  -12.3856 N.pl3   1  UNL1       -0.3325
     36 H         -22.2940  -12.8054  -12.1525 H       1  UNL1        0.1468
     37 C         -21.6272  -13.5441  -14.6202 C.3     1  UNL1        0.0229
     38 C         -20.6868  -13.4045  -13.4283 C.3     1  UNL1        0.0871
@<TRIPOS>BOND
     1    37    38    1
     2    38    35    1
     3    35    25    1
     4    25    26   ar
     5    26    27   ar
     6    27    31    1
     7    31    32    1
     8    31    33    2
     9    31    34    2
    10    27    28   ar
    11    28    29   ar
    12    29    30   ar
    13    30     1    1
    14     1     2    2
    15     1     3   am
    16     3     4    1
    17     4     5    1
    18     5     6    1
    19     6     7    1
    20     7     8   ar
    21     8     9   ar
    22     9    10   ar
    23    10    15    1
    24    15    16   ar
    25    16    17   ar
    26    17    18   ar
    27    18    19   ar
    28    19    20   ar
    29    20    21   ar
    30    21    22   ar
    31    22    23   ar
    32    10    11   ar
    33    11    12    1
    34    11    13   ar
    35    13    14    1
    36    30    25   ar
    37    14     3    1
    38    13     7   ar
    39    23    15   ar
    40    22    18   ar
    41    35    36    1
    42    21    24    1
@<TRIPOS>MOLECULE
*****
 38 42 0 0 0
SMALL
GASTEIGER

@<TRIPOS>ATOM
      1 C         -20.4379   -8.4810  -10.4548 C.2     1  UNL1        0.2506
      2 O         -19.8046   -7.8154  -11.3185 O.2     1  UNL1       -0.2699
      3 N         -21.8175   -8.8313  -10.6844 N.am    1  UNL1       -0.2679
      4 C         -22.3168  -10.1482  -10.2762 C.3     1  UNL1        0.1412
      5 C         -23.1390  -10.0216   -8.9969 C.3     1  UNL1        0.2268
      6 O         -23.8105   -8.7653   -8.9307 O.3     1  UNL1       -0.4738
      7 C         -24.6285   -8.2929   -9.9594 C.ar    1  UNL1        0.1384
      8 C         -25.9880   -8.1232   -9.6874 C.ar    1  UNL1        0.0368
      9 C         -26.8599   -7.6755  -10.6771 C.ar    1  UNL1        0.0053
     10 C         -26.3820   -7.3663  -11.9578 C.ar    1  UNL1        0.0275
     11 C         -25.0093   -7.5163  -12.2347 C.ar    1  UNL1        0.1406
     12 F         -24.5382   -7.2226  -13.4756 F       1  UNL1       -0.2043
     13 C         -24.1182   -7.9832  -11.2456 C.ar    1  UNL1        0.0591
     14 C         -22.6318   -7.9942  -11.5765 C.3     1  UNL1        0.1258
     15 C         -27.3222   -6.8765  -12.9940 C.ar    1  UNL1        0.0037
     16 C         -28.4162   -7.6820  -13.4146 C.ar    1  UNL1        0.0017
     17 C         -29.3078   -7.2260  -14.4038 C.ar    1  UNL1        0.0206
     18 C         -29.0775   -5.9692  -14.9537 C.ar    1  UNL1        0.0985
     19 N         -29.7941   -5.3415  -15.9034 N.ar    1  UNL1       -0.2241
     20 C         -29.1288   -4.1660  -16.0561 C.ar    1  UNL1        0.1750
     21 N         -28.0465   -4.0484  -15.2496 N.ar    1  UNL1       -0.3349
     22 C         -28.0292   -5.1956  -14.5613 C.ar    1  UNL1        0.0757
     23 C         -27.1236   -5.6071  -13.5874 C.ar    1  UNL1        0.0186
     24 H         -27.3812   -3.2462  -15.1835 H       1  UNL1        0.1675
     25 C         -18.9237  -10.0604   -9.1953 C.ar    1  UNL1        0.0503
     26 C         -18.2327  -10.3693   -8.0055 C.ar    1  UNL1        0.0328
     27 C         -18.3704   -9.5680   -6.8657 C.ar    1  UNL1        0.1069
     28 C         -19.1967   -8.4416   -6.9052 C.ar    1  UNL1        0.0186
     29 C         -19.8802   -8.1148   -8.0754 C.ar    1  UNL1        0.0071
     30 C         -19.7386   -8.9024   -9.2266 C.ar    1  UNL1        0.0667
     31 S         -17.4849   -9.9695   -5.3975 S.O2    1  UNL1        0.0105
     32 C         -16.9164   -8.4720   -4.6257 C.3     1  UNL1        0.1816
     33 O         -16.3085  -10.8405   -5.7382 O.2     1  UNL1       -0.1686
     34 O         -18.3775  -10.7152   -4.4454 O.2     1  UNL1       -0.1686
     35 N         -18.8366  -10.9231  -10.3522 N.pl3   1  UNL1       -0.3325
     36 H         -18.6347  -10.5063  -11.2883 H       1  UNL1        0.1468
     37 C         -19.9477  -12.8354  -11.4167 C.3     1  UNL1        0.0229
     38 C         -18.9950  -12.3768  -10.3183 C.3     1  UNL1        0.0871
@<TRIPOS>BOND
     1    37    38    1
     2    38    35    1
     3    35    25    1
     4    25    26   ar
     5    26    27   ar
     6    27    31    1
     7    31    32    1
     8    31    33    2
     9    31    34    2
    10    27    28   ar
    11    28    29   ar
    12    29    30   ar
    13    30     1    1
    14     1     2    2
    15     1     3   am
    16     3     4    1
    17     4     5    1
    18     5     6    1
    19     6     7    1
    20     7     8   ar
    21     8     9   ar
    22     9    10   ar
    23    10    15    1
    24    15    16   ar
    25    16    17   ar
    26    17    18   ar
    27    18    19   ar
    28    19    20   ar
    29    20    21   ar
    30    21    22   ar
    31    22    23   ar
    32    10    11   ar
    33    11    12    1
    34    11    13   ar
    35    13    14    1
    36    30    25   ar
    37    14     3    1
    38    13     7   ar
    39    23    15   ar
    40    22    18   ar
    41    35    36    1
    42    21    24    1
@<TRIPOS>MOLECULE
*****
 38 42 0 0 0
SMALL
GASTEIGER

@<TRIPOS>ATOM
      1 C         -21.4548   -7.8188  -12.0218 C.2     1  UNL1        0.2506
      2 O         -20.7039   -7.5529  -12.9993 O.2     1  UNL1       -0.2699
      3 N         -22.8867   -7.8109  -12.1902 N.am    1  UNL1       -0.2679
      4 C         -23.7093   -8.8202  -11.5158 C.3     1  UNL1        0.1412
      5 C         -24.4044   -8.2037  -10.3052 C.3     1  UNL1        0.2268
      6 O         -24.7006   -6.8254  -10.5198 O.3     1  UNL1       -0.4738
      7 C         -25.4042   -6.3709  -11.6372 C.ar    1  UNL1        0.1384
      8 C         -26.6503   -5.7758  -11.4272 C.ar    1  UNL1        0.0368
      9 C         -27.4107   -5.3213  -12.5020 C.ar    1  UNL1        0.0053
     10 C         -26.9264   -5.4337  -13.8124 C.ar    1  UNL1        0.0275
     11 C         -25.6624   -6.0149  -14.0314 C.ar    1  UNL1        0.1406
     12 F         -25.1871   -6.1316  -15.2996 F       1  UNL1       -0.2043
     13 C         -24.8890   -6.4930  -12.9527 C.ar    1  UNL1        0.0591
     14 C         -23.4801   -6.9869  -13.2525 C.3     1  UNL1        0.1258
     15 C         -27.7430   -4.9303  -14.9427 C.ar    1  UNL1        0.0037
     16 C         -29.1331   -5.2216  -15.0147 C.ar    1  UNL1        0.0017
     17 C         -29.9123   -4.7534  -16.0896 C.ar    1  UNL1        0.0206
     18 C         -29.2750   -4.0047  -17.0736 C.ar    1  UNL1        0.0985
     19 N         -29.8187   -3.4637  -18.1787 N.ar    1  UNL1       -0.2241
     20 C         -28.7570   -2.8551  -18.7705 C.ar    1  UNL1        0.1750
     21 N         -27.5986   -2.9991  -18.0829 N.ar    1  UNL1       -0.3349
     22 C         -27.9441   -3.7277  -17.0152 C.ar    1  UNL1        0.0757
     23 C         -27.1366   -4.1708  -15.9714 C.ar    1  UNL1        0.0186
     24 H         -26.6554   -2.6266  -18.3318 H       1  UNL1        0.1675
     25 C         -20.1736   -9.3809  -10.5077 C.ar    1  UNL1        0.0503
     26 C         -19.5545   -9.6060   -9.2610 C.ar    1  UNL1        0.0328
     27 C         -19.6224   -8.6489   -8.2414 C.ar    1  UNL1        0.1069
     28 C         -20.3056   -7.4496   -8.4602 C.ar    1  UNL1        0.0186
     29 C         -20.9157   -7.2050   -9.6896 C.ar    1  UNL1        0.0071
     30 C         -20.8419   -8.1506  -10.7221 C.ar    1  UNL1        0.0667
     31 S         -18.8283   -8.9507   -6.6990 S.O2    1  UNL1        0.0105
     32 C         -18.0479   -7.4552   -6.1370 C.3     1  UNL1        0.1816
     33 O         -17.7943  -10.0288   -6.8645 O.2     1  UNL1       -0.1686
     34 O         -19.8369   -9.4020   -5.6800 O.2     1  UNL1       -0.1686
     35 N         -20.1628  -10.3947  -11.5383 N.pl3   1  UNL1       -0.3325
     36 H         -19.5867  -10.2468  -12.3969 H       1  UNL1        0.1468
     37 C         -21.6603  -11.9010  -12.7685 C.3     1  UNL1        0.0229
     38 C         -20.8994  -11.6566  -11.4701 C.3     1  UNL1        0.0871
@<TRIPOS>BOND
     1    37    38    1
     2    38    35    1
     3    35    25    1
     4    25    26   ar
     5    26    27   ar
     6    27    31    1
     7    31    32    1
     8    31    33    2
     9    31    34    2
    10    27    28   ar
    11    28    29   ar
    12    29    30   ar
    13    30     1    1
    14     1     2    2
    15     1     3   am
    16     3     4    1
    17     4     5    1
    18     5     6    1
    19     6     7    1
    20     7     8   ar
    21     8     9   ar
    22     9    10   ar
    23    10    15    1
    24    15    16   ar
    25    16    17   ar
    26    17    18   ar
    27    18    19   ar
    28    19    20   ar
    29    20    21   ar
    30    21    22   ar
    31    22    23   ar
    32    10    11   ar
    33    11    12    1
    34    11    13   ar
    35    13    14    1
    36    30    25   ar
    37    14     3    1
    38    13     7   ar
    39    23    15   ar
    40    22    18   ar
    41    35    36    1
    42    21    24    1
@<TRIPOS>MOLECULE
*****
 38 42 0 0 0
SMALL
GASTEIGER

@<TRIPOS>ATOM
      1 C         -22.3065   -9.4168  -11.3226 C.2     1  UNL1        0.2506
      2 O         -23.4044   -9.4933  -10.7072 O.2     1  UNL1       -0.2699
      3 N         -22.1471   -8.4679  -12.3964 N.am    1  UNL1       -0.2679
      4 C         -20.8793   -7.7485  -12.5562 C.3     1  UNL1        0.1412
      5 C         -20.0799   -8.3486  -13.7093 C.3     1  UNL1        0.2268
      6 O         -20.9372   -8.8603  -14.7275 O.3     1  UNL1       -0.4738
      7 C         -21.9454   -8.0956  -15.3184 C.ar    1  UNL1        0.1384
      8 C         -21.8339   -7.8077  -16.6806 C.ar    1  UNL1        0.0368
      9 C         -22.7954   -7.0320  -17.3238 C.ar    1  UNL1        0.0053
     10 C         -23.9042   -6.5458  -16.6177 C.ar    1  UNL1        0.0275
     11 C         -24.0342   -6.8476  -15.2482 C.ar    1  UNL1        0.1406
     12 F         -25.1044   -6.3764  -14.5550 F       1  UNL1       -0.2043
     13 C         -23.0596   -7.6195  -14.5815 C.ar    1  UNL1        0.0591
     14 C         -23.3331   -8.0157  -13.1368 C.3     1  UNL1        0.1258
     15 C         -24.9255   -5.7346  -17.3225 C.ar    1  UNL1        0.0037
     16 C         -25.0107   -5.7562  -18.7419 C.ar    1  UNL1        0.0017
     17 C         -25.9730   -4.9821  -19.4174 C.ar    1  UNL1        0.0206
     18 C         -26.8279   -4.1976  -18.6502 C.ar    1  UNL1        0.0985
     19 N         -27.8110   -3.3868  -19.0810 N.ar    1  UNL1       -0.2241
     20 C         -28.3098   -2.8762  -17.9242 C.ar    1  UNL1        0.1750
     21 N         -27.6806   -3.3341  -16.8152 N.ar    1  UNL1       -0.3349
     22 C         -26.7481   -4.1665  -17.2922 C.ar    1  UNL1        0.0757
     23 C         -25.8122   -4.9152  -16.5841 C.ar    1  UNL1        0.0186
     24 H         -27.8798   -3.0910  -15.8194 H       1  UNL1        0.1675
     25 C         -21.0234  -11.5856  -11.4760 C.ar    1  UNL1        0.0503
     26 C         -19.9042  -12.3494  -11.0855 C.ar    1  UNL1        0.0328
     27 C         -18.9968  -11.8619  -10.1372 C.ar    1  UNL1        0.1069
     28 C         -19.1946  -10.5988   -9.5729 C.ar    1  UNL1        0.0186
     29 C         -20.2900   -9.8251   -9.9537 C.ar    1  UNL1        0.0071
     30 C         -21.1971  -10.2977  -10.9127 C.ar    1  UNL1        0.0667
     31 S         -17.6003  -12.8313   -9.6782 S.O2    1  UNL1        0.0105
     32 C         -16.2712  -11.7548   -9.1924 C.3     1  UNL1        0.1816
     33 O         -17.1661  -13.6765  -10.8428 O.2     1  UNL1       -0.1686
     34 O         -17.9557  -13.7360   -8.5317 O.2     1  UNL1       -0.1686
     35 N         -21.9981  -12.1138  -12.4040 N.pl3   1  UNL1       -0.3325
     36 H         -22.8787  -12.5380  -12.0361 H       1  UNL1        0.1468
     37 C         -21.1931  -13.3671  -14.3549 C.3     1  UNL1        0.0229
     38 C         -21.8584  -12.0877  -13.8598 C.3     1  UNL1        0.0871
@<TRIPOS>BOND
     1    37    38    1
     2    38    35    1
     3    35    25    1
     4    25    26   ar
     5    26    27   ar
     6    27    31    1
     7    31    32    1
     8    31    33    2
     9    31    34    2
    10    27    28   ar
    11    28    29   ar
    12    29    30   ar
    13    30     1    1
    14     1     2    2
    15     1     3   am
    16     3     4    1
    17     4     5    1
    18     5     6    1
    19     6     7    1
    20     7     8   ar
    21     8     9   ar
    22     9    10   ar
    23    10    15    1
    24    15    16   ar
    25    16    17   ar
    26    17    18   ar
    27    18    19   ar
    28    19    20   ar
    29    20    21   ar
    30    21    22   ar
    31    22    23   ar
    32    10    11   ar
    33    11    12    1
    34    11    13   ar
    35    13    14    1
    36    30    25   ar
    37    14     3    1
    38    13     7   ar
    39    23    15   ar
    40    22    18   ar
    41    35    36    1
    42    21    24    1
@<TRIPOS>MOLECULE
*****
 38 42 0 0 0
SMALL
GASTEIGER

@<TRIPOS>ATOM
      1 C         -21.6264  -11.2155  -12.4173 C.2     1  UNL1        0.2506
      2 O         -21.5604  -11.6832  -13.5865 O.2     1  UNL1       -0.2699
      3 N         -22.8091  -10.5111  -11.9888 N.am    1  UNL1       -0.2679
      4 C         -23.3143  -10.6903  -10.6239 C.3     1  UNL1        0.1412
      5 C         -22.9557   -9.4770   -9.7706 C.3     1  UNL1        0.2268
      6 O         -22.9248   -8.2826  -10.5492 O.3     1  UNL1       -0.4738
      7 C         -23.9919   -7.8810  -11.3557 C.ar    1  UNL1        0.1384
      8 C         -24.6476   -6.6922  -11.0275 C.ar    1  UNL1        0.0368
      9 C         -25.7325   -6.2483  -11.7798 C.ar    1  UNL1        0.0053
     10 C         -26.1701   -6.9775  -12.8938 C.ar    1  UNL1        0.0275
     11 C         -25.5023   -8.1673  -13.2430 C.ar    1  UNL1        0.1406
     12 F         -25.9230   -8.8828  -14.3196 F       1  UNL1       -0.2043
     13 C         -24.4117   -8.6357  -12.4804 C.ar    1  UNL1        0.0591
     14 C         -23.6576   -9.8551  -12.9934 C.3     1  UNL1        0.1258
     15 C         -27.3169   -6.4816  -13.6918 C.ar    1  UNL1        0.0037
     16 C         -28.5206   -7.2349  -13.7708 C.ar    1  UNL1        0.0017
     17 C         -29.6101   -6.7734  -14.5334 C.ar    1  UNL1        0.0206
     18 C         -29.4644   -5.5642  -15.2055 C.ar    1  UNL1        0.0985
     19 N         -30.3662   -4.9410  -15.9850 N.ar    1  UNL1       -0.2241
     20 C         -29.7035   -3.8208  -16.3770 C.ar    1  UNL1        0.1750
     21 N         -28.4476   -3.7324  -15.8768 N.ar    1  UNL1       -0.3349
     22 C         -28.3135   -4.8413  -15.1402 C.ar    1  UNL1        0.0757
     23 C         -27.2122   -5.2602  -14.3989 C.ar    1  UNL1        0.0186
     24 H         -27.7481   -2.9729  -16.0326 H       1  UNL1        0.1675
     25 C         -19.9075  -10.3417  -10.7877 C.ar    1  UNL1        0.0503
     26 C         -18.8620  -10.6164   -9.8823 C.ar    1  UNL1        0.0328
     27 C         -18.3813  -11.9205   -9.7136 C.ar    1  UNL1        0.1069
     28 C         -18.9471  -12.9685  -10.4448 C.ar    1  UNL1        0.0186
     29 C         -19.9881  -12.7177  -11.3375 C.ar    1  UNL1        0.0071
     30 C         -20.4865  -11.4179  -11.5038 C.ar    1  UNL1        0.0667
     31 S         -17.0838  -12.2369   -8.5659 S.O2    1  UNL1        0.0105
     32 C         -15.5165  -12.0591   -9.3865 C.3     1  UNL1        0.1816
     33 O         -17.2157  -13.6331   -8.0253 O.2     1  UNL1       -0.1686
     34 O         -17.1616  -11.2668   -7.4204 O.2     1  UNL1       -0.1686
     35 N         -20.3601   -8.9873  -11.0137 N.pl3   1  UNL1       -0.3325
     36 H         -21.1919   -8.6312  -10.4922 H       1  UNL1        0.1468
     37 C         -20.7412   -7.4747  -12.9088 C.3     1  UNL1        0.0229
     38 C         -19.7213   -8.0393  -11.9263 C.3     1  UNL1        0.0871
@<TRIPOS>BOND
     1    37    38    1
     2    38    35    1
     3    35    25    1
     4    25    26   ar
     5    26    27   ar
     6    27    31    1
     7    31    32    1
     8    31    33    2
     9    31    34    2
    10    27    28   ar
    11    28    29   ar
    12    29    30   ar
    13    30     1    1
    14     1     2    2
    15     1     3   am
    16     3     4    1
    17     4     5    1
    18     5     6    1
    19     6     7    1
    20     7     8   ar
    21     8     9   ar
    22     9    10   ar
    23    10    15    1
    24    15    16   ar
    25    16    17   ar
    26    17    18   ar
    27    18    19   ar
    28    19    20   ar
    29    20    21   ar
    30    21    22   ar
    31    22    23   ar
    32    10    11   ar
    33    11    12    1
    34    11    13   ar
    35    13    14    1
    36    30    25   ar
    37    14     3    1
    38    13     7   ar
    39    23    15   ar
    40    22    18   ar
    41    35    36    1
    42    21    24    1
@<TRIPOS>MOLECULE
*****
 38 42 0 0 0
SMALL
GASTEIGER

@<TRIPOS>ATOM
      1 C         -26.2807   -8.0202  -11.3769 C.2     1  UNL1        0.2506
      2 O         -26.8008   -8.2500  -10.2514 O.2     1  UNL1       -0.2699
      3 N         -24.9873   -8.5701  -11.6986 N.am    1  UNL1       -0.2679
      4 C         -24.7201   -9.0715  -13.0505 C.3     1  UNL1        0.1412
      5 C         -23.8690   -8.0666  -13.8215 C.3     1  UNL1        0.2268
      6 O         -22.9871   -7.3564  -12.9547 O.3     1  UNL1       -0.4738
      7 C         -22.1148   -8.0006  -12.0746 C.ar    1  UNL1        0.1384
      8 C         -20.7426   -7.8413  -12.2812 C.ar    1  UNL1        0.0368
      9 C         -19.8210   -8.4750  -11.4511 C.ar    1  UNL1        0.0053
     10 C         -20.2569   -9.2660  -10.3794 C.ar    1  UNL1        0.0275
     11 C         -21.6387   -9.4162  -10.1524 C.ar    1  UNL1        0.1406
     12 F         -22.0700  -10.1851   -9.1177 F       1  UNL1       -0.2043
     13 C         -22.5825   -8.7920  -10.9950 C.ar    1  UNL1        0.0591
     14 C         -24.0528   -8.8908  -10.6108 C.3     1  UNL1        0.1258
     15 C         -19.2613   -9.9203   -9.4971 C.ar    1  UNL1        0.0037
     16 C         -19.0781   -9.4730   -8.1596 C.ar    1  UNL1        0.0017
     17 C         -18.1288  -10.0849   -7.3193 C.ar    1  UNL1        0.0206
     18 C         -17.3791  -11.1325   -7.8441 C.ar    1  UNL1        0.0985
     19 N         -16.4255  -11.8532   -7.2270 N.ar    1  UNL1       -0.2241
     20 C         -16.0340  -12.7257   -8.1930 C.ar    1  UNL1        0.1750
     21 N         -16.6994  -12.5717   -9.3630 N.ar    1  UNL1       -0.3349
     22 C         -17.5439  -11.5616   -9.1248 C.ar    1  UNL1        0.0757
     23 C         -18.4701  -10.9854   -9.9896 C.ar    1  UNL1        0.0186
     24 H         -16.5783  -13.1169  -10.2453 H       1  UNL1        0.1675
     25 C         -26.7040   -5.8384  -12.5746 C.ar    1  UNL1        0.0503
     26 C         -27.4130   -5.1308  -13.5671 C.ar    1  UNL1        0.0328
     27 C         -28.4349   -5.7481  -14.2984 C.ar    1  UNL1        0.1069
     28 C         -28.7551   -7.0856  -14.0501 C.ar    1  UNL1        0.0186
     29 C         -28.0586   -7.8042  -13.0796 C.ar    1  UNL1        0.0071
     30 C         -27.0242   -7.1999  -12.3512 C.ar    1  UNL1        0.0667
     31 S         -29.2946   -4.8445  -15.5414 S.O2    1  UNL1        0.0105
     32 C         -28.1176   -4.0325  -16.5981 C.3     1  UNL1        0.1816
     33 O         -30.1862   -3.8203  -14.8972 O.2     1  UNL1       -0.1686
     34 O         -30.1435   -5.7758  -16.3609 O.2     1  UNL1       -0.1686
     35 N         -25.6948   -5.1848  -11.7717 N.pl3   1  UNL1       -0.3325
     36 H         -25.8542   -5.0641  -10.7466 H       1  UNL1        0.1468
     37 C         -23.3331   -4.7969  -11.2273 C.3     1  UNL1        0.0229
     38 C         -24.4229   -4.6783  -12.2868 C.3     1  UNL1        0.0871
@<TRIPOS>BOND
     1    37    38    1
     2    38    35    1
     3    35    25    1
     4    25    26   ar
     5    26    27   ar
     6    27    31    1
     7    31    32    1
     8    31    33    2
     9    31    34    2
    10    27    28   ar
    11    28    29   ar
    12    29    30   ar
    13    30     1    1
    14     1     2    2
    15     1     3   am
    16     3     4    1
    17     4     5    1
    18     5     6    1
    19     6     7    1
    20     7     8   ar
    21     8     9   ar
    22     9    10   ar
    23    10    15    1
    24    15    16   ar
    25    16    17   ar
    26    17    18   ar
    27    18    19   ar
    28    19    20   ar
    29    20    21   ar
    30    21    22   ar
    31    22    23   ar
    32    10    11   ar
    33    11    12    1
    34    11    13   ar
    35    13    14    1
    36    30    25   ar
    37    14     3    1
    38    13     7   ar
    39    23    15   ar
    40    22    18   ar
    41    35    36    1
    42    21    24    1
