@<TRIPOS>MOLECULE
*****
 40 44 0 0 0
SMALL
GASTEIGER

@<TRIPOS>ATOM
      1 C         -30.6667   52.6655  -11.8846 C.3     1  UNL1        0.0439
      2 C         -29.9995   51.3597  -11.4332 C.3     1  UNL1        0.1375
      3 C         -29.7674   50.4339  -12.6347 C.3     1  UNL1        0.0439
      4 C         -30.8386   50.6471  -10.3202 C.3     1  UNL1        0.0709
      5 C         -29.8944   50.6339   -9.1752 C.ar    1  UNL1        0.0325
      6 C         -28.7032   51.2235   -9.5182 C.ar    1  UNL1        0.1401
      7 C         -27.6317   51.3533   -8.5966 C.ar    1  UNL1        0.0889
      8 C         -27.8306   50.8694   -7.2737 C.ar    1  UNL1        0.0282
      9 C         -29.0623   50.2768   -6.9605 C.ar    1  UNL1        0.0997
     10 N         -29.4527   49.7574   -5.7831 N.ar    1  UNL1       -0.2137
     11 C         -30.7214   49.3397   -6.0503 C.ar    1  UNL1        0.1983
     12 N         -31.1240   49.5677   -7.3245 N.ar    1  UNL1       -0.3255
     13 C         -30.0630   50.1612   -7.8817 C.ar    1  UNL1        0.0755
     14 O         -28.7394   51.6627  -10.8257 O.3     1  UNL1       -0.4824
     15 H         -32.0423   49.3366   -7.7650 H       1  UNL1        0.1686
     16 C         -26.3519   51.9918   -8.9773 C.2     1  UNL1        0.2535
     17 O         -26.3668   53.1143   -9.5527 O.2     1  UNL1       -0.2697
     18 N         -25.0967   51.3764   -8.6460 N.am    1  UNL1       -0.2657
     19 H         -25.0515   50.7849   -7.7860 H       1  UNL1        0.1566
     20 C         -23.8635   51.6451   -9.3308 C.ar    1  UNL1        0.1344
     21 C         -23.7906   51.6770  -10.7325 C.ar    1  UNL1        0.0344
     22 C         -22.5627   51.9150  -11.3522 C.ar    1  UNL1        0.0083
     23 C         -21.4035   52.0892  -10.5812 C.ar    1  UNL1        0.0906
     24 C         -21.5216   52.0548   -9.1829 C.ar    1  UNL1        0.1041
     25 N         -22.7287   51.8246   -8.6018 N.ar    1  UNL1       -0.2291
     26 C         -20.0807   52.3955  -11.2363 C.3     1  UNL1        0.4200
     27 F         -19.1611   52.8323  -10.2984 F       1  UNL1       -0.1658
     28 F         -20.2270   53.3853  -12.1928 F       1  UNL1       -0.1658
     29 F         -19.5973   51.2511  -11.8424 F       1  UNL1       -0.1658
     30 N         -31.5547   48.6922   -5.0821 N.pl3   1  UNL1       -0.2827
     31 H         -32.4740   48.3086   -5.3967 H       1  UNL1        0.1551
     32 C         -31.0834   48.3615   -3.7683 C.ar    1  UNL1        0.0719
     33 C         -31.0244   49.3407   -2.7544 C.ar    1  UNL1        0.0742
     34 CL        -31.5835   50.9859   -3.0322 Cl      1  UNL1       -0.0808
     35 C         -30.5628   48.9976   -1.4785 C.ar    1  UNL1        0.0423
     36 C         -30.1700   47.6868   -1.2002 C.ar    1  UNL1        0.1419
     37 F         -29.7253   47.3613    0.0386 F       1  UNL1       -0.2041
     38 C         -30.2448   46.7087   -2.1938 C.ar    1  UNL1        0.0423
     39 C         -30.7049   47.0380   -3.4736 C.ar    1  UNL1        0.0742
     40 CL        -30.7674   45.7826   -4.7036 Cl      1  UNL1       -0.0808
@<TRIPOS>BOND
     1     1     2    1
     2     2     3    1
     3     2     4    1
     4     4     5    1
     5     5     6   ar
     6     6     7   ar
     7     7    16    1
     8    16    17    2
     9    16    18   am
    10    18    20    1
    11    20    21   ar
    12    21    22   ar
    13    22    23   ar
    14    23    26    1
    15    26    27    1
    16    26    28    1
    17    26    29    1
    18    23    24   ar
    19    24    25   ar
    20     7     8   ar
    21     8     9   ar
    22     9    10   ar
    23    10    11   ar
    24    11    30    1
    25    30    32    1
    26    32    33   ar
    27    33    34    1
    28    33    35   ar
    29    35    36   ar
    30    36    37    1
    31    36    38   ar
    32    38    39   ar
    33    39    40    1
    34    11    12   ar
    35    12    13   ar
    36     6    14    1
    37    14     2    1
    38    13     5   ar
    39    25    20   ar
    40    13     9   ar
    41    39    32   ar
    42    18    19    1
    43    30    31    1
    44    12    15    1
@<TRIPOS>MOLECULE
*****
 40 44 0 0 0
SMALL
GASTEIGER

@<TRIPOS>ATOM
      1 C         -30.7590   52.5151  -11.8316 C.3     1  UNL1        0.0439
      2 C         -30.0782   51.2260  -11.3532 C.3     1  UNL1        0.1375
      3 C         -29.8428   50.2749  -12.5342 C.3     1  UNL1        0.0439
      4 C         -30.9063   50.5317  -10.2206 C.3     1  UNL1        0.0709
      5 C         -29.9574   50.5533   -9.0796 C.ar    1  UNL1        0.0325
      6 C         -28.7729   51.1454   -9.4412 C.ar    1  UNL1        0.1401
      7 C         -27.6989   51.3059   -8.5274 C.ar    1  UNL1        0.0889
      8 C         -27.8880   50.8508   -7.1929 C.ar    1  UNL1        0.0282
      9 C         -29.1130   50.2545   -6.8609 C.ar    1  UNL1        0.0997
     10 N         -29.4939   49.7589   -5.6702 N.ar    1  UNL1       -0.2137
     11 C         -30.7599   49.3239   -5.9223 C.ar    1  UNL1        0.1983
     12 N         -31.1698   49.5190   -7.1997 N.ar    1  UNL1       -0.3255
     13 C         -30.1164   50.1089   -7.7749 C.ar    1  UNL1        0.0755
     14 O         -28.8184   51.5540  -10.7582 O.3     1  UNL1       -0.4824
     15 H         -32.0877   49.2696   -7.6307 H       1  UNL1        0.1686
     16 C         -26.4264   51.9468   -8.9282 C.2     1  UNL1        0.2535
     17 O         -26.4541   53.0497   -9.5398 O.2     1  UNL1       -0.2697
     18 N         -25.1643   51.3575   -8.5765 N.am    1  UNL1       -0.2657
     19 H         -25.1128   50.7949   -7.6976 H       1  UNL1        0.1566
     20 C         -23.9338   51.6184   -9.2692 C.ar    1  UNL1        0.1344
     21 C         -23.8621   51.6143  -10.6713 C.ar    1  UNL1        0.0344
     22 C         -22.6366   51.8462  -11.2981 C.ar    1  UNL1        0.0083
     23 C         -21.4784   52.0499  -10.5329 C.ar    1  UNL1        0.0906
     24 C         -21.5952   52.0511   -9.1341 C.ar    1  UNL1        0.1041
     25 N         -22.8000   51.8261   -8.5461 N.ar    1  UNL1       -0.2291
     26 C         -20.1586   52.3500  -11.1969 C.3     1  UNL1        0.4200
     27 F         -19.6596   51.2211  -11.8234 F       1  UNL1       -0.1658
     28 F         -19.2281   52.7746  -10.2644 F       1  UNL1       -0.1658
     29 F         -20.3392   53.3454  -12.1388 F       1  UNL1       -0.1658
     30 N         -31.5834   48.6915   -4.9359 N.pl3   1  UNL1       -0.2827
     31 H         -32.5903   48.5287   -5.1613 H       1  UNL1        0.1551
     32 C         -31.0341   48.0842   -3.7582 C.ar    1  UNL1        0.0719
     33 C         -30.5281   46.7678   -3.7933 C.ar    1  UNL1        0.0742
     34 CL        -30.4867   45.8388   -5.2872 Cl      1  UNL1       -0.0808
     35 C         -29.9949   46.1936   -2.6336 C.ar    1  UNL1        0.0423
     36 C         -29.9511   46.9217   -1.4429 C.ar    1  UNL1        0.1419
     37 F         -29.4318   46.3595   -0.3237 F       1  UNL1       -0.2041
     38 C         -30.4323   48.2320   -1.4066 C.ar    1  UNL1        0.0423
     39 C         -30.9675   48.8183   -2.5588 C.ar    1  UNL1        0.0742
     40 CL        -31.5803   50.4643   -2.4690 Cl      1  UNL1       -0.0808
@<TRIPOS>BOND
     1     1     2    1
     2     2     3    1
     3     2     4    1
     4     4     5    1
     5     5     6   ar
     6     6     7   ar
     7     7    16    1
     8    16    17    2
     9    16    18   am
    10    18    20    1
    11    20    21   ar
    12    21    22   ar
    13    22    23   ar
    14    23    26    1
    15    26    27    1
    16    26    28    1
    17    26    29    1
    18    23    24   ar
    19    24    25   ar
    20     7     8   ar
    21     8     9   ar
    22     9    10   ar
    23    10    11   ar
    24    11    30    1
    25    30    32    1
    26    32    33   ar
    27    33    34    1
    28    33    35   ar
    29    35    36   ar
    30    36    37    1
    31    36    38   ar
    32    38    39   ar
    33    39    40    1
    34    11    12   ar
    35    12    13   ar
    36     6    14    1
    37    14     2    1
    38    13     5   ar
    39    25    20   ar
    40    13     9   ar
    41    39    32   ar
    42    18    19    1
    43    30    31    1
    44    12    15    1
@<TRIPOS>MOLECULE
*****
 40 44 0 0 0
SMALL
GASTEIGER

@<TRIPOS>ATOM
      1 C         -30.8349   50.4910   -9.8077 C.3     1  UNL1        0.0439
      2 C         -29.9175   49.3100  -10.1509 C.3     1  UNL1        0.1375
      3 C         -30.2329   48.7775  -11.5550 C.3     1  UNL1        0.0439
      4 C         -30.0227   48.1767   -9.0761 C.3     1  UNL1        0.0709
      5 C         -28.6368   48.1145   -8.5487 C.ar    1  UNL1        0.0325
      6 C         -27.8332   49.0318   -9.1788 C.ar    1  UNL1        0.1401
      7 C         -26.4617   49.1873   -8.8488 C.ar    1  UNL1        0.0889
      8 C         -25.9307   48.3702   -7.8123 C.ar    1  UNL1        0.0282
      9 C         -26.7837   47.4476   -7.1899 C.ar    1  UNL1        0.0997
     10 N         -26.4873   46.5865   -6.2003 N.ar    1  UNL1       -0.2137
     11 C         -27.6770   45.9579   -5.9890 C.ar    1  UNL1        0.1983
     12 N         -28.6796   46.3807   -6.7977 N.ar    1  UNL1       -0.3255
     13 C         -28.0953   47.3220   -7.5468 C.ar    1  UNL1        0.0755
     14 O         -28.5553   49.7477  -10.1115 O.3     1  UNL1       -0.4824
     15 H         -29.6702   46.0515   -6.8278 H       1  UNL1        0.1686
     16 C         -25.6049   50.1806   -9.5343 C.2     1  UNL1        0.2535
     17 O         -25.6652   50.2891  -10.7896 O.2     1  UNL1       -0.2697
     18 N         -24.7530   51.0595   -8.7822 N.am    1  UNL1       -0.2657
     19 H         -25.0559   51.3330   -7.8204 H       1  UNL1        0.1566
     20 C         -23.5920   51.7103   -9.3213 C.ar    1  UNL1        0.1344
     21 C         -22.3551   51.6794   -8.6579 C.ar    1  UNL1        0.0344
     22 C         -21.2622   52.3508   -9.2085 C.ar    1  UNL1        0.0083
     23 C         -21.4061   53.0785  -10.3995 C.ar    1  UNL1        0.0906
     24 C         -22.6588   53.0792  -11.0329 C.ar    1  UNL1        0.1041
     25 N         -23.7079   52.4151  -10.4794 N.ar    1  UNL1       -0.2291
     26 C         -20.2226   53.7671  -11.0301 C.3     1  UNL1        0.4200
     27 F         -19.0741   53.0122  -10.8656 F       1  UNL1       -0.1658
     28 F         -20.0128   55.0064  -10.4506 F       1  UNL1       -0.1658
     29 F         -20.4611   53.9359  -12.3811 F       1  UNL1       -0.1658
     30 N         -27.8552   44.9217   -5.0166 N.pl3   1  UNL1       -0.2827
     31 H         -27.3138   44.0357   -5.1315 H       1  UNL1        0.1551
     32 C         -28.5695   45.1388   -3.7918 C.ar    1  UNL1        0.0719
     33 C         -27.9253   45.7020   -2.6702 C.ar    1  UNL1        0.0742
     34 CL        -26.2455   46.2218   -2.7401 Cl      1  UNL1       -0.0808
     35 C         -28.6401   45.9072   -1.4845 C.ar    1  UNL1        0.0423
     36 C         -29.9923   45.5669   -1.4091 C.ar    1  UNL1        0.1419
     37 F         -30.6787   45.7698   -0.2576 F       1  UNL1       -0.2041
     38 C         -30.6405   45.0274   -2.5219 C.ar    1  UNL1        0.0423
     39 C         -29.9378   44.8175   -3.7136 C.ar    1  UNL1        0.0742
     40 CL        -30.7843   44.1190   -5.0878 Cl      1  UNL1       -0.0808
@<TRIPOS>BOND
     1     1     2    1
     2     2     3    1
     3     2     4    1
     4     4     5    1
     5     5     6   ar
     6     6     7   ar
     7     7    16    1
     8    16    17    2
     9    16    18   am
    10    18    20    1
    11    20    21   ar
    12    21    22   ar
    13    22    23   ar
    14    23    26    1
    15    26    27    1
    16    26    28    1
    17    26    29    1
    18    23    24   ar
    19    24    25   ar
    20     7     8   ar
    21     8     9   ar
    22     9    10   ar
    23    10    11   ar
    24    11    30    1
    25    30    32    1
    26    32    33   ar
    27    33    34    1
    28    33    35   ar
    29    35    36   ar
    30    36    37    1
    31    36    38   ar
    32    38    39   ar
    33    39    40    1
    34    11    12   ar
    35    12    13   ar
    36     6    14    1
    37    14     2    1
    38    13     5   ar
    39    25    20   ar
    40    13     9   ar
    41    39    32   ar
    42    18    19    1
    43    30    31    1
    44    12    15    1
@<TRIPOS>MOLECULE
*****
 40 44 0 0 0
SMALL
GASTEIGER

@<TRIPOS>ATOM
      1 C         -25.8489   45.6436   -3.0968 C.3     1  UNL1        0.0439
      2 C         -27.1824   45.7613   -3.8467 C.3     1  UNL1        0.1375
      3 C         -27.7475   44.3686   -4.1558 C.3     1  UNL1        0.0439
      4 C         -27.0289   46.6146   -5.1501 C.3     1  UNL1        0.0709
      5 C         -27.9471   47.7515   -4.8910 C.ar    1  UNL1        0.0325
      6 C         -28.5506   47.6218   -3.6649 C.ar    1  UNL1        0.1401
      7 C         -29.4660   48.5857   -3.1679 C.ar    1  UNL1        0.0889
      8 C         -29.7336   49.7262   -3.9749 C.ar    1  UNL1        0.0282
      9 C         -29.0952   49.8249   -5.2195 C.ar    1  UNL1        0.0997
     10 N         -29.2085   50.8084   -6.1297 N.ar    1  UNL1       -0.2137
     11 C         -28.3718   50.3921   -7.1206 C.ar    1  UNL1        0.1983
     12 N         -27.7609   49.2080   -6.8703 N.ar    1  UNL1       -0.3255
     13 C         -28.2299   48.8677   -5.6650 C.ar    1  UNL1        0.0755
     14 O         -28.1173   46.4753   -3.0313 O.3     1  UNL1       -0.4824
     15 H         -27.0856   48.6872   -7.4732 H       1  UNL1        0.1686
     16 C         -30.1100   48.4358   -1.8437 C.2     1  UNL1        0.2535
     17 O         -31.2597   48.9197   -1.6558 O.2     1  UNL1       -0.2697
     18 N         -29.4667   47.6963   -0.7934 N.am    1  UNL1       -0.2657
     19 H         -28.8329   46.9106   -1.0629 H       1  UNL1        0.1566
     20 C         -29.7570   47.8642    0.6029 C.ar    1  UNL1        0.1344
     21 C         -30.8941   47.2904    1.1935 C.ar    1  UNL1        0.0344
     22 C         -31.1478   47.5054    2.5491 C.ar    1  UNL1        0.0083
     23 C         -30.2907   48.3155    3.3091 C.ar    1  UNL1        0.0906
     24 C         -29.1625   48.8658    2.6808 C.ar    1  UNL1        0.1041
     25 N         -28.9343   48.6398    1.3599 N.ar    1  UNL1       -0.2291
     26 C         -30.5262   48.5156    4.7846 C.3     1  UNL1        0.4200
     27 F         -30.8252   47.3118    5.3989 F       1  UNL1       -0.1658
     28 F         -31.5826   49.3843    4.9972 F       1  UNL1       -0.1658
     29 F         -29.3857   49.0440    5.3598 F       1  UNL1       -0.1658
     30 N         -28.1691   51.1232   -8.3353 N.pl3   1  UNL1       -0.2827
     31 H         -28.9170   51.7820   -8.6480 H       1  UNL1        0.1551
     32 C         -26.9029   51.1483   -9.0090 C.ar    1  UNL1        0.0719
     33 C         -25.6972   51.2018   -8.2786 C.ar    1  UNL1        0.0742
     34 CL        -25.6866   51.1740   -6.5191 Cl      1  UNL1       -0.0808
     35 C         -24.4718   51.2242   -8.9545 C.ar    1  UNL1        0.0423
     36 C         -24.4360   51.1828  -10.3498 C.ar    1  UNL1        0.1419
     37 F         -23.2453   51.2034  -10.9979 F       1  UNL1       -0.2041
     38 C         -25.6253   51.1099  -11.0778 C.ar    1  UNL1        0.0423
     39 C         -26.8571   51.0864  -10.4146 C.ar    1  UNL1        0.0742
     40 CL        -28.3340   51.0126  -11.3668 Cl      1  UNL1       -0.0808
@<TRIPOS>BOND
     1     1     2    1
     2     2     3    1
     3     2     4    1
     4     4     5    1
     5     5     6   ar
     6     6     7   ar
     7     7    16    1
     8    16    17    2
     9    16    18   am
    10    18    20    1
    11    20    21   ar
    12    21    22   ar
    13    22    23   ar
    14    23    26    1
    15    26    27    1
    16    26    28    1
    17    26    29    1
    18    23    24   ar
    19    24    25   ar
    20     7     8   ar
    21     8     9   ar
    22     9    10   ar
    23    10    11   ar
    24    11    30    1
    25    30    32    1
    26    32    33   ar
    27    33    34    1
    28    33    35   ar
    29    35    36   ar
    30    36    37    1
    31    36    38   ar
    32    38    39   ar
    33    39    40    1
    34    11    12   ar
    35    12    13   ar
    36     6    14    1
    37    14     2    1
    38    13     5   ar
    39    25    20   ar
    40    13     9   ar
    41    39    32   ar
    42    18    19    1
    43    30    31    1
    44    12    15    1
@<TRIPOS>MOLECULE
*****
 40 44 0 0 0
SMALL
GASTEIGER

@<TRIPOS>ATOM
      1 C         -30.3442   52.3186  -11.7462 C.3     1  UNL1        0.0439
      2 C         -29.7762   50.8937  -11.7102 C.3     1  UNL1        0.1375
      3 C         -30.0040   50.1925  -13.0560 C.3     1  UNL1        0.0439
      4 C         -30.3860   50.0676  -10.5285 C.3     1  UNL1        0.0709
      5 C         -29.1857   49.7497   -9.7155 C.ar    1  UNL1        0.0325
      6 C         -28.0549   50.2772  -10.2878 C.ar    1  UNL1        0.1401
      7 C         -26.7716   50.1288   -9.7003 C.ar    1  UNL1        0.0889
      8 C         -26.6825   49.4260   -8.4666 C.ar    1  UNL1        0.0282
      9 C         -27.8601   48.9049   -7.9116 C.ar    1  UNL1        0.0997
     10 N         -27.9972   48.2130   -6.7666 N.ar    1  UNL1       -0.2137
     11 C         -29.3377   47.9756   -6.7232 C.ar    1  UNL1        0.1983
     12 N         -30.0246   48.4764   -7.7793 N.ar    1  UNL1       -0.3255
     13 C         -29.0738   49.0604   -8.5166 C.ar    1  UNL1        0.0755
     14 O         -28.3707   50.9557  -11.4469 O.3     1  UNL1       -0.4824
     15 H         -31.0497   48.4206   -7.9707 H       1  UNL1        0.1686
     16 C         -25.5592   50.7028  -10.3259 C.2     1  UNL1        0.2535
     17 O         -25.0848   50.1662  -11.3643 O.2     1  UNL1       -0.2697
     18 N         -24.9549   51.8950   -9.7991 N.am    1  UNL1       -0.2657
     19 H         -25.5733   52.5907   -9.3245 H       1  UNL1        0.1566
     20 C         -23.5852   52.2667  -10.0177 C.ar    1  UNL1        0.1344
     21 C         -23.1616   52.8424  -11.2261 C.ar    1  UNL1        0.0344
     22 C         -21.8139   53.1610  -11.4011 C.ar    1  UNL1        0.0083
     23 C         -20.8834   52.8785  -10.3897 C.ar    1  UNL1        0.0906
     24 C         -21.3499   52.3071   -9.1954 C.ar    1  UNL1        0.1041
     25 N         -22.6678   52.0085   -9.0466 N.ar    1  UNL1       -0.2291
     26 C         -19.4340   53.2622  -10.5465 C.3     1  UNL1        0.4200
     27 F         -19.3100   54.6241  -10.7606 F       1  UNL1       -0.1658
     28 F         -18.8676   52.6014  -11.6228 F       1  UNL1       -0.1658
     29 F         -18.7464   52.9223   -9.3965 F       1  UNL1       -0.1658
     30 N         -29.9708   47.2399   -5.6701 N.pl3   1  UNL1       -0.2827
     31 H         -30.9800   46.9920   -5.7759 H       1  UNL1        0.1551
     32 C         -29.2254   46.6501   -4.5959 C.ar    1  UNL1        0.0719
     33 C         -28.8101   47.4262   -3.4934 C.ar    1  UNL1        0.0742
     34 CL        -29.2399   49.1269   -3.3530 Cl      1  UNL1       -0.0808
     35 C         -28.0848   46.8317   -2.4546 C.ar    1  UNL1        0.0423
     36 C         -27.7789   45.4699   -2.4983 C.ar    1  UNL1        0.1419
     37 F         -27.0772   44.9004   -1.4876 F       1  UNL1       -0.2041
     38 C         -28.2041   44.6922   -3.5772 C.ar    1  UNL1        0.0423
     39 C         -28.9303   45.2738   -4.6222 C.ar    1  UNL1        0.0742
     40 CL        -29.4326   44.2654   -5.9727 Cl      1  UNL1       -0.0808
@<TRIPOS>BOND
     1     1     2    1
     2     2     3    1
     3     2     4    1
     4     4     5    1
     5     5     6   ar
     6     6     7   ar
     7     7    16    1
     8    16    17    2
     9    16    18   am
    10    18    20    1
    11    20    21   ar
    12    21    22   ar
    13    22    23   ar
    14    23    26    1
    15    26    27    1
    16    26    28    1
    17    26    29    1
    18    23    24   ar
    19    24    25   ar
    20     7     8   ar
    21     8     9   ar
    22     9    10   ar
    23    10    11   ar
    24    11    30    1
    25    30    32    1
    26    32    33   ar
    27    33    34    1
    28    33    35   ar
    29    35    36   ar
    30    36    37    1
    31    36    38   ar
    32    38    39   ar
    33    39    40    1
    34    11    12   ar
    35    12    13   ar
    36     6    14    1
    37    14     2    1
    38    13     5   ar
    39    25    20   ar
    40    13     9   ar
    41    39    32   ar
    42    18    19    1
    43    30    31    1
    44    12    15    1
@<TRIPOS>MOLECULE
*****
 40 44 0 0 0
SMALL
GASTEIGER

@<TRIPOS>ATOM
      1 C         -16.0735   52.0381   -9.6783 C.3     1  UNL1        0.0439
      2 C         -17.2414   51.9040   -8.6923 C.3     1  UNL1        0.1375
      3 C         -16.7868   51.1775   -7.4195 C.3     1  UNL1        0.0439
      4 C         -18.4638   51.1826   -9.3528 C.3     1  UNL1        0.0709
      5 C         -19.5191   52.2237   -9.2808 C.ar    1  UNL1        0.0325
      6 C         -19.0390   53.3653   -8.6886 C.ar    1  UNL1        0.1401
      7 C         -19.8446   54.5200   -8.5107 C.ar    1  UNL1        0.0889
      8 C         -21.1832   54.4769   -8.9903 C.ar    1  UNL1        0.0282
      9 C         -21.6360   53.2944   -9.5927 C.ar    1  UNL1        0.0997
     10 N         -22.8534   53.0433  -10.1061 N.ar    1  UNL1       -0.2137
     11 C         -22.7261   51.7642  -10.5569 C.ar    1  UNL1        0.1983
     12 N         -21.5039   51.2187  -10.3411 N.ar    1  UNL1       -0.3255
     13 C         -20.8306   52.2012   -9.7330 C.ar    1  UNL1        0.0755
     14 O         -17.7123   53.2098   -8.3429 O.3     1  UNL1       -0.4824
     15 H         -21.1684   50.2618  -10.5908 H       1  UNL1        0.1686
     16 C         -19.3158   55.7458   -7.8716 C.2     1  UNL1        0.2535
     17 O         -18.6384   55.6489   -6.8119 O.2     1  UNL1       -0.2697
     18 N         -19.5149   57.0339   -8.4759 N.am    1  UNL1       -0.2657
     19 H         -19.5913   57.0815   -9.5168 H       1  UNL1        0.1566
     20 C         -19.4603   58.2763   -7.7580 C.ar    1  UNL1        0.1344
     21 C         -18.8518   59.4173   -8.3048 C.ar    1  UNL1        0.0344
     22 C         -18.7994   60.5944   -7.5564 C.ar    1  UNL1        0.0083
     23 C         -19.3221   60.6287   -6.2548 C.ar    1  UNL1        0.0906
     24 C         -19.9261   59.4672   -5.7483 C.ar    1  UNL1        0.1041
     25 N         -19.9682   58.3334   -6.4970 N.ar    1  UNL1       -0.2291
     26 C         -19.3158   61.9064   -5.4549 C.3     1  UNL1        0.4200
     27 F         -18.9623   61.6574   -4.1399 F       1  UNL1       -0.1658
     28 F         -20.5693   62.4936   -5.4625 F       1  UNL1       -0.1658
     29 F         -18.4033   62.7851   -6.0081 F       1  UNL1       -0.1658
     30 N         -23.7934   51.0427  -11.1824 N.pl3   1  UNL1       -0.2827
     31 H         -23.5555   50.3626  -11.9387 H       1  UNL1        0.1551
     32 C         -25.1310   51.0572  -10.6646 C.ar    1  UNL1        0.0719
     33 C         -25.3732   50.8904   -9.2849 C.ar    1  UNL1        0.0742
     34 CL        -24.0528   50.7237   -8.1337 Cl      1  UNL1       -0.0808
     35 C         -26.6857   50.9089   -8.7992 C.ar    1  UNL1        0.0423
     36 C         -27.7576   51.1029   -9.6728 C.ar    1  UNL1        0.1419
     37 F         -29.0263   51.1212   -9.1950 F       1  UNL1       -0.2041
     38 C         -27.5231   51.2883  -11.0367 C.ar    1  UNL1        0.0423
     39 C         -26.2159   51.2725  -11.5355 C.ar    1  UNL1        0.0742
     40 CL        -25.9621   51.4914  -13.2620 Cl      1  UNL1       -0.0808
@<TRIPOS>BOND
     1     1     2    1
     2     2     3    1
     3     2     4    1
     4     4     5    1
     5     5     6   ar
     6     6     7   ar
     7     7    16    1
     8    16    17    2
     9    16    18   am
    10    18    20    1
    11    20    21   ar
    12    21    22   ar
    13    22    23   ar
    14    23    26    1
    15    26    27    1
    16    26    28    1
    17    26    29    1
    18    23    24   ar
    19    24    25   ar
    20     7     8   ar
    21     8     9   ar
    22     9    10   ar
    23    10    11   ar
    24    11    30    1
    25    30    32    1
    26    32    33   ar
    27    33    34    1
    28    33    35   ar
    29    35    36   ar
    30    36    37    1
    31    36    38   ar
    32    38    39   ar
    33    39    40    1
    34    11    12   ar
    35    12    13   ar
    36     6    14    1
    37    14     2    1
    38    13     5   ar
    39    25    20   ar
    40    13     9   ar
    41    39    32   ar
    42    18    19    1
    43    30    31    1
    44    12    15    1
@<TRIPOS>MOLECULE
*****
 40 44 0 0 0
SMALL
GASTEIGER

@<TRIPOS>ATOM
      1 C         -16.0825   52.0500   -9.7355 C.3     1  UNL1        0.0439
      2 C         -17.2374   51.9082   -8.7354 C.3     1  UNL1        0.1375
      3 C         -16.7642   51.1787   -7.4711 C.3     1  UNL1        0.0439
      4 C         -18.4654   51.1848   -9.3831 C.3     1  UNL1        0.0709
      5 C         -19.5235   52.2217   -9.2940 C.ar    1  UNL1        0.0325
      6 C         -19.0400   53.3629   -8.7037 C.ar    1  UNL1        0.1401
      7 C         -19.8474   54.5141   -8.5114 C.ar    1  UNL1        0.0889
      8 C         -21.1918   54.4679   -8.9743 C.ar    1  UNL1        0.0282
      9 C         -21.6480   53.2859   -9.5753 C.ar    1  UNL1        0.0997
     10 N         -22.8708   53.0322  -10.0742 N.ar    1  UNL1       -0.2137
     11 C         -22.7446   51.7553  -10.5312 C.ar    1  UNL1        0.1983
     12 N         -21.5179   51.2134  -10.3329 N.ar    1  UNL1       -0.3255
     13 C         -20.8405   52.1962   -9.7297 C.ar    1  UNL1        0.0755
     14 O         -17.7085   53.2109   -8.3753 O.3     1  UNL1       -0.4824
     15 H         -21.1821   50.2586  -10.5903 H       1  UNL1        0.1686
     16 C         -19.3150   55.7394   -7.8745 C.2     1  UNL1        0.2535
     17 O         -18.6356   55.6423   -6.8161 O.2     1  UNL1       -0.2697
     18 N         -19.5127   57.0273   -8.4797 N.am    1  UNL1       -0.2657
     19 H         -19.5911   57.0741   -9.5205 H       1  UNL1        0.1566
     20 C         -19.4543   58.2703   -7.7632 C.ar    1  UNL1        0.1344
     21 C         -18.8498   59.4112   -8.3145 C.ar    1  UNL1        0.0344
     22 C         -18.7933   60.5889   -7.5674 C.ar    1  UNL1        0.0083
     23 C         -19.3079   60.6239   -6.2626 C.ar    1  UNL1        0.0906
     24 C         -19.9082   59.4626   -5.7515 C.ar    1  UNL1        0.1041
     25 N         -19.9544   58.3281   -6.4990 N.ar    1  UNL1       -0.2291
     26 C         -19.2973   61.9023   -5.4637 C.3     1  UNL1        0.4200
     27 F         -18.9330   61.6548   -4.1514 F       1  UNL1       -0.1658
     28 F         -20.5517   62.4875   -5.4618 F       1  UNL1       -0.1658
     29 F         -18.3906   62.7820   -6.0248 F       1  UNL1       -0.1658
     30 N         -23.8172   51.0322  -11.1459 N.pl3   1  UNL1       -0.2827
     31 H         -23.5827   50.3261  -11.8792 H       1  UNL1        0.1551
     32 C         -25.1594   51.0832  -10.6426 C.ar    1  UNL1        0.0719
     33 C         -26.2503   51.2852  -11.5140 C.ar    1  UNL1        0.0742
     34 CL        -26.0242   51.4176  -13.2541 Cl      1  UNL1       -0.0808
     35 C         -27.5527   51.3305  -11.0034 C.ar    1  UNL1        0.0423
     36 C         -27.7792   51.1656   -9.6354 C.ar    1  UNL1        0.1419
     37 F         -29.0437   51.2092   -9.1481 F       1  UNL1       -0.2041
     38 C         -26.7054   50.9456   -8.7705 C.ar    1  UNL1        0.0423
     39 C         -25.3984   50.8977   -9.2678 C.ar    1  UNL1        0.0742
     40 CL        -24.0705   50.6368   -8.1445 Cl      1  UNL1       -0.0808
@<TRIPOS>BOND
     1     1     2    1
     2     2     3    1
     3     2     4    1
     4     4     5    1
     5     5     6   ar
     6     6     7   ar
     7     7    16    1
     8    16    17    2
     9    16    18   am
    10    18    20    1
    11    20    21   ar
    12    21    22   ar
    13    22    23   ar
    14    23    26    1
    15    26    27    1
    16    26    28    1
    17    26    29    1
    18    23    24   ar
    19    24    25   ar
    20     7     8   ar
    21     8     9   ar
    22     9    10   ar
    23    10    11   ar
    24    11    30    1
    25    30    32    1
    26    32    33   ar
    27    33    34    1
    28    33    35   ar
    29    35    36   ar
    30    36    37    1
    31    36    38   ar
    32    38    39   ar
    33    39    40    1
    34    11    12   ar
    35    12    13   ar
    36     6    14    1
    37    14     2    1
    38    13     5   ar
    39    25    20   ar
    40    13     9   ar
    41    39    32   ar
    42    18    19    1
    43    30    31    1
    44    12    15    1
@<TRIPOS>MOLECULE
*****
 40 44 0 0 0
SMALL
GASTEIGER

@<TRIPOS>ATOM
      1 C         -27.4866   51.1416  -11.2821 C.3     1  UNL1        0.0439
      2 C         -28.8371   50.8359  -10.6210 C.3     1  UNL1        0.1375
      3 C         -29.8381   51.9645  -10.9015 C.3     1  UNL1        0.0439
      4 C         -28.6750   50.5888   -9.0836 C.3     1  UNL1        0.0709
      5 C         -29.1494   49.1899   -8.9388 C.ar    1  UNL1        0.0325
      6 C         -29.5313   48.6759  -10.1530 C.ar    1  UNL1        0.1401
      7 C         -30.0114   47.3478  -10.2936 C.ar    1  UNL1        0.0889
      8 C         -30.0684   46.5347   -9.1277 C.ar    1  UNL1        0.0282
      9 C         -29.6664   47.0943   -7.9064 C.ar    1  UNL1        0.0997
     10 N         -29.6442   46.5069   -6.6968 N.ar    1  UNL1       -0.2137
     11 C         -29.1640   47.4981   -5.8955 C.ar    1  UNL1        0.1983
     12 N         -28.8994   48.6581   -6.5454 N.ar    1  UNL1       -0.3255
     13 C         -29.2218   48.3816   -7.8135 C.ar    1  UNL1        0.0755
     14 O         -29.3524   49.6106  -11.1520 O.3     1  UNL1       -0.4824
     15 H         -28.5313   49.5523   -6.1509 H       1  UNL1        0.1686
     16 C         -30.4195   46.8039  -11.6082 C.2     1  UNL1        0.2535
     17 O         -30.9029   45.6406  -11.6742 O.2     1  UNL1       -0.2697
     18 N         -30.3265   47.6063  -12.7963 N.am    1  UNL1       -0.2657
     19 H         -30.4318   48.6413  -12.6994 H       1  UNL1        0.1566
     20 C         -30.2539   47.0693  -14.1261 C.ar    1  UNL1        0.1344
     21 C         -30.0455   47.8935  -15.2434 C.ar    1  UNL1        0.0344
     22 C         -30.0103   47.3273  -16.5188 C.ar    1  UNL1        0.0083
     23 C         -30.2139   45.9493  -16.6866 C.ar    1  UNL1        0.0906
     24 C         -30.4140   45.1609  -15.5426 C.ar    1  UNL1        0.1041
     25 N         -30.4411   45.7342  -14.3103 N.ar    1  UNL1       -0.2291
     26 C         -30.1296   45.3184  -18.0531 C.3     1  UNL1        0.4200
     27 F         -31.3955   45.0682  -18.5541 F       1  UNL1       -0.1658
     28 F         -29.4418   44.1186  -17.9955 F       1  UNL1       -0.1658
     29 F         -29.4673   46.1767  -18.9105 F       1  UNL1       -0.1658
     30 N         -28.9762   47.3445   -4.4840 N.pl3   1  UNL1       -0.2827
     31 H         -29.7618   47.6081   -3.8479 H       1  UNL1        0.1551
     32 C         -27.8501   46.6459   -3.9353 C.ar    1  UNL1        0.0719
     33 C         -27.8620   45.2405   -3.8122 C.ar    1  UNL1        0.0742
     34 CL        -29.2216   44.2797   -4.3821 Cl      1  UNL1       -0.0808
     35 C         -26.7526   44.5772   -3.2754 C.ar    1  UNL1        0.0423
     36 C         -25.6280   45.2992   -2.8705 C.ar    1  UNL1        0.1419
     37 F         -24.5563   44.6498   -2.3528 F       1  UNL1       -0.2041
     38 C         -25.6023   46.6885   -3.0081 C.ar    1  UNL1        0.0423
     39 C         -26.7044   47.3640   -3.5436 C.ar    1  UNL1        0.0742
     40 CL        -26.6415   49.1160   -3.6840 Cl      1  UNL1       -0.0808
@<TRIPOS>BOND
     1     1     2    1
     2     2     3    1
     3     2     4    1
     4     4     5    1
     5     5     6   ar
     6     6     7   ar
     7     7    16    1
     8    16    17    2
     9    16    18   am
    10    18    20    1
    11    20    21   ar
    12    21    22   ar
    13    22    23   ar
    14    23    26    1
    15    26    27    1
    16    26    28    1
    17    26    29    1
    18    23    24   ar
    19    24    25   ar
    20     7     8   ar
    21     8     9   ar
    22     9    10   ar
    23    10    11   ar
    24    11    30    1
    25    30    32    1
    26    32    33   ar
    27    33    34    1
    28    33    35   ar
    29    35    36   ar
    30    36    37    1
    31    36    38   ar
    32    38    39   ar
    33    39    40    1
    34    11    12   ar
    35    12    13   ar
    36     6    14    1
    37    14     2    1
    38    13     5   ar
    39    25    20   ar
    40    13     9   ar
    41    39    32   ar
    42    18    19    1
    43    30    31    1
    44    12    15    1
@<TRIPOS>MOLECULE
*****
 40 44 0 0 0
SMALL
GASTEIGER

@<TRIPOS>ATOM
      1 C         -25.0573   46.5648   -2.7877 C.3     1  UNL1        0.0439
      2 C         -26.3585   45.9709   -3.3430 C.3     1  UNL1        0.1375
      3 C         -26.4637   44.4827   -2.9841 C.3     1  UNL1        0.0439
      4 C         -26.4709   46.1922   -4.8887 C.3     1  UNL1        0.0709
      5 C         -27.6969   47.0215   -4.9987 C.ar    1  UNL1        0.0325
      6 C         -28.2359   47.2625   -3.7595 C.ar    1  UNL1        0.1401
      7 C         -29.4067   48.0453   -3.5843 C.ar    1  UNL1        0.0889
      8 C         -30.0106   48.6065   -4.7437 C.ar    1  UNL1        0.0282
      9 C         -29.4287   48.3406   -5.9915 C.ar    1  UNL1        0.0997
     10 N         -29.8367   48.7664   -7.2002 N.ar    1  UNL1       -0.2137
     11 C         -28.9081   48.2218   -8.0346 C.ar    1  UNL1        0.1983
     12 N         -27.9619   47.4825   -7.4052 N.ar    1  UNL1       -0.3255
     13 C         -28.3078   47.5716   -6.1164 C.ar    1  UNL1        0.0755
     14 O         -27.4719   46.6689   -2.7758 O.3     1  UNL1       -0.4824
     15 H         -27.1561   46.9680   -7.8254 H       1  UNL1        0.1686
     16 C         -29.9785   48.2994   -2.2430 C.2     1  UNL1        0.2535
     17 O         -30.6166   49.3672   -2.0338 O.2     1  UNL1       -0.2697
     18 N         -29.8658   47.3193   -1.1987 N.am    1  UNL1       -0.2657
     19 H         -29.8244   46.3119   -1.4728 H       1  UNL1        0.1566
     20 C         -29.9626   47.6214    0.2018 C.ar    1  UNL1        0.1344
     21 C         -30.9569   47.0503    1.0120 C.ar    1  UNL1        0.0344
     22 C         -31.0270   47.3968    2.3623 C.ar    1  UNL1        0.0083
     23 C         -30.1311   48.3334    2.8994 C.ar    1  UNL1        0.0906
     24 C         -29.1494   48.8766    2.0559 C.ar    1  UNL1        0.1041
     25 N         -29.0986   48.5215    0.7446 N.ar    1  UNL1       -0.2291
     26 C         -30.1648   48.6793    4.3663 C.3     1  UNL1        0.4200
     27 F         -31.3067   48.1714    4.9614 F       1  UNL1       -0.1658
     28 F         -30.1575   50.0519    4.5448 F       1  UNL1       -0.1658
     29 F         -29.0545   48.1384    4.9870 F       1  UNL1       -0.1658
     30 N         -28.9362   48.3897   -9.4566 N.pl3   1  UNL1       -0.2827
     31 H         -28.9289   47.5348  -10.0569 H       1  UNL1        0.1551
     32 C         -29.1936   49.6603  -10.0703 C.ar    1  UNL1        0.0719
     33 C         -28.2531   50.7082   -9.9833 C.ar    1  UNL1        0.0742
     34 CL        -26.7029   50.4873   -9.1803 Cl      1  UNL1       -0.0808
     35 C         -28.5223   51.9402  -10.5903 C.ar    1  UNL1        0.0423
     36 C         -29.7140   52.1346  -11.2918 C.ar    1  UNL1        0.1419
     37 F         -29.9674   53.3304  -11.8785 F       1  UNL1       -0.2041
     38 C         -30.6400   51.0951  -11.3983 C.ar    1  UNL1        0.0423
     39 C         -30.3832   49.8582  -10.7966 C.ar    1  UNL1        0.0742
     40 CL        -31.5821   48.5791  -10.9373 Cl      1  UNL1       -0.0808
@<TRIPOS>BOND
     1     1     2    1
     2     2     3    1
     3     2     4    1
     4     4     5    1
     5     5     6   ar
     6     6     7   ar
     7     7    16    1
     8    16    17    2
     9    16    18   am
    10    18    20    1
    11    20    21   ar
    12    21    22   ar
    13    22    23   ar
    14    23    26    1
    15    26    27    1
    16    26    28    1
    17    26    29    1
    18    23    24   ar
    19    24    25   ar
    20     7     8   ar
    21     8     9   ar
    22     9    10   ar
    23    10    11   ar
    24    11    30    1
    25    30    32    1
    26    32    33   ar
    27    33    34    1
    28    33    35   ar
    29    35    36   ar
    30    36    37    1
    31    36    38   ar
    32    38    39   ar
    33    39    40    1
    34    11    12   ar
    35    12    13   ar
    36     6    14    1
    37    14     2    1
    38    13     5   ar
    39    25    20   ar
    40    13     9   ar
    41    39    32   ar
    42    18    19    1
    43    30    31    1
    44    12    15    1
