@<TRIPOS>MOLECULE
*****
 45 51 0 0 0
SMALL
GASTEIGER

@<TRIPOS>ATOM
      1 C          -3.7322  -16.7391   21.9159 C.3     1  UNL1        0.0817
      2 C          -4.3597  -15.7861   20.8766 C.3     1  UNL1        0.0252
      3 C          -5.0734  -14.6785   21.6756 C.3     1  UNL1        0.0278
      4 C          -5.1185  -15.2113   23.0598 C.ar    1  UNL1       -0.0248
      5 C          -5.8077  -14.6619   24.1411 C.ar    1  UNL1       -0.0045
      6 C          -5.7952  -15.3401   25.3778 C.ar    1  UNL1       -0.0002
      7 C          -5.0520  -16.5373   25.5031 C.ar    1  UNL1       -0.0003
      8 C          -4.3450  -17.0553   24.4077 C.ar    1  UNL1       -0.0033
      9 C          -4.4064  -16.3778   23.1888 C.ar    1  UNL1       -0.0117
     10 C          -2.8936  -19.1017   21.5151 C.3     1  UNL1        0.1158
     11 N          -3.3219  -20.3312   21.1365 N.3     1  UNL1       -0.2851
     12 C          -4.6362  -20.1513   20.9415 C.3     1  UNL1        0.0910
     13 C          -5.5554  -21.1103   20.5492 C.3     1  UNL1        0.1018
     14 C          -6.8927  -20.7100   20.4322 C.3     1  UNL1        0.3136
     15 N          -7.2753  -19.4148   20.7091 N.am    1  UNL1       -0.1294
     16 C          -6.3310  -18.4592   21.0288 C.2     1  UNL1        0.4047
     17 O          -6.6657  -17.2549   21.1745 O.2     1  UNL1       -0.2174
     18 C          -4.9920  -18.8583   21.1787 C.3     1  UNL1        0.2038
     19 N          -3.8875  -18.1637   21.5534 N.3     1  UNL1       -0.2473
     20 H          -3.1518  -21.0196   21.8697 H       1  UNL1        0.1244
     21 C          -0.6581  -18.5710   20.5386 C.3     1  UNL1        0.0029
     22 C          -1.4431  -18.8426   21.8170 C.3     1  UNL1        0.0326
     23 C          -8.7074  -19.0671   20.6243 C.3     1  UNL1        0.3394
     24 C          -9.4628  -19.4820   21.8744 C.ar    1  UNL1        0.0505
     25 C          -8.7700  -20.1870   22.8762 C.ar    1  UNL1        0.0021
     26 C          -9.4176  -20.5841   24.0467 C.ar    1  UNL1       -0.0001
     27 C         -10.7644  -20.2827   24.2372 C.ar    1  UNL1       -0.0003
     28 C         -11.4712  -19.5873   23.2556 C.ar    1  UNL1       -0.0044
     29 C         -10.8419  -19.1930   22.0618 C.ar    1  UNL1       -0.0193
     30 C         -11.6417  -18.4087   21.0549 C.3     1  UNL1        0.0309
     31 C          -6.5199  -14.7834   26.5476 C.ar    1  UNL1        0.0030
     32 C          -5.8738  -13.8056   27.3225 C.ar    1  UNL1       -0.0002
     33 C          -6.5334  -13.1754   28.3767 C.ar    1  UNL1       -0.0043
     34 C          -7.8620  -13.4998   28.6814 C.ar    1  UNL1       -0.0224
     35 C          -8.5137  -14.4851   27.9197 C.ar    1  UNL1       -0.0012
     36 C          -7.8558  -15.1465   26.8679 C.ar    1  UNL1        0.0368
     37 C          -8.5885  -16.2242   26.1611 C.ar    1  UNL1        0.1805
     38 N          -8.9949  -16.1509   24.8791 N.ar    1  UNL1       -0.1084
     39 N          -9.6472  -17.2840   24.6592 N.ar    1  UNL1       -0.0229
     40 N          -9.6558  -18.0213   25.7592 N.ar    1  UNL1       -0.0464
     41 N          -9.0046  -17.3775   26.7102 N.ar    1  UNL1       -0.2388
     42 H          -8.8870  -17.7117   27.6896 H       1  UNL1        0.1923
     43 C          -8.5696  -12.7985   29.8264 C.3     1  UNL1        0.0224
     44 C          -7.8841  -11.4708   30.1711 C.3     1  UNL1        0.0047
     45 C         -10.0552  -12.5875   29.5114 C.3     1  UNL1        0.0047
@<TRIPOS>BOND
     1    21    22    1
     2    22    10    1
     3    10    11    1
     4    11    12    1
     5    12    13    1
     6    13    14    1
     7    14    15    1
     8    15    23    1
     9    23    24    1
    10    24    25   ar
    11    25    26   ar
    12    26    27   ar
    13    27    28   ar
    14    28    29   ar
    15    29    30    1
    16    15    16    1
    17    16    17    2
    18    16    18    1
    19    18    19    1
    20    19     1    1
    21     1     2    1
    22     2     3    1
    23     3     4    1
    24     4     5   ar
    25     5     6   ar
    26     6    31    1
    27    31    32   ar
    28    32    33   ar
    29    33    34   ar
    30    34    43    1
    31    43    44    1
    32    43    45    1
    33    34    35   ar
    34    35    36   ar
    35    36    37    1
    36    37    38   ar
    37    38    39   ar
    38    39    40   ar
    39    40    41   ar
    40     6     7   ar
    41     7     8   ar
    42     8     9   ar
    43    19    10    1
    44     9     1    1
    45    18    12    1
    46     9     4   ar
    47    29    24   ar
    48    36    31   ar
    49    41    37   ar
    50    41    42    1
    51    11    20    1
@<TRIPOS>MOLECULE
*****
 45 51 0 0 0
SMALL
GASTEIGER

@<TRIPOS>ATOM
      1 C         -10.1437   -7.1995   29.4319 C.3     1  UNL1        0.0817
      2 C          -9.7585   -7.8384   28.0808 C.3     1  UNL1        0.0252
      3 C         -10.3784   -9.2491   28.0730 C.3     1  UNL1        0.0278
      4 C         -10.7712   -9.4727   29.4864 C.ar    1  UNL1       -0.0248
      5 C         -11.2316  -10.6659   30.0436 C.ar    1  UNL1       -0.0045
      6 C         -11.4981  -10.7180   31.4277 C.ar    1  UNL1       -0.0002
      7 C         -11.3317   -9.5505   32.2090 C.ar    1  UNL1       -0.0003
      8 C         -10.8932   -8.3552   31.6199 C.ar    1  UNL1       -0.0033
      9 C         -10.6053   -8.3468   30.2540 C.ar    1  UNL1       -0.0117
     10 C          -8.9687   -5.0926   30.2234 C.3     1  UNL1        0.1158
     11 N          -7.8192   -4.6727   30.8073 N.3     1  UNL1       -0.2851
     12 C          -7.1444   -5.8132   31.0108 C.3     1  UNL1        0.0910
     13 C          -5.8960   -5.9451   31.5960 C.3     1  UNL1        0.1018
     14 C          -5.3850   -7.2418   31.7367 C.3     1  UNL1        0.3136
     15 N          -6.1052   -8.3404   31.3184 N.am    1  UNL1       -0.1294
     16 C          -7.3155   -8.1797   30.6730 C.2     1  UNL1        0.4047
     17 O          -7.9207   -9.1738   30.1947 O.2     1  UNL1       -0.2174
     18 C          -7.8500   -6.8854   30.5554 C.3     1  UNL1        0.2038
     19 N          -9.0301   -6.4470   30.0474 N.3     1  UNL1       -0.2473
     20 H          -8.0095   -4.1979   31.6897 H       1  UNL1        0.1244
     21 C         -11.3725   -4.4504   30.4284 C.3     1  UNL1        0.0029
     22 C         -10.0268   -4.1128   29.7962 C.3     1  UNL1        0.0326
     23 C          -5.5399   -9.6849   31.5460 C.3     1  UNL1        0.3394
     24 C          -5.6058  -10.5428   30.2949 C.ar    1  UNL1        0.0505
     25 C          -6.4711  -11.6527   30.2850 C.ar    1  UNL1        0.0021
     26 C          -6.5730  -12.4677   29.1569 C.ar    1  UNL1       -0.0001
     27 C          -5.8159  -12.1876   28.0214 C.ar    1  UNL1       -0.0003
     28 C          -4.9496  -11.0940   28.0105 C.ar    1  UNL1       -0.0044
     29 C          -4.8194  -10.2703   29.1425 C.ar    1  UNL1       -0.0193
     30 C          -3.9007   -9.0796   29.0609 C.3     1  UNL1        0.0309
     31 C         -11.9873  -11.9727   32.0522 C.ar    1  UNL1        0.0030
     32 C         -13.2657  -12.4345   31.6964 C.ar    1  UNL1       -0.0002
     33 C         -13.7460  -13.6531   32.1737 C.ar    1  UNL1       -0.0043
     34 C         -12.9578  -14.4492   33.0152 C.ar    1  UNL1       -0.0224
     35 C         -11.6819  -13.9908   33.3866 C.ar    1  UNL1       -0.0012
     36 C         -11.1913  -12.7541   32.9325 C.ar    1  UNL1        0.0368
     37 C          -9.8669  -12.3097   33.4286 C.ar    1  UNL1        0.1805
     38 N          -9.4930  -12.3370   34.7223 N.ar    1  UNL1       -0.1084
     39 N          -8.2753  -11.8129   34.7400 N.ar    1  UNL1       -0.0229
     40 N          -7.9153  -11.4644   33.5141 N.ar    1  UNL1       -0.0464
     41 N          -8.8950  -11.7615   32.6805 N.ar    1  UNL1       -0.2388
     42 H          -8.8941  -11.5636   31.6580 H       1  UNL1        0.1923
     43 C         -13.4911  -15.7776   33.5196 C.3     1  UNL1        0.0224
     44 C         -15.0179  -15.7444   33.6592 C.3     1  UNL1        0.0047
     45 C         -13.0444  -16.9318   32.6145 C.3     1  UNL1        0.0047
@<TRIPOS>BOND
     1    21    22    1
     2    22    10    1
     3    10    11    1
     4    11    12    1
     5    12    13    1
     6    13    14    1
     7    14    15    1
     8    15    23    1
     9    23    24    1
    10    24    25   ar
    11    25    26   ar
    12    26    27   ar
    13    27    28   ar
    14    28    29   ar
    15    29    30    1
    16    15    16    1
    17    16    17    2
    18    16    18    1
    19    18    19    1
    20    19     1    1
    21     1     2    1
    22     2     3    1
    23     3     4    1
    24     4     5   ar
    25     5     6   ar
    26     6    31    1
    27    31    32   ar
    28    32    33   ar
    29    33    34   ar
    30    34    43    1
    31    43    44    1
    32    43    45    1
    33    34    35   ar
    34    35    36   ar
    35    36    37    1
    36    37    38   ar
    37    38    39   ar
    38    39    40   ar
    39    40    41   ar
    40     6     7   ar
    41     7     8   ar
    42     8     9   ar
    43    19    10    1
    44     9     1    1
    45    18    12    1
    46     9     4   ar
    47    29    24   ar
    48    36    31   ar
    49    41    37   ar
    50    41    42    1
    51    11    20    1
@<TRIPOS>MOLECULE
*****
 45 51 0 0 0
SMALL
GASTEIGER

@<TRIPOS>ATOM
      1 C          -6.1367   -9.0785   32.5815 C.3     1  UNL1        0.0817
      2 C          -7.2944   -9.3271   33.5715 C.3     1  UNL1        0.0252
      3 C          -7.9164  -10.6825   33.1835 C.3     1  UNL1        0.0278
      4 C          -7.3440  -10.9662   31.8442 C.ar    1  UNL1       -0.0248
      5 C          -7.7141  -11.9990   30.9826 C.ar    1  UNL1       -0.0045
      6 C          -7.1078  -12.0816   29.7117 C.ar    1  UNL1       -0.0002
      7 C          -6.1115  -11.1417   29.3577 C.ar    1  UNL1       -0.0003
      8 C          -5.7376  -10.1282   30.2527 C.ar    1  UNL1       -0.0033
      9 C          -6.3817  -10.0539   31.4889 C.ar    1  UNL1       -0.0117
     10 C          -5.0833   -6.7764   32.3897 C.3     1  UNL1        0.1158
     11 N          -5.2912   -5.5556   31.8375 N.3     1  UNL1       -0.2851
     12 C          -6.4526   -5.7080   31.1852 C.3     1  UNL1        0.0910
     13 C          -7.1156   -4.7493   30.4370 C.3     1  UNL1        0.1018
     14 C          -8.3094   -5.1326   29.8124 C.3     1  UNL1        0.3136
     15 N          -8.7947   -6.4176   29.9312 N.am    1  UNL1       -0.1294
     16 C          -8.1546   -7.3355   30.7404 C.2     1  UNL1        0.4047
     17 O          -8.6557   -8.4731   30.9355 O.2     1  UNL1       -0.2174
     18 C          -6.9403   -6.9694   31.3456 C.3     1  UNL1        0.2038
     19 N          -6.0740   -7.6775   32.1143 N.3     1  UNL1       -0.2473
     20 H          -4.5388   -5.3127   31.1930 H       1  UNL1        0.1244
     21 C          -2.9015   -5.8762   33.2035 C.3     1  UNL1        0.0029
     22 C          -3.8771   -7.0471   33.2463 C.3     1  UNL1        0.0326
     23 C         -10.0268   -6.7782   29.2027 C.3     1  UNL1        0.3394
     24 C         -11.1381   -7.1977   30.1486 C.ar    1  UNL1        0.0505
     25 C         -11.5262   -8.5502   30.1728 C.ar    1  UNL1        0.0021
     26 C         -12.5372   -8.9871   31.0296 C.ar    1  UNL1       -0.0001
     27 C         -13.1749   -8.0831   31.8766 C.ar    1  UNL1       -0.0003
     28 C         -12.8079   -6.7370   31.8668 C.ar    1  UNL1       -0.0044
     29 C         -11.8036   -6.2733   30.9991 C.ar    1  UNL1       -0.0193
     30 C         -11.4191   -4.8183   31.0601 C.3     1  UNL1        0.0309
     31 C          -7.4805  -13.1673   28.7704 C.ar    1  UNL1        0.0030
     32 C          -6.4676  -13.7327   27.9776 C.ar    1  UNL1       -0.0002
     33 C          -6.7323  -14.8175   27.1430 C.ar    1  UNL1       -0.0043
     34 C          -8.0171  -15.3733   27.0829 C.ar    1  UNL1       -0.0224
     35 C          -9.0403  -14.8076   27.8632 C.ar    1  UNL1       -0.0012
     36 C          -8.7957  -13.6994   28.6930 C.ar    1  UNL1        0.0368
     37 C          -9.9443  -13.1168   29.4273 C.ar    1  UNL1        0.1805
     38 N         -10.5751  -11.9812   29.0714 N.ar    1  UNL1       -0.1084
     39 N         -11.4938  -11.7895   30.0079 N.ar    1  UNL1       -0.0229
     40 N         -11.4271  -12.7559   30.9109 N.ar    1  UNL1       -0.0464
     41 N         -10.4645  -13.5928   30.5707 N.ar    1  UNL1       -0.2388
     42 H         -10.1709  -14.4264   31.1219 H       1  UNL1        0.1923
     43 C          -8.2877  -16.5599   26.1761 C.3     1  UNL1        0.0224
     44 C          -9.3094  -17.5154   26.8042 C.3     1  UNL1        0.0047
     45 C          -8.7432  -16.1003   24.7861 C.3     1  UNL1        0.0047
@<TRIPOS>BOND
     1    21    22    1
     2    22    10    1
     3    10    11    1
     4    11    12    1
     5    12    13    1
     6    13    14    1
     7    14    15    1
     8    15    23    1
     9    23    24    1
    10    24    25   ar
    11    25    26   ar
    12    26    27   ar
    13    27    28   ar
    14    28    29   ar
    15    29    30    1
    16    15    16    1
    17    16    17    2
    18    16    18    1
    19    18    19    1
    20    19     1    1
    21     1     2    1
    22     2     3    1
    23     3     4    1
    24     4     5   ar
    25     5     6   ar
    26     6    31    1
    27    31    32   ar
    28    32    33   ar
    29    33    34   ar
    30    34    43    1
    31    43    44    1
    32    43    45    1
    33    34    35   ar
    34    35    36   ar
    35    36    37    1
    36    37    38   ar
    37    38    39   ar
    38    39    40   ar
    39    40    41   ar
    40     6     7   ar
    41     7     8   ar
    42     8     9   ar
    43    19    10    1
    44     9     1    1
    45    18    12    1
    46     9     4   ar
    47    29    24   ar
    48    36    31   ar
    49    41    37   ar
    50    41    42    1
    51    11    20    1
