@<TRIPOS>MOLECULE
*****
 54 60 0 0 0
SMALL
GASTEIGER

@<TRIPOS>ATOM
      1 C          60.0621   85.0747    9.3122 C.ar    1  UNL1        0.0481
      2 C          58.9629   84.9700   10.1800 C.ar    1  UNL1        0.0176
      3 C          58.9591   84.0221   11.2075 C.ar    1  UNL1        0.0382
      4 C          60.0599   83.1617   11.3846 C.ar    1  UNL1        0.1388
      5 C          61.1493   83.2627   10.5121 C.ar    1  UNL1        0.0382
      6 C          61.1537   84.2105    9.4852 C.ar    1  UNL1        0.0176
      7 N          59.8056   88.2408    6.5672 N.pl3   1  UNL1       -0.3041
      8 C          60.8383   88.2954    7.6091 C.3     1  UNL1        0.1122
      9 C          61.2572   86.8797    8.0128 C.3     1  UNL1        0.1122
     10 N          60.0711   86.0482    8.2509 N.pl3   1  UNL1       -0.3041
     11 C          59.0478   85.9962    7.1996 C.3     1  UNL1        0.1122
     12 C          58.6204   87.4126    6.8197 C.3     1  UNL1        0.1122
     13 C          59.7617   91.0696    3.3839 C.ar    1  UNL1        0.0726
     14 C          58.6035   90.8129    4.1322 C.ar    1  UNL1        0.0191
     15 C          58.6202   89.8876    5.1749 C.ar    1  UNL1        0.0160
     16 C          59.7982   89.2024    5.4953 C.ar    1  UNL1        0.0481
     17 C          60.9669   89.4670    4.7644 C.ar    1  UNL1        0.0188
     18 C          60.9699   90.4063    3.7158 C.ar    1  UNL1        0.0522
     19 N          59.3163   92.8264    0.2504 N.ar    1  UNL1       -0.2024
     20 N          59.5564   93.8461    1.0627 N.ar    1  UNL1       -0.1442
     21 C          59.7669   93.3179    2.2887 C.ar    1  UNL1        0.2073
     22 N          59.6779   91.9710    2.2679 N.ar    1  UNL1       -0.2397
     23 C          59.3759   91.6988    0.9856 C.ar    1  UNL1        0.3522
     24 O          59.1469   90.5417    0.5400 O.2     1  UNL1       -0.2444
     25 C          59.0177   92.9734   -1.1788 C.3     1  UNL1        0.1099
     26 C          57.7707   93.8477   -1.3704 C.3     1  UNL1        0.0265
     27 C          61.3966   92.5223   -2.0003 C.3     1  UNL1        0.0021
     28 C          60.2486   93.5290   -1.9250 C.3     1  UNL1        0.0245
     29 C          62.2484   90.7276    3.0317 C.2     1  UNL1        0.1749
     30 C          62.3045   90.9603    1.5530 C.3     1  UNL1        0.0773
     31 O          63.3239   90.7514    3.6889 O.2     1  UNL1       -0.2913
     32 O          60.1131   82.1925   12.3998 O.3     1  UNL1       -0.4727
     33 C          61.0566   82.1643   13.4718 C.3     1  UNL1        0.2374
     34 C          61.8806   83.4580   13.5142 C.3     1  UNL1        0.1909
     35 C          62.7773   83.5408   14.7150 C.3     1  UNL1        0.1783
     36 O          62.7921   84.8816   15.0886 O.3     1  UNL1       -0.3271
     37 C          61.7227   85.5060   14.3989 C.3     1  UNL1        0.2232
     38 O          61.0349   84.5559   13.6127 O.3     1  UNL1       -0.3258
     39 C          62.2779   86.6438   13.5313 C.ar    1  UNL1        0.0404
     40 C          61.9918   86.6293   12.1484 C.ar    1  UNL1        0.0021
     41 C          62.4984   87.6104   11.2955 C.ar    1  UNL1        0.0113
     42 C          63.3180   88.6185   11.7974 C.ar    1  UNL1        0.0585
     43 CL         63.9571   89.8480   10.7216 Cl      1  UNL1       -0.0822
     44 C          63.6420   88.6399   13.1537 C.ar    1  UNL1        0.0226
     45 C          63.1433   87.6624   14.0249 C.ar    1  UNL1        0.0591
     46 CL         63.6705   87.7732   15.7034 Cl      1  UNL1       -0.0824
     47 C          60.7573   86.0827   15.4525 C.3     1  UNL1        0.1338
     48 N          59.3538   86.0092   14.9829 N.3     1  UNL1       -0.2659
     49 C          59.1433   86.7972   13.7551 C.3     1  UNL1        0.0896
     50 C          57.6385   86.8749   13.4247 C.3     1  UNL1        0.0862
     51 N          56.8572   85.8069   14.0721 N.3     1  UNL1       -0.2951
     52 C          57.5726   84.5261   14.0336 C.3     1  UNL1        0.0862
     53 C          58.9270   84.6098   14.7714 C.3     1  UNL1        0.0896
     54 H          56.6899   86.0655   15.0734 H       1  UNL1        0.1233
@<TRIPOS>BOND
     1    27    28    1
     2    28    25    1
     3    25    26    1
     4    25    19    1
     5    19    20   ar
     6    20    21   ar
     7    21    22   ar
     8    22    13    1
     9    13    14   ar
    10    14    15   ar
    11    15    16   ar
    12    16     7    1
    13     7     8    1
    14     8     9    1
    15     9    10    1
    16    10     1    1
    17     1     2   ar
    18     2     3   ar
    19     3     4   ar
    20     4    32    1
    21    32    33    1
    22    33    34    1
    23    34    35    1
    24    35    36    1
    25    36    37    1
    26    37    47    1
    27    47    48    1
    28    48    49    1
    29    49    50    1
    30    50    51    1
    31    51    52    1
    32    52    53    1
    33    37    39    1
    34    39    40   ar
    35    40    41   ar
    36    41    42   ar
    37    42    43    1
    38    42    44   ar
    39    44    45   ar
    40    45    46    1
    41    37    38    1
    42     4     5   ar
    43     5     6   ar
    44    10    11    1
    45    11    12    1
    46    16    17   ar
    47    17    18   ar
    48    18    29    1
    49    29    30    1
    50    29    31    2
    51    22    23   ar
    52    23    24    2
    53    23    19   ar
    54    18    13   ar
    55    12     7    1
    56     6     1   ar
    57    38    34    1
    58    53    48    1
    59    45    39   ar
    60    51    54    1
@<TRIPOS>MOLECULE
*****
 54 60 0 0 0
SMALL
GASTEIGER

@<TRIPOS>ATOM
      1 C          58.4118   83.5360   10.5867 C.ar    1  UNL1        0.0481
      2 C          58.2092   83.8251   11.9460 C.ar    1  UNL1        0.0176
      3 C          58.0564   82.7918   12.8751 C.ar    1  UNL1        0.0382
      4 C          58.1057   81.4477   12.4574 C.ar    1  UNL1        0.1388
      5 C          58.2983   81.1637   11.1008 C.ar    1  UNL1        0.0382
      6 C          58.4516   82.1964   10.1719 C.ar    1  UNL1        0.0176
      7 N          59.3895   86.4441    7.7211 N.pl3   1  UNL1       -0.3041
      8 C          59.0353   85.0956    7.2618 C.3     1  UNL1        0.1122
      9 C          58.0727   84.4358    8.2522 C.3     1  UNL1        0.1122
     10 N          58.5681   84.5963    9.6247 N.pl3   1  UNL1       -0.3041
     11 C          58.9134   85.9501   10.0752 C.3     1  UNL1        0.1122
     12 C          59.8913   86.5914    9.0925 C.3     1  UNL1        0.1122
     13 C          59.8809   89.6328    4.9411 C.ar    1  UNL1        0.0726
     14 C          60.9022   88.6931    5.1434 C.ar    1  UNL1        0.0191
     15 C          60.7390   87.6490    6.0529 C.ar    1  UNL1        0.0160
     16 C          59.5474   87.5193    6.7762 C.ar    1  UNL1        0.0481
     17 C          58.5124   88.4439    6.5661 C.ar    1  UNL1        0.0188
     18 C          58.6569   89.4974    5.6436 C.ar    1  UNL1        0.0522
     19 N          61.0193   92.0791    2.5279 N.ar    1  UNL1       -0.2024
     20 N          59.8034   92.5426    2.7810 N.ar    1  UNL1       -0.1442
     21 C          59.2628   91.7163    3.7036 C.ar    1  UNL1        0.2073
     22 N          60.1236   90.7372    4.0542 N.ar    1  UNL1       -0.2397
     23 C          61.2015   90.9812    3.2875 C.ar    1  UNL1        0.3522
     24 O          62.2332   90.2567    3.2613 O.2     1  UNL1       -0.2444
     25 C          61.9396   92.6861    1.5595 C.3     1  UNL1        0.1099
     26 C          63.3488   92.7839    2.1599 C.3     1  UNL1        0.0265
     27 C          63.2971   91.7835   -0.4105 C.3     1  UNL1        0.0021
     28 C          61.9158   91.8950    0.2350 C.3     1  UNL1        0.0245
     29 C          57.5039   90.3958    5.3802 C.2     1  UNL1        0.1749
     30 C          56.1761   89.8540    4.9478 C.3     1  UNL1        0.0773
     31 O          57.6492   91.6453    5.4632 O.2     1  UNL1       -0.2913
     32 O          57.9611   80.3689   13.3451 O.3     1  UNL1       -0.4727
     33 C          59.0165   79.5200   13.7987 C.3     1  UNL1        0.2374
     34 C          60.3605   79.9383   13.1880 C.3     1  UNL1        0.1909
     35 C          61.5367   79.3123   13.8791 C.3     1  UNL1        0.1783
     36 O          62.5430   80.2739   13.8662 O.3     1  UNL1       -0.3271
     37 C          61.9260   81.5013   13.5170 C.3     1  UNL1        0.2232
     38 O          60.5398   81.3087   13.3295 O.3     1  UNL1       -0.3258
     39 C          62.5846   82.0530   12.2452 C.ar    1  UNL1        0.0404
     40 C          61.7586   82.6682   11.2789 C.ar    1  UNL1        0.0021
     41 C          62.2858   83.1552   10.0824 C.ar    1  UNL1        0.0113
     42 C          63.6458   83.0231    9.8120 C.ar    1  UNL1        0.0585
     43 CL         64.3047   83.6322    8.3046 Cl      1  UNL1       -0.0822
     44 C          64.4796   82.3923   10.7349 C.ar    1  UNL1        0.0226
     45 C          63.9677   81.8964   11.9412 C.ar    1  UNL1        0.0591
     46 CL         65.1170   81.0752   12.9958 Cl      1  UNL1       -0.0824
     47 C          62.1456   82.4856   14.6820 C.3     1  UNL1        0.1338
     48 N          61.9673   83.8867   14.2337 N.3     1  UNL1       -0.2659
     49 C          60.8151   84.5310   14.8893 C.3     1  UNL1        0.0896
     50 C          60.5317   85.9012   14.2399 C.3     1  UNL1        0.0862
     51 N          61.6939   86.4374   13.5105 N.3     1  UNL1       -0.2951
     52 C          62.9412   86.1942   14.2446 C.3     1  UNL1        0.0862
     53 C          63.1922   84.6846   14.4534 C.3     1  UNL1        0.0896
     54 H          61.7586   85.9654   12.5775 H       1  UNL1        0.1233
@<TRIPOS>BOND
     1    27    28    1
     2    28    25    1
     3    25    26    1
     4    25    19    1
     5    19    20   ar
     6    20    21   ar
     7    21    22   ar
     8    22    13    1
     9    13    14   ar
    10    14    15   ar
    11    15    16   ar
    12    16     7    1
    13     7     8    1
    14     8     9    1
    15     9    10    1
    16    10     1    1
    17     1     2   ar
    18     2     3   ar
    19     3     4   ar
    20     4    32    1
    21    32    33    1
    22    33    34    1
    23    34    35    1
    24    35    36    1
    25    36    37    1
    26    37    47    1
    27    47    48    1
    28    48    49    1
    29    49    50    1
    30    50    51    1
    31    51    52    1
    32    52    53    1
    33    37    39    1
    34    39    40   ar
    35    40    41   ar
    36    41    42   ar
    37    42    43    1
    38    42    44   ar
    39    44    45   ar
    40    45    46    1
    41    37    38    1
    42     4     5   ar
    43     5     6   ar
    44    10    11    1
    45    11    12    1
    46    16    17   ar
    47    17    18   ar
    48    18    29    1
    49    29    30    1
    50    29    31    2
    51    22    23   ar
    52    23    24    2
    53    23    19   ar
    54    18    13   ar
    55    12     7    1
    56     6     1   ar
    57    38    34    1
    58    53    48    1
    59    45    39   ar
    60    51    54    1
@<TRIPOS>MOLECULE
*****
 54 60 0 0 0
SMALL
GASTEIGER

@<TRIPOS>ATOM
      1 C          60.3498   85.9328   10.1411 C.ar    1  UNL1        0.0481
      2 C          59.2588   85.0832   10.3863 C.ar    1  UNL1        0.0176
      3 C          59.2414   84.2605   11.5164 C.ar    1  UNL1        0.0382
      4 C          60.3188   84.2760   12.4233 C.ar    1  UNL1        0.1388
      5 C          61.4083   85.1170   12.1706 C.ar    1  UNL1        0.0382
      6 C          61.4259   85.9399   11.0413 C.ar    1  UNL1        0.0176
      7 N          59.9737   88.6556    6.9678 N.pl3   1  UNL1       -0.3041
      8 C          60.6258   89.1029    8.2046 C.3     1  UNL1        0.1122
      9 C          61.2981   87.9199    8.9054 C.3     1  UNL1        0.1122
     10 N          60.3742   86.7814    8.9777 N.pl3   1  UNL1       -0.3041
     11 C          59.7326   86.3388    7.7337 C.3     1  UNL1        0.1122
     12 C          59.0459   87.5216    7.0536 C.3     1  UNL1        0.1122
     13 C          59.9973   91.0987    3.4795 C.ar    1  UNL1        0.0726
     14 C          58.8314   90.9519    4.2452 C.ar    1  UNL1        0.0191
     15 C          58.8260   90.1528    5.3877 C.ar    1  UNL1        0.0160
     16 C          59.9892   89.4871    5.7921 C.ar    1  UNL1        0.0481
     17 C          61.1657   89.6436    5.0428 C.ar    1  UNL1        0.0188
     18 C          61.1911   90.4554    3.8930 C.ar    1  UNL1        0.0522
     19 N          59.7462   92.4592    0.1343 N.ar    1  UNL1       -0.2024
     20 N          59.6900   93.5740    0.8494 N.ar    1  UNL1       -0.1442
     21 C          59.7973   93.2041    2.1448 C.ar    1  UNL1        0.2073
     22 N          59.9354   91.8668    2.2665 N.ar    1  UNL1       -0.2397
     23 C          59.8791   91.4310    0.9951 C.ar    1  UNL1        0.3522
     24 O          59.9135   90.2164    0.6583 O.2     1  UNL1       -0.2444
     25 C          59.6463   92.4216   -1.3292 C.3     1  UNL1        0.1099
     26 C          61.0138   92.0923   -1.9435 C.3     1  UNL1        0.0265
     27 C          57.1847   91.7520   -1.1550 C.3     1  UNL1        0.0021
     28 C          58.5495   91.4265   -1.7620 C.3     1  UNL1        0.0245
     29 C          62.4782   90.6715    3.1844 C.2     1  UNL1        0.1749
     30 C          62.7639   91.9507    2.4591 C.3     1  UNL1        0.0773
     31 O          63.3325   89.7456    3.1367 O.2     1  UNL1       -0.2913
     32 O          60.3555   83.4740   13.5757 O.3     1  UNL1       -0.4727
     33 C          60.8177   82.1237   13.6328 C.3     1  UNL1        0.2374
     34 C          60.1789   81.2758   12.5249 C.3     1  UNL1        0.1909
     35 C          60.1594   79.8102   12.8483 C.3     1  UNL1        0.1783
     36 O          60.3700   79.1502   11.6410 O.3     1  UNL1       -0.3271
     37 C          60.8312   80.1252   10.7214 C.3     1  UNL1        0.2232
     38 O          60.9234   81.3829   11.3568 O.3     1  UNL1       -0.3258
     39 C          59.8746   80.1803    9.5225 C.ar    1  UNL1        0.0404
     40 C          60.3920   79.8865    8.2417 C.ar    1  UNL1        0.0021
     41 C          59.5876   79.9569    7.1039 C.ar    1  UNL1        0.0113
     42 C          58.2531   80.3406    7.2132 C.ar    1  UNL1        0.0585
     43 CL         57.2455   80.4327    5.7802 Cl      1  UNL1       -0.0822
     44 C          57.7237   80.6661    8.4618 C.ar    1  UNL1        0.0226
     45 C          58.5168   80.6020    9.6150 C.ar    1  UNL1        0.0591
     46 CL         57.7415   81.0892   11.1214 Cl      1  UNL1       -0.0824
     47 C          62.2328   79.6965   10.2457 C.3     1  UNL1        0.1338
     48 N          63.2194   80.7820   10.4551 N.3     1  UNL1       -0.2659
     49 C          62.7454   82.0676    9.9117 C.3     1  UNL1        0.0896
     50 C          63.8800   83.1121    9.9510 C.3     1  UNL1        0.0862
     51 N          64.9413   82.7646   10.9117 N.3     1  UNL1       -0.2951
     52 C          64.3785   82.2154   12.1508 C.3     1  UNL1        0.0862
     53 C          63.5669   80.9284   11.8845 C.3     1  UNL1        0.0896
     54 H          65.5679   82.0435   10.4818 H       1  UNL1        0.1233
@<TRIPOS>BOND
     1    27    28    1
     2    28    25    1
     3    25    26    1
     4    25    19    1
     5    19    20   ar
     6    20    21   ar
     7    21    22   ar
     8    22    13    1
     9    13    14   ar
    10    14    15   ar
    11    15    16   ar
    12    16     7    1
    13     7     8    1
    14     8     9    1
    15     9    10    1
    16    10     1    1
    17     1     2   ar
    18     2     3   ar
    19     3     4   ar
    20     4    32    1
    21    32    33    1
    22    33    34    1
    23    34    35    1
    24    35    36    1
    25    36    37    1
    26    37    47    1
    27    47    48    1
    28    48    49    1
    29    49    50    1
    30    50    51    1
    31    51    52    1
    32    52    53    1
    33    37    39    1
    34    39    40   ar
    35    40    41   ar
    36    41    42   ar
    37    42    43    1
    38    42    44   ar
    39    44    45   ar
    40    45    46    1
    41    37    38    1
    42     4     5   ar
    43     5     6   ar
    44    10    11    1
    45    11    12    1
    46    16    17   ar
    47    17    18   ar
    48    18    29    1
    49    29    30    1
    50    29    31    2
    51    22    23   ar
    52    23    24    2
    53    23    19   ar
    54    18    13   ar
    55    12     7    1
    56     6     1   ar
    57    38    34    1
    58    53    48    1
    59    45    39   ar
    60    51    54    1
@<TRIPOS>MOLECULE
*****
 54 60 0 0 0
SMALL
GASTEIGER

@<TRIPOS>ATOM
      1 C          58.5770   85.4378    9.3924 C.ar    1  UNL1        0.0481
      2 C          58.0205   84.1789    9.1136 C.ar    1  UNL1        0.0176
      3 C          57.7120   83.2949   10.1518 C.ar    1  UNL1        0.0382
      4 C          57.9550   83.6586   11.4905 C.ar    1  UNL1        0.1388
      5 C          58.5183   84.9101   11.7637 C.ar    1  UNL1        0.0382
      6 C          58.8263   85.7942   10.7262 C.ar    1  UNL1        0.0176
      7 N          59.2492   88.4885    6.5878 N.pl3   1  UNL1       -0.3041
      8 C          60.1267   88.4068    7.7617 C.3     1  UNL1        0.1122
      9 C          60.2329   86.9575    8.2423 C.3     1  UNL1        0.1122
     10 N          58.8984   86.3520    8.3270 N.pl3   1  UNL1       -0.3041
     11 C          58.0318   86.4343    7.1450 C.3     1  UNL1        0.1122
     12 C          57.9142   87.8866    6.6867 C.3     1  UNL1        0.1122
     13 C          60.1276   91.1539    3.3844 C.ar    1  UNL1        0.0726
     14 C          58.8656   91.1583    3.9964 C.ar    1  UNL1        0.0191
     15 C          58.5803   90.2860    5.0459 C.ar    1  UNL1        0.0160
     16 C          59.5540   89.3934    5.5098 C.ar    1  UNL1        0.0481
     17 C          60.8259   89.3953    4.9162 C.ar    1  UNL1        0.0188
     18 C          61.1337   90.2771    3.8629 C.ar    1  UNL1        0.0522
     19 N          60.5153   92.8019    0.1848 N.ar    1  UNL1       -0.2024
     20 N          60.6029   93.8430    1.0007 N.ar    1  UNL1       -0.1442
     21 C          60.4937   93.3558    2.2566 C.ar    1  UNL1        0.2073
     22 N          60.3509   92.0134    2.2545 N.ar    1  UNL1       -0.2397
     23 C          60.3482   91.7026    0.9458 C.ar    1  UNL1        0.3522
     24 O          60.1785   90.5382    0.4925 O.2     1  UNL1       -0.2444
     25 C          60.5697   92.9039   -1.2781 C.3     1  UNL1        0.1099
     26 C          59.3974   93.7507   -1.7923 C.3     1  UNL1        0.0265
     27 C          63.1032   92.5597   -1.3076 C.3     1  UNL1        0.0021
     28 C          61.9389   93.4596   -1.7220 C.3     1  UNL1        0.0245
     29 C          62.5186   90.3145    3.3278 C.2     1  UNL1        0.1749
     30 C          63.1543   91.6012    2.8987 C.3     1  UNL1        0.0773
     31 O          63.1617   89.2413    3.1733 O.2     1  UNL1       -0.2913
     32 O          57.6636   82.8136   12.5739 O.3     1  UNL1       -0.4727
     33 C          58.4756   81.7267   13.0207 C.3     1  UNL1        0.2374
     34 C          59.8254   81.7117   12.2911 C.3     1  UNL1        0.1909
     35 C          60.7898   80.7159   12.8665 C.3     1  UNL1        0.1783
     36 O          62.0484   81.3022   12.7670 O.3     1  UNL1       -0.3271
     37 C          61.8348   82.6745   12.4842 C.3     1  UNL1        0.2232
     38 O          60.4503   82.9454   12.4243 O.3     1  UNL1       -0.3258
     39 C          62.5255   83.0303   11.1606 C.ar    1  UNL1        0.0404
     40 C          61.8223   83.8326   10.2353 C.ar    1  UNL1        0.0021
     41 C          62.3747   84.1601    8.9967 C.ar    1  UNL1        0.0113
     42 C          63.6334   83.6798    8.6429 C.ar    1  UNL1        0.0585
     43 CL         64.3233   84.0895    7.0830 Cl      1  UNL1       -0.0822
     44 C          64.3374   82.8602    9.5248 C.ar    1  UNL1        0.0226
     45 C          63.7979   82.5201   10.7724 C.ar    1  UNL1        0.0591
     46 CL         64.7658   81.4358   11.7699 Cl      1  UNL1       -0.0824
     47 C          62.4599   83.4932   13.6303 C.3     1  UNL1        0.1338
     48 N          61.8462   84.8391   13.7172 N.3     1  UNL1       -0.2659
     49 C          60.9544   84.9621   14.8842 C.3     1  UNL1        0.0896
     50 C          60.1716   86.2897   14.8176 C.3     1  UNL1        0.0862
     51 N          60.8121   87.2854   13.9410 N.3     1  UNL1       -0.2951
     52 C          62.2707   87.2771   14.1032 C.3     1  UNL1        0.0862
     53 C          62.8741   85.9011   13.7453 C.3     1  UNL1        0.0896
     54 H          60.5861   87.0576   12.9438 H       1  UNL1        0.1233
@<TRIPOS>BOND
     1    27    28    1
     2    28    25    1
     3    25    26    1
     4    25    19    1
     5    19    20   ar
     6    20    21   ar
     7    21    22   ar
     8    22    13    1
     9    13    14   ar
    10    14    15   ar
    11    15    16   ar
    12    16     7    1
    13     7     8    1
    14     8     9    1
    15     9    10    1
    16    10     1    1
    17     1     2   ar
    18     2     3   ar
    19     3     4   ar
    20     4    32    1
    21    32    33    1
    22    33    34    1
    23    34    35    1
    24    35    36    1
    25    36    37    1
    26    37    47    1
    27    47    48    1
    28    48    49    1
    29    49    50    1
    30    50    51    1
    31    51    52    1
    32    52    53    1
    33    37    39    1
    34    39    40   ar
    35    40    41   ar
    36    41    42   ar
    37    42    43    1
    38    42    44   ar
    39    44    45   ar
    40    45    46    1
    41    37    38    1
    42     4     5   ar
    43     5     6   ar
    44    10    11    1
    45    11    12    1
    46    16    17   ar
    47    17    18   ar
    48    18    29    1
    49    29    30    1
    50    29    31    2
    51    22    23   ar
    52    23    24    2
    53    23    19   ar
    54    18    13   ar
    55    12     7    1
    56     6     1   ar
    57    38    34    1
    58    53    48    1
    59    45    39   ar
    60    51    54    1
@<TRIPOS>MOLECULE
*****
 54 60 0 0 0
SMALL
GASTEIGER

@<TRIPOS>ATOM
      1 C          60.8349   86.0703   11.7830 C.ar    1  UNL1        0.0481
      2 C          59.7814   85.5178   12.5295 C.ar    1  UNL1        0.0176
      3 C          60.0425   84.8046   13.7032 C.ar    1  UNL1        0.0382
      4 C          61.3668   84.6335   14.1509 C.ar    1  UNL1        0.1388
      5 C          62.4144   85.1773   13.3993 C.ar    1  UNL1        0.0382
      6 C          62.1538   85.8908   12.2264 C.ar    1  UNL1        0.0176
      7 N          60.4843   87.9167    8.0290 N.pl3   1  UNL1       -0.3041
      8 C          59.8708   86.5974    8.2237 C.3     1  UNL1        0.1122
      9 C          59.4673   86.4131    9.6886 C.3     1  UNL1        0.1122
     10 N          60.5721   86.8046   10.5723 N.pl3   1  UNL1       -0.3041
     11 C          61.1739   88.1286   10.3725 C.3     1  UNL1        0.1122
     12 C          61.5935   88.2940    8.9131 C.3     1  UNL1        0.1122
     13 C          59.7624   90.1587    4.4808 C.ar    1  UNL1        0.0726
     14 C          60.9894   89.5101    4.6829 C.ar    1  UNL1        0.0191
     15 C          61.2235   88.7754    5.8445 C.ar    1  UNL1        0.0160
     16 C          60.2322   88.6691    6.8273 C.ar    1  UNL1        0.0481
     17 C          58.9942   89.2988    6.6249 C.ar    1  UNL1        0.0188
     18 C          58.7378   90.0353    5.4528 C.ar    1  UNL1        0.0522
     19 N          59.9886   92.2473    1.5328 N.ar    1  UNL1       -0.2024
     20 N          58.7166   91.8801    1.4672 N.ar    1  UNL1       -0.1442
     21 C          58.4877   91.0972    2.5447 C.ar    1  UNL1        0.2073
     22 N          59.5947   90.9703    3.3067 N.ar    1  UNL1       -0.2397
     23 C          60.5176   91.6833    2.6364 C.ar    1  UNL1        0.3522
     24 O          61.7266   91.7822    2.9805 O.2     1  UNL1       -0.2444
     25 C          60.6467   93.0952    0.5322 C.3     1  UNL1        0.1099
     26 C          61.6866   92.2801   -0.2489 C.3     1  UNL1        0.0265
     27 C          59.4571   93.0257   -1.7301 C.3     1  UNL1        0.0021
     28 C          59.5937   93.7462   -0.3887 C.3     1  UNL1        0.0245
     29 C          57.3836   90.6044    5.2339 C.2     1  UNL1        0.1749
     30 C          56.2095   89.7268    4.9256 C.3     1  UNL1        0.0773
     31 O          57.2172   91.8539    5.2486 O.2     1  UNL1       -0.2913
     32 O          61.6893   83.9292   15.3226 O.3     1  UNL1       -0.4727
     33 C          62.6385   82.8660   15.4173 C.3     1  UNL1        0.2374
     34 C          62.3170   81.7501   14.4145 C.3     1  UNL1        0.1909
     35 C          63.5246   81.2777   13.6586 C.3     1  UNL1        0.1783
     36 O          63.0789   80.9813   12.3737 O.3     1  UNL1       -0.3271
     37 C          61.7892   81.5561   12.2498 C.3     1  UNL1        0.2232
     38 O          61.4401   82.2214   13.4454 O.3     1  UNL1       -0.3258
     39 C          60.7756   80.4536   11.9144 C.ar    1  UNL1        0.0404
     40 C          59.6157   80.3478   12.7130 C.ar    1  UNL1        0.0021
     41 C          58.6731   79.3438   12.4887 C.ar    1  UNL1        0.0113
     42 C          58.8738   78.4094   11.4754 C.ar    1  UNL1        0.0585
     43 CL         57.6892   77.1455   11.1990 Cl      1  UNL1       -0.0822
     44 C          60.0254   78.4715   10.6912 C.ar    1  UNL1        0.0226
     45 C          60.9831   79.4721   10.9026 C.ar    1  UNL1        0.0591
     46 CL         62.4165   79.4069    9.8784 Cl      1  UNL1       -0.0824
     47 C          61.8398   82.5798   11.0991 C.3     1  UNL1        0.1338
     48 N          60.8051   82.2846   10.0804 N.3     1  UNL1       -0.2659
     49 C          59.5106   82.9044   10.4164 C.3     1  UNL1        0.0896
     50 C          58.4136   82.3971    9.4578 C.3     1  UNL1        0.0862
     51 N          58.9610   81.8438    8.2071 N.3     1  UNL1       -0.2951
     52 C          60.0799   82.6540    7.7117 C.3     1  UNL1        0.0862
     53 C          61.2387   82.7063    8.7315 C.3     1  UNL1        0.0896
     54 H          59.3073   80.8716    8.3869 H       1  UNL1        0.1233
@<TRIPOS>BOND
     1    27    28    1
     2    28    25    1
     3    25    26    1
     4    25    19    1
     5    19    20   ar
     6    20    21   ar
     7    21    22   ar
     8    22    13    1
     9    13    14   ar
    10    14    15   ar
    11    15    16   ar
    12    16     7    1
    13     7     8    1
    14     8     9    1
    15     9    10    1
    16    10     1    1
    17     1     2   ar
    18     2     3   ar
    19     3     4   ar
    20     4    32    1
    21    32    33    1
    22    33    34    1
    23    34    35    1
    24    35    36    1
    25    36    37    1
    26    37    47    1
    27    47    48    1
    28    48    49    1
    29    49    50    1
    30    50    51    1
    31    51    52    1
    32    52    53    1
    33    37    39    1
    34    39    40   ar
    35    40    41   ar
    36    41    42   ar
    37    42    43    1
    38    42    44   ar
    39    44    45   ar
    40    45    46    1
    41    37    38    1
    42     4     5   ar
    43     5     6   ar
    44    10    11    1
    45    11    12    1
    46    16    17   ar
    47    17    18   ar
    48    18    29    1
    49    29    30    1
    50    29    31    2
    51    22    23   ar
    52    23    24    2
    53    23    19   ar
    54    18    13   ar
    55    12     7    1
    56     6     1   ar
    57    38    34    1
    58    53    48    1
    59    45    39   ar
    60    51    54    1
