@<TRIPOS>MOLECULE
*****
 47 52 0 0 0
SMALL
GASTEIGER

@<TRIPOS>ATOM
      1 C         -64.0274  -51.7756  -24.5178 C.ar    1  UNL1        0.0702
      2 C         -63.4587  -52.3632  -23.3775 C.ar    1  UNL1        0.0191
      3 C         -64.1496  -53.3580  -22.6839 C.ar    1  UNL1        0.0356
      4 C         -65.4110  -53.7746  -23.1406 C.ar    1  UNL1        0.1318
      5 N         -65.9263  -53.2115  -24.2686 N.ar    1  UNL1       -0.2279
      6 C         -65.2709  -52.2424  -24.9602 C.ar    1  UNL1        0.1149
      7 N         -66.1547  -54.8020  -22.4541 N.pl3   1  UNL1       -0.2932
      8 C         -65.5248  -56.1067  -22.2170 C.3     1  UNL1        0.0923
      9 C         -66.5483  -57.2344  -22.3766 C.3     1  UNL1        0.0252
     10 C         -67.8080  -57.0068  -21.5085 C.3     1  UNL1        0.0471
     11 C         -68.4228  -55.6141  -21.8694 C.3     1  UNL1        0.0235
     12 C         -67.3858  -54.4789  -21.7190 C.3     1  UNL1        0.0922
     13 C         -69.8129  -55.2486  -21.2440 C.3     1  UNL1        0.0018
     14 C         -71.0288  -55.4410  -22.1708 C.3     1  UNL1        0.0001
     15 C         -69.8286  -53.8567  -20.5949 C.3     1  UNL1        0.0001
     16 C         -67.5268  -57.2139  -20.0012 C.3     1  UNL1        0.2054
     17 O         -68.4438  -56.4609  -19.2009 O.3     1  UNL1       -0.4755
     18 C         -68.3446  -56.2094  -17.8215 C.ar    1  UNL1        0.1388
     19 C         -69.4927  -56.3951  -17.0438 C.ar    1  UNL1        0.0369
     20 C         -69.4609  -56.1775  -15.6660 C.ar    1  UNL1        0.0033
     21 C         -68.2804  -55.7621  -15.0485 C.ar    1  UNL1        0.0066
     22 C         -67.1179  -55.5491  -15.8092 C.ar    1  UNL1        0.0785
     23 C         -67.1593  -55.7661  -17.1991 C.ar    1  UNL1        0.0433
     24 C         -65.8662  -55.0991  -15.1596 C.2     1  UNL1        0.3381
     25 O         -65.8668  -54.0922  -14.4006 O.2     1  UNL1       -0.2451
     26 O         -64.6744  -55.7856  -15.3787 O.3     1  UNL1       -0.4771
     27 H         -63.8129  -55.4866  -14.9376 H       1  UNL1        0.2954
     28 C         -63.7042  -49.3780  -25.2923 C.2     1  UNL1        0.2839
     29 O         -64.6367  -48.9550  -24.5583 O.2     1  UNL1       -0.2665
     30 N         -63.3375  -50.7690  -25.2769 N.am    1  UNL1       -0.2766
     31 H         -62.5580  -51.0898  -25.8914 H       1  UNL1        0.1553
     32 C         -63.9155  -49.0340  -28.5051 C.3     1  UNL1        0.0345
     33 C         -63.0648  -48.2725  -27.5342 C.ar    1  UNL1        0.0202
     34 C         -62.9895  -48.4101  -26.1424 C.ar    1  UNL1        0.1946
     35 O         -62.1672  -47.5043  -25.6429 O.2     1  UNL1       -0.4492
     36 C         -61.6865  -46.8029  -26.6403 C.ar    1  UNL1        0.1452
     37 C         -60.7817  -45.7490  -26.5749 C.ar    1  UNL1        0.0375
     38 C         -60.4004  -45.1309  -27.7787 C.ar    1  UNL1        0.0031
     39 C         -60.9265  -45.5724  -29.0233 C.ar    1  UNL1        0.0002
     40 C         -61.8460  -46.6486  -29.0448 C.ar    1  UNL1        0.0028
     41 C         -62.1999  -47.2387  -27.8314 C.ar    1  UNL1        0.0337
     42 C         -60.5166  -44.9121  -30.2886 C.ar    1  UNL1        0.0000
     43 C         -61.4114  -44.0743  -30.9813 C.ar    1  UNL1        0.0000
     44 C         -61.0227  -43.4536  -32.1724 C.ar    1  UNL1        0.0000
     45 C         -59.7399  -43.6603  -32.6844 C.ar    1  UNL1        0.0000
     46 C         -58.8428  -44.4885  -32.0063 C.ar    1  UNL1        0.0000
     47 C         -59.2263  -45.1124  -30.8152 C.ar    1  UNL1        0.0000
@<TRIPOS>BOND
     1    32    33    1
     2    33    34   ar
     3    34    28    1
     4    28    29    2
     5    28    30   am
     6    30     1    1
     7     1     2   ar
     8     2     3   ar
     9     3     4   ar
    10     4     7    1
    11     7     8    1
    12     8     9    1
    13     9    10    1
    14    10    16    1
    15    16    17    1
    16    17    18    1
    17    18    19   ar
    18    19    20   ar
    19    20    21   ar
    20    21    22   ar
    21    22    24    1
    22    24    25    2
    23    24    26    1
    24    22    23   ar
    25    10    11    1
    26    11    13    1
    27    13    14    1
    28    13    15    1
    29    11    12    1
    30     4     5   ar
    31     5     6   ar
    32    34    35   ar
    33    35    36   ar
    34    36    37   ar
    35    37    38   ar
    36    38    39   ar
    37    39    42    1
    38    42    43   ar
    39    43    44   ar
    40    44    45   ar
    41    45    46   ar
    42    46    47   ar
    43    39    40   ar
    44    40    41   ar
    45    41    33   ar
    46     6     1   ar
    47    41    36   ar
    48    12     7    1
    49    47    42   ar
    50    23    18   ar
    51    30    31    1
    52    26    27    1
@<TRIPOS>MOLECULE
*****
 47 52 0 0 0
SMALL
GASTEIGER

@<TRIPOS>ATOM
      1 C         -64.0726  -51.8269  -24.4985 C.ar    1  UNL1        0.0702
      2 C         -63.4882  -52.4883  -23.4077 C.ar    1  UNL1        0.0191
      3 C         -64.1973  -53.4805  -22.7287 C.ar    1  UNL1        0.0356
      4 C         -65.4934  -53.8200  -23.1510 C.ar    1  UNL1        0.1318
      5 N         -66.0251  -53.1859  -24.2327 N.ar    1  UNL1       -0.2279
      6 C         -65.3525  -52.2179  -24.9093 C.ar    1  UNL1        0.1149
      7 N         -66.2570  -54.8419  -22.4784 N.pl3   1  UNL1       -0.2932
      8 C         -65.5514  -55.8844  -21.7229 C.3     1  UNL1        0.0923
      9 C         -66.2564  -57.2343  -21.8829 C.3     1  UNL1        0.0252
     10 C         -67.7612  -57.1520  -21.5348 C.3     1  UNL1        0.0471
     11 C         -68.4231  -56.0464  -22.4223 C.3     1  UNL1        0.0235
     12 C         -67.7035  -54.6879  -22.2684 C.3     1  UNL1        0.0922
     13 C         -69.9840  -55.9117  -22.3725 C.3     1  UNL1        0.0018
     14 C         -70.7596  -57.2342  -22.2186 C.3     1  UNL1        0.0001
     15 C         -70.5484  -55.0723  -23.5284 C.3     1  UNL1        0.0001
     16 C         -68.0036  -56.9870  -20.0157 C.3     1  UNL1        0.2054
     17 O         -68.5107  -55.6825  -19.7166 O.3     1  UNL1       -0.4755
     18 C         -69.5141  -55.3644  -18.7849 C.ar    1  UNL1        0.1388
     19 C         -69.4729  -56.0060  -17.5424 C.ar    1  UNL1        0.0369
     20 C         -70.4293  -55.7264  -16.5657 C.ar    1  UNL1        0.0033
     21 C         -71.4464  -54.8061  -16.8232 C.ar    1  UNL1        0.0066
     22 C         -71.5224  -54.1621  -18.0701 C.ar    1  UNL1        0.0785
     23 C         -70.5568  -54.4530  -19.0516 C.ar    1  UNL1        0.0433
     24 C         -72.6053  -53.1925  -18.3507 C.2     1  UNL1        0.3381
     25 O         -73.7876  -53.4315  -17.9831 O.2     1  UNL1       -0.2451
     26 O         -72.3282  -52.0043  -19.0222 O.3     1  UNL1       -0.4771
     27 H         -73.0619  -51.3336  -19.2176 H       1  UNL1        0.2954
     28 C         -63.7852  -49.4472  -25.3396 C.2     1  UNL1        0.2839
     29 O         -64.7872  -49.0377  -24.6948 O.2     1  UNL1       -0.2665
     30 N         -63.3665  -50.8201  -25.2423 N.am    1  UNL1       -0.2766
     31 H         -62.5301  -51.1297  -25.7834 H       1  UNL1        0.1553
     32 C         -63.9852  -49.0363  -28.5451 C.3     1  UNL1        0.0345
     33 C         -63.1166  -48.3151  -27.5595 C.ar    1  UNL1        0.0202
     34 C         -63.0459  -48.4813  -26.1706 C.ar    1  UNL1        0.1946
     35 O         -62.2016  -47.6061  -25.6535 O.2     1  UNL1       -0.4492
     36 C         -61.7028  -46.8979  -26.6371 C.ar    1  UNL1        0.1452
     37 C         -60.7720  -45.8683  -26.5511 C.ar    1  UNL1        0.0375
     38 C         -60.3744  -45.2369  -27.7426 C.ar    1  UNL1        0.0031
     39 C         -60.9103  -45.6411  -28.9957 C.ar    1  UNL1        0.0002
     40 C         -61.8564  -46.6934  -29.0382 C.ar    1  UNL1        0.0028
     41 C         -62.2259  -47.2977  -27.8365 C.ar    1  UNL1        0.0337
     42 C         -60.4830  -44.9671  -30.2479 C.ar    1  UNL1        0.0000
     43 C         -61.3835  -44.1605  -30.9698 C.ar    1  UNL1        0.0000
     44 C         -60.9784  -43.5267  -32.1485 C.ar    1  UNL1        0.0000
     45 C         -59.6735  -43.6891  -32.6189 C.ar    1  UNL1        0.0000
     46 C         -58.7706  -44.4859  -31.9116 C.ar    1  UNL1        0.0000
     47 C         -59.1704  -45.1227  -30.7327 C.ar    1  UNL1        0.0000
@<TRIPOS>BOND
     1    32    33    1
     2    33    34   ar
     3    34    28    1
     4    28    29    2
     5    28    30   am
     6    30     1    1
     7     1     2   ar
     8     2     3   ar
     9     3     4   ar
    10     4     7    1
    11     7     8    1
    12     8     9    1
    13     9    10    1
    14    10    16    1
    15    16    17    1
    16    17    18    1
    17    18    19   ar
    18    19    20   ar
    19    20    21   ar
    20    21    22   ar
    21    22    24    1
    22    24    25    2
    23    24    26    1
    24    22    23   ar
    25    10    11    1
    26    11    13    1
    27    13    14    1
    28    13    15    1
    29    11    12    1
    30     4     5   ar
    31     5     6   ar
    32    34    35   ar
    33    35    36   ar
    34    36    37   ar
    35    37    38   ar
    36    38    39   ar
    37    39    42    1
    38    42    43   ar
    39    43    44   ar
    40    44    45   ar
    41    45    46   ar
    42    46    47   ar
    43    39    40   ar
    44    40    41   ar
    45    41    33   ar
    46     6     1   ar
    47    41    36   ar
    48    12     7    1
    49    47    42   ar
    50    23    18   ar
    51    30    31    1
    52    26    27    1
