@<TRIPOS>MOLECULE
*****
 49 54 0 0 0
SMALL
GASTEIGER

@<TRIPOS>ATOM
      1 C          14.4652   86.2464   26.4172 C.2     1  UNL1        0.2483
      2 O          14.3677   86.6391   27.6122 O.2     1  UNL1       -0.2701
      3 N          14.9541   87.1434   25.4067 N.am    1  UNL1       -0.2945
      4 H          14.7695   86.8976   24.4079 H       1  UNL1        0.1501
      5 C          13.2089   82.2402   25.4523 C.ar    1  UNL1        0.0502
      6 C          13.6583   82.5664   26.7437 C.ar    1  UNL1        0.0148
      7 C          14.0696   83.8666   27.0463 C.ar    1  UNL1        0.0080
      8 C          14.0334   84.8738   26.0687 C.ar    1  UNL1        0.0808
      9 C          13.6021   84.5473   24.7688 C.ar    1  UNL1        0.1457
     10 F          13.6167   85.4708   23.7744 F       1  UNL1       -0.2040
     11 C          13.1929   83.2443   24.4684 C.ar    1  UNL1        0.0443
     12 N          11.9823   78.2827   24.3159 N.pl3   1  UNL1       -0.3040
     13 C          11.1080   79.4372   24.0557 C.3     1  UNL1        0.1122
     14 C          11.3545   80.5682   25.0588 C.3     1  UNL1        0.1122
     15 N          12.7859   80.8944   25.1371 N.pl3   1  UNL1       -0.3040
     16 C          13.7906   79.8309   24.9814 C.3     1  UNL1        0.1122
     17 C          13.1729   78.4410   25.1639 C.3     1  UNL1        0.1122
     18 C          10.9139   74.4236   22.8149 C.ar    1  UNL1        0.0050
     19 C          10.8160   74.7135   24.1883 C.ar    1  UNL1       -0.0008
     20 C          11.1650   75.9742   24.6779 C.ar    1  UNL1        0.0143
     21 C          11.6188   76.9794   23.8075 C.ar    1  UNL1        0.0502
     22 C          11.7200   76.6906   22.4354 C.ar    1  UNL1        0.0438
     23 C          11.3722   75.4294   21.9418 C.ar    1  UNL1        0.1374
     24 F          11.4896   75.1957   20.6100 F       1  UNL1       -0.2045
     25 C          11.2598   71.9409   23.0557 C.3     1  UNL1        0.0048
     26 C          10.5335   73.0505   22.2856 C.3     1  UNL1        0.0246
     27 C           9.0144   72.8448   22.3244 C.3     1  UNL1        0.0048
     28 C          15.4186   88.5012   25.7220 C.3     1  UNL1        0.1535
     29 C          16.9324   88.5530   25.8314 C.2     1  UNL1        0.2443
     30 O          17.4665   89.0690   26.8505 O.2     1  UNL1       -0.2730
     31 N          17.7812   87.9120   24.8654 N.am    1  UNL1       -0.2825
     32 H          18.7225   87.5895   25.1849 H       1  UNL1        0.1549
     33 C          17.3832   87.5898   23.5265 C.ar    1  UNL1        0.0535
     34 C          16.5637   86.4824   23.2646 C.ar    1  UNL1        0.0353
     35 C          16.1662   86.2173   21.9519 C.ar    1  UNL1        0.1002
     36 N          16.5561   87.0403   20.9422 N.ar    1  UNL1       -0.2422
     37 C          17.3299   88.1343   21.1732 C.ar    1  UNL1        0.1002
     38 C          17.7483   88.4348   22.4718 C.ar    1  UNL1        0.0353
     39 C          14.8977   89.5044   24.6745 C.3     1  UNL1        0.0569
     40 C          13.7329   88.9717   23.8861 C.ar    1  UNL1       -0.0017
     41 C          12.6301   88.2927   24.3970 C.ar    1  UNL1        0.0681
     42 N          11.8107   87.9007   23.3952 N.ar    1  UNL1       -0.3523
     43 C          12.3881   88.3217   22.2566 C.ar    1  UNL1        0.0563
     44 C          11.9196   88.1417   20.9558 C.ar    1  UNL1        0.0170
     45 C          12.6923   88.6600   19.9007 C.ar    1  UNL1        0.0015
     46 C          13.9019   89.3395   20.1663 C.ar    1  UNL1        0.0001
     47 C          14.3502   89.5061   21.4889 C.ar    1  UNL1        0.0012
     48 C          13.5643   88.9791   22.5146 C.ar    1  UNL1        0.0131
     49 H          10.9167   87.3695   23.4907 H       1  UNL1        0.1660
@<TRIPOS>BOND
     1    25    26    1
     2    26    27    1
     3    26    18    1
     4    18    19   ar
     5    19    20   ar
     6    20    21   ar
     7    21    12    1
     8    12    13    1
     9    13    14    1
    10    14    15    1
    11    15     5    1
    12     5     6   ar
    13     6     7   ar
    14     7     8   ar
    15     8     1    1
    16     1     2    2
    17     1     3   am
    18     3    28    1
    19    28    39    1
    20    39    40    1
    21    40    41   ar
    22    41    42   ar
    23    42    43   ar
    24    43    44   ar
    25    44    45   ar
    26    45    46   ar
    27    46    47   ar
    28    47    48   ar
    29    28    29    1
    30    29    30    2
    31    29    31   am
    32    31    33    1
    33    33    34   ar
    34    34    35   ar
    35    35    36   ar
    36    36    37   ar
    37    37    38   ar
    38     8     9   ar
    39     9    10    1
    40     9    11   ar
    41    15    16    1
    42    16    17    1
    43    21    22   ar
    44    22    23   ar
    45    23    24    1
    46    23    18   ar
    47    17    12    1
    48    11     5   ar
    49    48    40   ar
    50    38    33   ar
    51    48    43   ar
    52     3     4    1
    53    42    49    1
    54    31    32    1
@<TRIPOS>MOLECULE
*****
 49 54 0 0 0
SMALL
GASTEIGER

@<TRIPOS>ATOM
      1 C           8.7445   75.6579   27.9058 C.2     1  UNL1        0.2483
      2 O           9.3789   74.5812   28.0789 O.2     1  UNL1       -0.2701
      3 N           7.3518   75.7315   28.2518 N.am    1  UNL1       -0.2945
      4 H           6.7929   76.5197   27.8537 H       1  UNL1        0.1501
      5 C          10.8133   79.0212   26.1832 C.ar    1  UNL1        0.0502
      6 C          11.4716   78.1350   27.0534 C.ar    1  UNL1        0.0148
      7 C          10.7916   77.0505   27.6123 C.ar    1  UNL1        0.0080
      8 C           9.4402   76.8202   27.3084 C.ar    1  UNL1        0.0808
      9 C           8.7716   77.7160   26.4523 C.ar    1  UNL1        0.1457
     10 F           7.4485   77.5732   26.1859 F       1  UNL1       -0.2040
     11 C           9.4546   78.8020   25.8959 C.ar    1  UNL1        0.0443
     12 N          12.8908   82.4562   24.6529 N.pl3   1  UNL1       -0.3040
     13 C          11.4523   82.5284   24.9532 C.3     1  UNL1        0.1122
     14 C          10.7816   81.1567   24.8311 C.3     1  UNL1        0.1122
     15 N          11.5151   80.1456   25.6065 N.pl3   1  UNL1       -0.3040
     16 C          12.9795   80.2296   25.7223 C.3     1  UNL1        0.1122
     17 C          13.5768   81.1558   24.6583 C.3     1  UNL1        0.1122
     18 C          15.0073   85.9946   23.5182 C.ar    1  UNL1        0.0050
     19 C          14.8978   84.9068   22.6324 C.ar    1  UNL1       -0.0008
     20 C          14.2063   83.7515   23.0036 C.ar    1  UNL1        0.0143
     21 C          13.6038   83.6536   24.2690 C.ar    1  UNL1        0.0502
     22 C          13.7147   84.7382   25.1564 C.ar    1  UNL1        0.0438
     23 C          14.4068   85.8962   24.7885 C.ar    1  UNL1        0.1374
     24 F          14.4905   86.9164   25.6798 F       1  UNL1       -0.2045
     25 C          17.1684   87.2716   23.7195 C.3     1  UNL1        0.0048
     26 C          15.7609   87.2504   23.1111 C.3     1  UNL1        0.0246
     27 C          15.8179   87.3902   21.5851 C.3     1  UNL1        0.0048
     28 C           6.6381   74.6077   28.8734 C.3     1  UNL1        0.1535
     29 C           5.5359   75.0988   29.7956 C.2     1  UNL1        0.2443
     30 O           4.5443   74.3568   30.0322 O.2     1  UNL1       -0.2730
     31 N           5.6499   76.3373   30.5150 N.am    1  UNL1       -0.2825
     32 H           5.1359   76.4212   31.4210 H       1  UNL1        0.1549
     33 C           6.5043   77.4216   30.1285 C.ar    1  UNL1        0.0535
     34 C           6.1060   78.3379   29.1446 C.ar    1  UNL1        0.0353
     35 C           6.9483   79.4029   28.8167 C.ar    1  UNL1        0.1002
     36 N           8.1345   79.5579   29.4630 N.ar    1  UNL1       -0.2422
     37 C           8.5323   78.6976   30.4380 C.ar    1  UNL1        0.1002
     38 C           7.7187   77.6199   30.7960 C.ar    1  UNL1        0.0353
     39 C           6.0835   73.6592   27.7927 C.3     1  UNL1        0.0569
     40 C           5.9944   74.3074   26.4385 C.ar    1  UNL1       -0.0017
     41 C           6.7940   74.0276   25.3337 C.ar    1  UNL1        0.0681
     42 N           6.4807   74.8463   24.3040 N.ar    1  UNL1       -0.3523
     43 C           5.4942   75.6433   24.7499 C.ar    1  UNL1        0.0563
     44 C           4.8492   76.6610   24.0484 C.ar    1  UNL1        0.0170
     45 C           3.8424   77.3832   24.7147 C.ar    1  UNL1        0.0015
     46 C           3.5063   77.0752   26.0517 C.ar    1  UNL1        0.0001
     47 C           4.1742   76.0430   26.7347 C.ar    1  UNL1        0.0012
     48 C           5.1699   75.3458   26.0492 C.ar    1  UNL1        0.0131
     49 H           6.9250   74.8601   23.3591 H       1  UNL1        0.1660
@<TRIPOS>BOND
     1    25    26    1
     2    26    27    1
     3    26    18    1
     4    18    19   ar
     5    19    20   ar
     6    20    21   ar
     7    21    12    1
     8    12    13    1
     9    13    14    1
    10    14    15    1
    11    15     5    1
    12     5     6   ar
    13     6     7   ar
    14     7     8   ar
    15     8     1    1
    16     1     2    2
    17     1     3   am
    18     3    28    1
    19    28    39    1
    20    39    40    1
    21    40    41   ar
    22    41    42   ar
    23    42    43   ar
    24    43    44   ar
    25    44    45   ar
    26    45    46   ar
    27    46    47   ar
    28    47    48   ar
    29    28    29    1
    30    29    30    2
    31    29    31   am
    32    31    33    1
    33    33    34   ar
    34    34    35   ar
    35    35    36   ar
    36    36    37   ar
    37    37    38   ar
    38     8     9   ar
    39     9    10    1
    40     9    11   ar
    41    15    16    1
    42    16    17    1
    43    21    22   ar
    44    22    23   ar
    45    23    24    1
    46    23    18   ar
    47    17    12    1
    48    11     5   ar
    49    48    40   ar
    50    38    33   ar
    51    48    43   ar
    52     3     4    1
    53    42    49    1
    54    31    32    1
@<TRIPOS>MOLECULE
*****
 49 54 0 0 0
SMALL
GASTEIGER

@<TRIPOS>ATOM
      1 C           8.7303   75.6973   27.7548 C.2     1  UNL1        0.2483
      2 O           9.2480   74.5513   27.6529 O.2     1  UNL1       -0.2701
      3 N           7.4505   75.8507   28.3899 N.am    1  UNL1       -0.2945
      4 H           6.9273   76.7394   28.2210 H       1  UNL1        0.1501
      5 C          10.8286   79.0735   26.0941 C.ar    1  UNL1        0.0502
      6 C          11.4838   78.1559   26.9336 C.ar    1  UNL1        0.0148
      7 C          10.7942   77.0673   27.4727 C.ar    1  UNL1        0.0080
      8 C           9.4362   76.8644   27.1790 C.ar    1  UNL1        0.0808
      9 C           8.7711   77.7914   26.3540 C.ar    1  UNL1        0.1457
     10 F           7.4430   77.6747   26.0998 F       1  UNL1       -0.2040
     11 C           9.4636   78.8814   25.8174 C.ar    1  UNL1        0.0443
     12 N          12.9289   82.5212   24.6245 N.pl3   1  UNL1       -0.3040
     13 C          11.4811   82.5834   24.8790 C.3     1  UNL1        0.1122
     14 C          10.8245   81.2067   24.7381 C.3     1  UNL1        0.1122
     15 N          11.5403   80.2021   25.5380 N.pl3   1  UNL1       -0.3040
     16 C          12.9996   80.2969   25.7000 C.3     1  UNL1        0.1122
     17 C          13.6236   81.2257   24.6538 C.3     1  UNL1        0.1122
     18 C          15.0548   86.0730   23.5511 C.ar    1  UNL1        0.0050
     19 C          14.9497   84.9976   22.6498 C.ar    1  UNL1       -0.0008
     20 C          14.2551   83.8379   23.0009 C.ar    1  UNL1        0.0143
     21 C          13.6451   83.7230   24.2613 C.ar    1  UNL1        0.0502
     22 C          13.7515   84.7953   25.1642 C.ar    1  UNL1        0.0438
     23 C          14.4468   85.9576   24.8164 C.ar    1  UNL1        0.1374
     24 F          14.5260   86.9654   25.7221 F       1  UNL1       -0.2045
     25 C          17.2219   87.3371   23.7684 C.3     1  UNL1        0.0048
     26 C          15.8117   87.3336   23.1657 C.3     1  UNL1        0.0246
     27 C          15.8629   87.5034   21.6426 C.3     1  UNL1        0.0048
     28 C           6.7366   74.7196   28.9978 C.3     1  UNL1        0.1535
     29 C           5.8970   75.1706   30.1802 C.2     1  UNL1        0.2443
     30 O           5.0122   74.4024   30.6458 O.2     1  UNL1       -0.2730
     31 N           6.1681   76.4001   30.8728 N.am    1  UNL1       -0.2825
     32 H           5.9005   76.4578   31.8814 H       1  UNL1        0.1549
     33 C           6.8757   77.5096   30.3045 C.ar    1  UNL1        0.0535
     34 C           6.2641   78.3481   29.3615 C.ar    1  UNL1        0.0353
     35 C           6.9707   79.4409   28.8537 C.ar    1  UNL1        0.1002
     36 N           8.2333   79.6978   29.2881 N.ar    1  UNL1       -0.2422
     37 C           8.8393   78.9147   30.2200 C.ar    1  UNL1        0.1002
     38 C           8.1667   77.8124   30.7532 C.ar    1  UNL1        0.0353
     39 C           5.8763   73.9971   27.9428 C.3     1  UNL1        0.0569
     40 C           5.5168   74.8805   26.7797 C.ar    1  UNL1       -0.0017
     41 C           4.6240   75.9485   26.7978 C.ar    1  UNL1        0.0681
     42 N           4.4924   76.4755   25.5594 N.ar    1  UNL1       -0.3523
     43 C           5.2902   75.7474   24.7591 C.ar    1  UNL1        0.0563
     44 C           5.4809   75.9060   23.3871 C.ar    1  UNL1        0.0170
     45 C           6.3615   75.0210   22.7388 C.ar    1  UNL1        0.0015
     46 C           7.0247   74.0092   23.4680 C.ar    1  UNL1        0.0001
     47 C           6.8129   73.8727   24.8517 C.ar    1  UNL1        0.0012
     48 C           5.9320   74.7631   25.4670 C.ar    1  UNL1        0.0131
     49 H           3.8849   77.2788   25.2834 H       1  UNL1        0.1660
@<TRIPOS>BOND
     1    25    26    1
     2    26    27    1
     3    26    18    1
     4    18    19   ar
     5    19    20   ar
     6    20    21   ar
     7    21    12    1
     8    12    13    1
     9    13    14    1
    10    14    15    1
    11    15     5    1
    12     5     6   ar
    13     6     7   ar
    14     7     8   ar
    15     8     1    1
    16     1     2    2
    17     1     3   am
    18     3    28    1
    19    28    39    1
    20    39    40    1
    21    40    41   ar
    22    41    42   ar
    23    42    43   ar
    24    43    44   ar
    25    44    45   ar
    26    45    46   ar
    27    46    47   ar
    28    47    48   ar
    29    28    29    1
    30    29    30    2
    31    29    31   am
    32    31    33    1
    33    33    34   ar
    34    34    35   ar
    35    35    36   ar
    36    36    37   ar
    37    37    38   ar
    38     8     9   ar
    39     9    10    1
    40     9    11   ar
    41    15    16    1
    42    16    17    1
    43    21    22   ar
    44    22    23   ar
    45    23    24    1
    46    23    18   ar
    47    17    12    1
    48    11     5   ar
    49    48    40   ar
    50    38    33   ar
    51    48    43   ar
    52     3     4    1
    53    42    49    1
    54    31    32    1
@<TRIPOS>MOLECULE
*****
 49 54 0 0 0
SMALL
GASTEIGER

@<TRIPOS>ATOM
      1 C          13.4069   83.5199   24.2273 C.2     1  UNL1        0.2483
      2 O          14.5097   83.2690   23.6681 O.2     1  UNL1       -0.2701
      3 N          12.9893   84.8830   24.4068 N.am    1  UNL1       -0.2945
      4 H          12.2299   85.0716   25.0995 H       1  UNL1        0.1501
      5 C          10.9515   80.2884   25.6722 C.ar    1  UNL1        0.0502
      6 C          10.3990   81.5526   25.4028 C.ar    1  UNL1        0.0148
      7 C          11.2036   82.5965   24.9404 C.ar    1  UNL1        0.0080
      8 C          12.5775   82.4002   24.7275 C.ar    1  UNL1        0.0808
      9 C          13.1388   81.1412   25.0140 C.ar    1  UNL1        0.1457
     10 F          14.4731   80.9257   24.8902 F       1  UNL1       -0.2040
     11 C          12.3311   80.0985   25.4788 C.ar    1  UNL1        0.0443
     12 N           8.3175   77.1771   27.0285 N.pl3   1  UNL1       -0.3040
     13 C           8.3475   78.4790   27.7134 C.3     1  UNL1        0.1122
     14 C           9.7100   79.1628   27.5645 C.3     1  UNL1        0.1122
     15 N          10.1206   79.2080   26.1536 N.pl3   1  UNL1       -0.3040
     16 C           9.7591   78.1058   25.2484 C.3     1  UNL1        0.1122
     17 C           9.3417   76.8529   26.0247 C.3     1  UNL1        0.1122
     18 C           5.4007   74.2562   28.1453 C.ar    1  UNL1        0.0050
     19 C           6.5177   73.8968   27.3688 C.ar    1  UNL1       -0.0008
     20 C           7.4701   74.8513   27.0044 C.ar    1  UNL1        0.0143
     21 C           7.3326   76.1898   27.4085 C.ar    1  UNL1        0.0502
     22 C           6.2157   76.5513   28.1820 C.ar    1  UNL1        0.0438
     23 C           5.2599   75.5985   28.5479 C.ar    1  UNL1        0.1374
     24 F           4.1964   75.9949   29.2924 F       1  UNL1       -0.2045
     25 C           4.8475   71.8000   28.1962 C.3     1  UNL1        0.0048
     26 C           4.3660   73.2149   28.5397 C.3     1  UNL1        0.0246
     27 C           4.0063   73.3289   30.0260 C.3     1  UNL1        0.0048
     28 C          13.7728   86.0165   23.8970 C.3     1  UNL1        0.1535
     29 C          12.8715   87.0873   23.3076 C.2     1  UNL1        0.2443
     30 O          12.2082   87.8358   24.0756 O.2     1  UNL1       -0.2730
     31 N          12.8494   87.3629   21.8976 N.am    1  UNL1       -0.2825
     32 H          12.5950   88.3307   21.5964 H       1  UNL1        0.1549
     33 C          13.2562   86.4331   20.8852 C.ar    1  UNL1        0.0535
     34 C          12.5851   86.3666   19.6558 C.ar    1  UNL1        0.0353
     35 C          13.0294   85.4732   18.6782 C.ar    1  UNL1        0.1002
     36 N          14.1164   84.6909   18.9132 N.ar    1  UNL1       -0.2422
     37 C          14.7994   84.7542   20.0872 C.ar    1  UNL1        0.1002
     38 C          14.3878   85.6349   21.0905 C.ar    1  UNL1        0.0353
     39 C          14.6731   86.5910   25.0081 C.3     1  UNL1        0.0569
     40 C          15.9270   87.2258   24.4723 C.ar    1  UNL1       -0.0017
     41 C          16.4349   87.0930   23.1829 C.ar    1  UNL1        0.0681
     42 N          17.6139   87.7455   23.0699 N.ar    1  UNL1       -0.3523
     43 C          17.8572   88.2850   24.2769 C.ar    1  UNL1        0.0563
     44 C          18.9643   89.0435   24.6548 C.ar    1  UNL1        0.0170
     45 C          19.0228   89.5058   25.9822 C.ar    1  UNL1        0.0015
     46 C          17.9850   89.2036   26.8916 C.ar    1  UNL1        0.0001
     47 C          16.8799   88.4360   26.4824 C.ar    1  UNL1        0.0012
     48 C          16.8505   87.9891   25.1607 C.ar    1  UNL1        0.0131
     49 H          18.2152   87.8065   22.2184 H       1  UNL1        0.1660
@<TRIPOS>BOND
     1    25    26    1
     2    26    27    1
     3    26    18    1
     4    18    19   ar
     5    19    20   ar
     6    20    21   ar
     7    21    12    1
     8    12    13    1
     9    13    14    1
    10    14    15    1
    11    15     5    1
    12     5     6   ar
    13     6     7   ar
    14     7     8   ar
    15     8     1    1
    16     1     2    2
    17     1     3   am
    18     3    28    1
    19    28    39    1
    20    39    40    1
    21    40    41   ar
    22    41    42   ar
    23    42    43   ar
    24    43    44   ar
    25    44    45   ar
    26    45    46   ar
    27    46    47   ar
    28    47    48   ar
    29    28    29    1
    30    29    30    2
    31    29    31   am
    32    31    33    1
    33    33    34   ar
    34    34    35   ar
    35    35    36   ar
    36    36    37   ar
    37    37    38   ar
    38     8     9   ar
    39     9    10    1
    40     9    11   ar
    41    15    16    1
    42    16    17    1
    43    21    22   ar
    44    22    23   ar
    45    23    24    1
    46    23    18   ar
    47    17    12    1
    48    11     5   ar
    49    48    40   ar
    50    38    33   ar
    51    48    43   ar
    52     3     4    1
    53    42    49    1
    54    31    32    1
@<TRIPOS>MOLECULE
*****
 49 54 0 0 0
SMALL
GASTEIGER

@<TRIPOS>ATOM
      1 C           9.3379   75.6432   27.7531 C.2     1  UNL1        0.2483
      2 O          10.0524   74.6478   28.0540 O.2     1  UNL1       -0.2701
      3 N           7.9140   75.5835   27.9364 N.am    1  UNL1       -0.2945
      4 H           7.3294   76.2908   27.4362 H       1  UNL1        0.1501
      5 C          11.2459   79.1182   26.0669 C.ar    1  UNL1        0.0502
      6 C          11.9974   77.9925   26.4463 C.ar    1  UNL1        0.0148
      7 C          11.3714   76.8723   26.9980 C.ar    1  UNL1        0.0080
      8 C           9.9787   76.8464   27.1755 C.ar    1  UNL1        0.0808
      9 C           9.2241   77.9788   26.8145 C.ar    1  UNL1        0.1457
     10 F           7.8853   78.0258   27.0327 F       1  UNL1       -0.2040
     11 C           9.8540   79.0996   26.2644 C.ar    1  UNL1        0.0443
     12 N          13.1638   82.6567   24.5645 N.pl3   1  UNL1       -0.3040
     13 C          11.7347   82.6753   24.9141 C.3     1  UNL1        0.1122
     14 C          11.1028   81.2868   24.7763 C.3     1  UNL1        0.1122
     15 N          11.8928   80.2792   25.4987 N.pl3   1  UNL1       -0.3040
     16 C          13.3570   80.4063   25.5683 C.3     1  UNL1        0.1122
     17 C          13.8892   81.3790   24.5112 C.3     1  UNL1        0.1122
     18 C          15.1310   86.2894   23.4595 C.ar    1  UNL1        0.0050
     19 C          15.0863   85.1974   22.5733 C.ar    1  UNL1       -0.0008
     20 C          14.4436   84.0112   22.9348 C.ar    1  UNL1        0.0143
     21 C          13.8263   83.8858   24.1906 C.ar    1  UNL1        0.0502
     22 C          13.8724   84.9749   25.0784 C.ar    1  UNL1        0.0438
     23 C          14.5156   86.1636   24.7202 C.ar    1  UNL1        0.1374
     24 F          14.5375   87.1870   25.6115 F       1  UNL1       -0.2045
     25 C          17.2344   87.6567   23.6774 C.3     1  UNL1        0.0048
     26 C          15.8316   87.5787   23.0629 C.3     1  UNL1        0.0246
     27 C          15.8887   87.7300   21.5380 C.3     1  UNL1        0.0048
     28 C           7.2487   74.4177   28.5339 C.3     1  UNL1        0.1535
     29 C           7.4234   74.3980   30.0423 C.2     1  UNL1        0.2443
     30 O           8.0994   73.4792   30.5797 O.2     1  UNL1       -0.2730
     31 N           6.9496   75.4720   30.8709 N.am    1  UNL1       -0.2825
     32 H           7.4493   75.6463   31.7721 H       1  UNL1        0.1549
     33 C           5.9101   76.3851   30.4957 C.ar    1  UNL1        0.0535
     34 C           6.2108   77.5970   29.8575 C.ar    1  UNL1        0.0353
     35 C           5.1712   78.4477   29.4743 C.ar    1  UNL1        0.1002
     36 N           3.8791   78.0906   29.7017 N.ar    1  UNL1       -0.2422
     37 C           3.5603   76.9099   30.2962 C.ar    1  UNL1        0.1002
     38 C           4.5704   76.0307   30.6940 C.ar    1  UNL1        0.0353
     39 C           5.7585   74.3897   28.1419 C.3     1  UNL1        0.0569
     40 C           5.4751   75.1473   26.8738 C.ar    1  UNL1       -0.0017
     41 C           4.6934   76.2929   26.7524 C.ar    1  UNL1        0.0681
     42 N           4.6003   76.6663   25.4560 N.ar    1  UNL1       -0.3523
     43 C           5.3120   75.7647   24.7577 C.ar    1  UNL1        0.0563
     44 C           5.5013   75.7250   23.3769 C.ar    1  UNL1        0.0170
     45 C           6.2815   74.6799   22.8497 C.ar    1  UNL1        0.0015
     46 C           6.8492   73.7092   23.7046 C.ar    1  UNL1        0.0001
     47 C           6.6412   73.7742   25.0940 C.ar    1  UNL1        0.0012
     48 C           5.8609   74.8204   25.5878 C.ar    1  UNL1        0.0131
     49 H           4.0727   77.4841   25.0776 H       1  UNL1        0.1660
@<TRIPOS>BOND
     1    25    26    1
     2    26    27    1
     3    26    18    1
     4    18    19   ar
     5    19    20   ar
     6    20    21   ar
     7    21    12    1
     8    12    13    1
     9    13    14    1
    10    14    15    1
    11    15     5    1
    12     5     6   ar
    13     6     7   ar
    14     7     8   ar
    15     8     1    1
    16     1     2    2
    17     1     3   am
    18     3    28    1
    19    28    39    1
    20    39    40    1
    21    40    41   ar
    22    41    42   ar
    23    42    43   ar
    24    43    44   ar
    25    44    45   ar
    26    45    46   ar
    27    46    47   ar
    28    47    48   ar
    29    28    29    1
    30    29    30    2
    31    29    31   am
    32    31    33    1
    33    33    34   ar
    34    34    35   ar
    35    35    36   ar
    36    36    37   ar
    37    37    38   ar
    38     8     9   ar
    39     9    10    1
    40     9    11   ar
    41    15    16    1
    42    16    17    1
    43    21    22   ar
    44    22    23   ar
    45    23    24    1
    46    23    18   ar
    47    17    12    1
    48    11     5   ar
    49    48    40   ar
    50    38    33   ar
    51    48    43   ar
    52     3     4    1
    53    42    49    1
    54    31    32    1
@<TRIPOS>MOLECULE
*****
 49 54 0 0 0
SMALL
GASTEIGER

@<TRIPOS>ATOM
      1 C           8.5552   75.6420   25.4252 C.2     1  UNL1        0.2483
      2 O           8.7366   74.7460   24.5556 O.2     1  UNL1       -0.2701
      3 N           7.5738   75.4497   26.4570 N.am    1  UNL1       -0.2945
      4 H           7.2517   76.2923   26.9846 H       1  UNL1        0.1501
      5 C          10.8560   79.2748   25.1633 C.ar    1  UNL1        0.0502
      6 C          11.4541   78.0219   24.9431 C.ar    1  UNL1        0.0148
      7 C          10.7020   76.8485   25.0360 C.ar    1  UNL1        0.0080
      8 C           9.3327   76.8992   25.3424 C.ar    1  UNL1        0.0808
      9 C           8.7335   78.1505   25.5824 C.ar    1  UNL1        0.1457
     10 F           7.4303   78.2430   25.9500 F       1  UNL1       -0.2040
     11 C           9.4895   79.3233   25.4907 C.ar    1  UNL1        0.0443
     12 N          13.1589   82.8695   24.6818 N.pl3   1  UNL1       -0.3040
     13 C          13.7592   81.5566   24.3976 C.3     1  UNL1        0.1122
     14 C          13.0960   80.4447   25.2163 C.3     1  UNL1        0.1122
     15 N          11.6338   80.4896   25.0704 N.pl3   1  UNL1       -0.3040
     16 C          10.9509   81.7839   24.9173 C.3     1  UNL1        0.1122
     17 C          11.8490   82.9489   25.3448 C.3     1  UNL1        0.1122
     18 C          15.3421   86.4408   23.8060 C.ar    1  UNL1        0.0050
     19 C          14.7373   86.2575   25.0632 C.ar    1  UNL1       -0.0008
     20 C          14.0245   85.0909   25.3486 C.ar    1  UNL1        0.0143
     21 C          13.8992   84.0752   24.3860 C.ar    1  UNL1        0.0502
     22 C          14.5003   84.2578   23.1284 C.ar    1  UNL1        0.0438
     23 C          15.2141   85.4248   22.8388 C.ar    1  UNL1        0.1374
     24 F          15.7744   85.5581   21.6097 F       1  UNL1       -0.2045
     25 C          15.4666   88.9300   24.1656 C.3     1  UNL1        0.0048
     26 C          16.1169   87.7118   23.4987 C.3     1  UNL1        0.0246
     27 C          17.5873   87.5764   23.9126 C.3     1  UNL1        0.0048
     28 C           6.8063   74.2036   26.5864 C.3     1  UNL1        0.1535
     29 C           6.5324   73.8752   28.0436 C.2     1  UNL1        0.2443
     30 O           5.5330   73.1685   28.3462 O.2     1  UNL1       -0.2730
     31 N           7.4541   74.2371   29.0848 N.am    1  UNL1       -0.2825
     32 H           7.4719   73.6436   29.9448 H       1  UNL1        0.1549
     33 C           8.4224   75.2888   28.9784 C.ar    1  UNL1        0.0535
     34 C           8.0800   76.6165   29.2725 C.ar    1  UNL1        0.0353
     35 C           9.0571   77.6116   29.1920 C.ar    1  UNL1        0.1002
     36 N          10.3329   77.2883   28.8509 N.ar    1  UNL1       -0.2422
     37 C          10.6960   76.0051   28.5853 C.ar    1  UNL1        0.1002
     38 C           9.7491   74.9804   28.6552 C.ar    1  UNL1        0.0353
     39 C           5.4982   74.2913   25.7762 C.3     1  UNL1        0.0569
     40 C           4.7521   75.5759   26.0114 C.ar    1  UNL1       -0.0017
     41 C           4.5762   76.2179   27.2342 C.ar    1  UNL1        0.0681
     42 N           3.7963   77.3126   27.0853 N.ar    1  UNL1       -0.3523
     43 C           3.4745   77.3650   25.7812 C.ar    1  UNL1        0.0563
     44 C           2.6739   78.3139   25.1468 C.ar    1  UNL1        0.0170
     45 C           2.4576   78.1734   23.7639 C.ar    1  UNL1        0.0015
     46 C           3.0404   77.1002   23.0539 C.ar    1  UNL1        0.0001
     47 C           3.8437   76.1576   23.7202 C.ar    1  UNL1        0.0012
     48 C           4.0383   76.3211   25.0924 C.ar    1  UNL1        0.0131
     49 H           3.4984   77.9744   27.8361 H       1  UNL1        0.1660
@<TRIPOS>BOND
     1    25    26    1
     2    26    27    1
     3    26    18    1
     4    18    19   ar
     5    19    20   ar
     6    20    21   ar
     7    21    12    1
     8    12    13    1
     9    13    14    1
    10    14    15    1
    11    15     5    1
    12     5     6   ar
    13     6     7   ar
    14     7     8   ar
    15     8     1    1
    16     1     2    2
    17     1     3   am
    18     3    28    1
    19    28    39    1
    20    39    40    1
    21    40    41   ar
    22    41    42   ar
    23    42    43   ar
    24    43    44   ar
    25    44    45   ar
    26    45    46   ar
    27    46    47   ar
    28    47    48   ar
    29    28    29    1
    30    29    30    2
    31    29    31   am
    32    31    33    1
    33    33    34   ar
    34    34    35   ar
    35    35    36   ar
    36    36    37   ar
    37    37    38   ar
    38     8     9   ar
    39     9    10    1
    40     9    11   ar
    41    15    16    1
    42    16    17    1
    43    21    22   ar
    44    22    23   ar
    45    23    24    1
    46    23    18   ar
    47    17    12    1
    48    11     5   ar
    49    48    40   ar
    50    38    33   ar
    51    48    43   ar
    52     3     4    1
    53    42    49    1
    54    31    32    1
@<TRIPOS>MOLECULE
*****
 49 54 0 0 0
SMALL
GASTEIGER

@<TRIPOS>ATOM
      1 C          11.3766   75.9067   23.7623 C.2     1  UNL1        0.2483
      2 O          12.3493   75.1891   23.4008 O.2     1  UNL1       -0.2701
      3 N          11.5505   76.8715   24.8129 N.am    1  UNL1       -0.2945
      4 H          10.6917   77.2476   25.2746 H       1  UNL1        0.1501
      5 C           7.5177   75.3171   21.9400 C.ar    1  UNL1        0.0502
      6 C           7.8690   74.6458   23.1241 C.ar    1  UNL1        0.0148
      7 C           9.1247   74.8382   23.7049 C.ar    1  UNL1        0.0080
      8 C          10.0561   75.7123   23.1218 C.ar    1  UNL1        0.0808
      9 C           9.7157   76.3723   21.9255 C.ar    1  UNL1        0.1457
     10 F          10.6090   77.1717   21.2891 F       1  UNL1       -0.2040
     11 C           8.4586   76.1761   21.3453 C.ar    1  UNL1        0.0443
     12 N           3.5818   74.6940   20.3345 N.pl3   1  UNL1       -0.3040
     13 C           4.3511   73.5647   20.8804 C.3     1  UNL1        0.1122
     14 C           5.8598   73.8068   20.7740 C.3     1  UNL1        0.1122
     15 N           6.2197   75.1166   21.3363 N.pl3   1  UNL1       -0.3040
     16 C           5.2919   76.2511   21.2065 C.3     1  UNL1        0.1122
     17 C           4.2355   75.9945   20.1272 C.3     1  UNL1        0.1122
     18 C          -0.4783   74.1100   19.1254 C.ar    1  UNL1        0.0050
     19 C           0.1743   75.3337   18.8870 C.ar    1  UNL1       -0.0008
     20 C           1.5004   75.5237   19.2821 C.ar    1  UNL1        0.0143
     21 C           2.2104   74.4950   19.9237 C.ar    1  UNL1        0.0502
     22 C           1.5591   73.2728   20.1653 C.ar    1  UNL1        0.0438
     23 C           0.2313   73.0792   19.7719 C.ar    1  UNL1        0.1374
     24 F          -0.3571   71.8835   20.0293 F       1  UNL1       -0.2045
     25 C          -2.8072   75.0671   19.1647 C.3     1  UNL1        0.0048
     26 C          -1.9216   73.9068   18.6944 C.3     1  UNL1        0.0246
     27 C          -2.0232   73.7162   17.1762 C.3     1  UNL1        0.0048
     28 C          12.8528   77.1111   25.4494 C.3     1  UNL1        0.1535
     29 C          13.7588   77.9379   24.5540 C.2     1  UNL1        0.2443
     30 O          14.9354   77.5464   24.3255 O.2     1  UNL1       -0.2730
     31 N          13.2735   79.0922   23.8491 N.am    1  UNL1       -0.2825
     32 H          13.7476   79.3485   22.9537 H       1  UNL1        0.1549
     33 C          12.1187   79.8489   24.2344 C.ar    1  UNL1        0.0535
     34 C          12.2314   80.9453   25.1013 C.ar    1  UNL1        0.0353
     35 C          11.0907   81.6820   25.4288 C.ar    1  UNL1        0.1002
     36 N           9.8864   81.3481   24.8930 N.ar    1  UNL1       -0.2422
     37 C           9.7549   80.3050   24.0306 C.ar    1  UNL1        0.1002
     38 C          10.8713   79.5433   23.6772 C.ar    1  UNL1        0.0353
     39 C          12.6640   77.7789   26.8255 C.3     1  UNL1        0.0569
     40 C          11.2447   77.7070   27.3182 C.ar    1  UNL1       -0.0017
     41 C          10.3112   78.7398   27.3037 C.ar    1  UNL1        0.0681
     42 N           9.1575   78.3422   27.8864 N.ar    1  UNL1       -0.3523
     43 C           9.3554   77.0699   28.2726 C.ar    1  UNL1        0.0563
     44 C           8.4514   76.2372   28.9309 C.ar    1  UNL1        0.0170
     45 C           8.8716   74.9336   29.2520 C.ar    1  UNL1        0.0015
     46 C          10.1709   74.4963   28.9115 C.ar    1  UNL1        0.0001
     47 C          11.0619   75.3584   28.2476 C.ar    1  UNL1        0.0012
     48 C          10.6183   76.6463   27.9443 C.ar    1  UNL1        0.0131
     49 H           8.2939   78.9145   28.0171 H       1  UNL1        0.1660
@<TRIPOS>BOND
     1    25    26    1
     2    26    27    1
     3    26    18    1
     4    18    19   ar
     5    19    20   ar
     6    20    21   ar
     7    21    12    1
     8    12    13    1
     9    13    14    1
    10    14    15    1
    11    15     5    1
    12     5     6   ar
    13     6     7   ar
    14     7     8   ar
    15     8     1    1
    16     1     2    2
    17     1     3   am
    18     3    28    1
    19    28    39    1
    20    39    40    1
    21    40    41   ar
    22    41    42   ar
    23    42    43   ar
    24    43    44   ar
    25    44    45   ar
    26    45    46   ar
    27    46    47   ar
    28    47    48   ar
    29    28    29    1
    30    29    30    2
    31    29    31   am
    32    31    33    1
    33    33    34   ar
    34    34    35   ar
    35    35    36   ar
    36    36    37   ar
    37    37    38   ar
    38     8     9   ar
    39     9    10    1
    40     9    11   ar
    41    15    16    1
    42    16    17    1
    43    21    22   ar
    44    22    23   ar
    45    23    24    1
    46    23    18   ar
    47    17    12    1
    48    11     5   ar
    49    48    40   ar
    50    38    33   ar
    51    48    43   ar
    52     3     4    1
    53    42    49    1
    54    31    32    1
@<TRIPOS>MOLECULE
*****
 49 54 0 0 0
SMALL
GASTEIGER

@<TRIPOS>ATOM
      1 C          14.3904   86.2310   25.9856 C.2     1  UNL1        0.2483
      2 O          14.7760   86.5657   27.1394 O.2     1  UNL1       -0.2701
      3 N          14.3217   87.2148   24.9406 N.am    1  UNL1       -0.2945
      4 H          13.7525   86.9863   24.0944 H       1  UNL1        0.1501
      5 C          13.1820   82.1679   25.2172 C.ar    1  UNL1        0.0502
      6 C          13.1710   83.1320   24.1942 C.ar    1  UNL1        0.0148
      7 C          13.5586   84.4486   24.4536 C.ar    1  UNL1        0.0080
      8 C          13.9749   84.8316   25.7387 C.ar    1  UNL1        0.0808
      9 C          13.9695   83.8740   26.7709 C.ar    1  UNL1        0.1457
     10 F          14.2966   84.2151   28.0431 F       1  UNL1       -0.2040
     11 C          13.5789   82.5571   26.5086 C.ar    1  UNL1        0.0443
     12 N          11.9942   78.1604   24.2239 N.pl3   1  UNL1       -0.3040
     13 C          11.0627   79.2830   24.0310 C.3     1  UNL1        0.1122
     14 C          11.3572   80.4324   24.9997 C.3     1  UNL1        0.1122
     15 N          12.7783   80.8057   24.9508 N.pl3   1  UNL1       -0.3040
     16 C          13.8007   79.7737   24.7173 C.3     1  UNL1        0.1122
     17 C          13.2476   78.3666   24.9642 C.3     1  UNL1        0.1122
     18 C          10.9285   74.2521   22.8540 C.ar    1  UNL1        0.0050
     19 C          10.7725   74.6076   24.2065 C.ar    1  UNL1       -0.0008
     20 C          11.1206   75.8842   24.6532 C.ar    1  UNL1        0.0143
     21 C          11.6317   76.8404   23.7597 C.ar    1  UNL1        0.0502
     22 C          11.7910   76.4862   22.4086 C.ar    1  UNL1        0.0438
     23 C          11.4442   75.2087   21.9579 C.ar    1  UNL1        0.1374
     24 F          11.6188   74.9110   20.6452 F       1  UNL1       -0.2045
     25 C          11.1958   71.7786   23.2431 C.3     1  UNL1        0.0048
     26 C          10.5489   72.8617   22.3713 C.3     1  UNL1        0.0246
     27 C           9.0258   72.6913   22.3203 C.3     1  UNL1        0.0048
     28 C          14.7539   88.6044   25.1425 C.3     1  UNL1        0.1535
     29 C          15.9774   88.6750   26.0395 C.2     1  UNL1        0.2443
     30 O          17.1103   88.3767   25.5731 O.2     1  UNL1       -0.2730
     31 N          15.9045   89.1993   27.3753 N.am    1  UNL1       -0.2825
     32 H          16.7672   89.6346   27.7733 H       1  UNL1        0.1549
     33 C          14.7033   89.2621   28.1552 C.ar    1  UNL1        0.0535
     34 C          13.4599   89.4869   27.5472 C.ar    1  UNL1        0.0353
     35 C          12.3050   89.5076   28.3328 C.ar    1  UNL1        0.1002
     36 N          12.3879   89.2907   29.6725 N.ar    1  UNL1       -0.2422
     37 C          13.5784   89.0458   30.2823 C.ar    1  UNL1        0.1002
     38 C          14.7566   89.0161   29.5322 C.ar    1  UNL1        0.0353
     39 C          15.0128   89.2894   23.7865 C.3     1  UNL1        0.0569
     40 C          15.0785   88.3136   22.6438 C.ar    1  UNL1       -0.0017
     41 C          16.2297   87.7362   22.1148 C.ar    1  UNL1        0.0681
     42 N          15.9229   86.9598   21.0510 N.ar    1  UNL1       -0.3523
     43 C          14.5898   87.0452   20.9008 C.ar    1  UNL1        0.0563
     44 C          13.8086   86.4244   19.9269 C.ar    1  UNL1        0.0170
     45 C          12.4218   86.6595   19.9478 C.ar    1  UNL1        0.0015
     46 C          11.8531   87.4997   20.9307 C.ar    1  UNL1        0.0001
     47 C          12.6659   88.1130   21.9009 C.ar    1  UNL1        0.0012
     48 C          14.0381   87.8635   21.8536 C.ar    1  UNL1        0.0131
     49 H          16.5909   86.4144   20.4621 H       1  UNL1        0.1660
@<TRIPOS>BOND
     1    25    26    1
     2    26    27    1
     3    26    18    1
     4    18    19   ar
     5    19    20   ar
     6    20    21   ar
     7    21    12    1
     8    12    13    1
     9    13    14    1
    10    14    15    1
    11    15     5    1
    12     5     6   ar
    13     6     7   ar
    14     7     8   ar
    15     8     1    1
    16     1     2    2
    17     1     3   am
    18     3    28    1
    19    28    39    1
    20    39    40    1
    21    40    41   ar
    22    41    42   ar
    23    42    43   ar
    24    43    44   ar
    25    44    45   ar
    26    45    46   ar
    27    46    47   ar
    28    47    48   ar
    29    28    29    1
    30    29    30    2
    31    29    31   am
    32    31    33    1
    33    33    34   ar
    34    34    35   ar
    35    35    36   ar
    36    36    37   ar
    37    37    38   ar
    38     8     9   ar
    39     9    10    1
    40     9    11   ar
    41    15    16    1
    42    16    17    1
    43    21    22   ar
    44    22    23   ar
    45    23    24    1
    46    23    18   ar
    47    17    12    1
    48    11     5   ar
    49    48    40   ar
    50    38    33   ar
    51    48    43   ar
    52     3     4    1
    53    42    49    1
    54    31    32    1
@<TRIPOS>MOLECULE
*****
 49 54 0 0 0
SMALL
GASTEIGER

@<TRIPOS>ATOM
      1 C           9.0785   75.8694   26.4785 C.2     1  UNL1        0.2483
      2 O           9.4087   74.8112   25.8762 O.2     1  UNL1       -0.2701
      3 N           7.9911   75.8487   27.4177 N.am    1  UNL1       -0.2945
      4 H           7.5651   76.7638   27.6885 H       1  UNL1        0.1501
      5 C          11.2053   79.5080   25.5861 C.ar    1  UNL1        0.0502
      6 C          11.8910   78.2936   25.7621 C.ar    1  UNL1        0.0148
      7 C          11.1940   77.1196   26.0573 C.ar    1  UNL1        0.0080
      8 C           9.7948   77.1290   26.1750 C.ar    1  UNL1        0.0808
      9 C           9.1055   78.3466   26.0183 C.ar    1  UNL1        0.1457
     10 F           7.7613   78.4168   26.1921 F       1  UNL1       -0.2040
     11 C           9.8063   79.5207   25.7248 C.ar    1  UNL1        0.0443
     12 N          13.3537   83.0632   24.4896 N.pl3   1  UNL1       -0.3040
     13 C          14.0393   81.7620   24.5328 C.3     1  UNL1        0.1122
     14 C          13.3730   80.8068   25.5278 C.3     1  UNL1        0.1122
     15 N          11.9256   80.7242   25.2836 N.pl3   1  UNL1       -0.3040
     16 C          11.1918   81.9095   24.8131 C.3     1  UNL1        0.1122
     17 C          11.9951   83.1947   25.0360 C.3     1  UNL1        0.1122
     18 C          15.4140   86.5052   23.0080 C.ar    1  UNL1        0.0050
     19 C          14.9493   86.4611   24.3355 C.ar    1  UNL1       -0.0008
     20 C          14.2766   85.3366   24.8187 C.ar    1  UNL1        0.0143
     21 C          14.0525   84.2252   23.9890 C.ar    1  UNL1        0.0502
     22 C          14.5135   84.2686   22.6616 C.ar    1  UNL1        0.0438
     23 C          15.1868   85.3930   22.1741 C.ar    1  UNL1        0.1374
     24 F          15.6105   85.3908   20.8846 F       1  UNL1       -0.2045
     25 C          15.1961   88.9282   22.3577 C.3     1  UNL1        0.0048
     26 C          16.1456   87.7307   22.4853 C.3     1  UNL1        0.0246
     27 C          17.3501   88.0743   23.3699 C.3     1  UNL1        0.0048
     28 C           7.2783   74.6117   27.7645 C.3     1  UNL1        0.1535
     29 C           7.5340   74.2160   29.2083 C.2     1  UNL1        0.2443
     30 O           8.2719   73.2254   29.4619 O.2     1  UNL1       -0.2730
     31 N           7.0650   75.0175   30.3048 N.am    1  UNL1       -0.2825
     32 H           7.6053   74.9805   31.1986 H       1  UNL1        0.1549
     33 C           5.9734   75.9428   30.2214 C.ar    1  UNL1        0.0535
     34 C           4.6614   75.5376   30.5058 C.ar    1  UNL1        0.0353
     35 C           3.6259   76.4734   30.4486 C.ar    1  UNL1        0.1002
     36 N           3.8950   77.7699   30.1395 N.ar    1  UNL1       -0.2422
     37 C           5.1617   78.1932   29.8841 C.ar    1  UNL1        0.1002
     38 C           6.2255   77.2889   29.9314 C.ar    1  UNL1        0.0353
     39 C           5.7706   74.7631   27.4835 C.3     1  UNL1        0.0569
     40 C           5.4811   75.1893   26.0705 C.ar    1  UNL1       -0.0017
     41 C           6.1601   74.7771   24.9271 C.ar    1  UNL1        0.0681
     42 N           5.6763   75.4121   23.8355 N.ar    1  UNL1       -0.3523
     43 C           4.7016   76.2243   24.2797 C.ar    1  UNL1        0.0563
     44 C           3.9154   77.0919   23.5226 C.ar    1  UNL1        0.0170
     45 C           2.9514   77.8636   24.1965 C.ar    1  UNL1        0.0015
     46 C           2.7961   77.7518   25.5961 C.ar    1  UNL1        0.0001
     47 C           3.6037   76.8681   26.3344 C.ar    1  UNL1        0.0012
     48 C           4.5529   76.1177   25.6392 C.ar    1  UNL1        0.0131
     49 H           6.0037   75.2989   22.8504 H       1  UNL1        0.1660
@<TRIPOS>BOND
     1    25    26    1
     2    26    27    1
     3    26    18    1
     4    18    19   ar
     5    19    20   ar
     6    20    21   ar
     7    21    12    1
     8    12    13    1
     9    13    14    1
    10    14    15    1
    11    15     5    1
    12     5     6   ar
    13     6     7   ar
    14     7     8   ar
    15     8     1    1
    16     1     2    2
    17     1     3   am
    18     3    28    1
    19    28    39    1
    20    39    40    1
    21    40    41   ar
    22    41    42   ar
    23    42    43   ar
    24    43    44   ar
    25    44    45   ar
    26    45    46   ar
    27    46    47   ar
    28    47    48   ar
    29    28    29    1
    30    29    30    2
    31    29    31   am
    32    31    33    1
    33    33    34   ar
    34    34    35   ar
    35    35    36   ar
    36    36    37   ar
    37    37    38   ar
    38     8     9   ar
    39     9    10    1
    40     9    11   ar
    41    15    16    1
    42    16    17    1
    43    21    22   ar
    44    22    23   ar
    45    23    24    1
    46    23    18   ar
    47    17    12    1
    48    11     5   ar
    49    48    40   ar
    50    38    33   ar
    51    48    43   ar
    52     3     4    1
    53    42    49    1
    54    31    32    1
