@<TRIPOS>MOLECULE
*****
 43 47 0 0 0
SMALL
GASTEIGER

@<TRIPOS>ATOM
      1 C          -6.3398  -15.6240   25.2321 C.ar    1  UNL1        0.0611
      2 C          -6.6144  -16.1458   23.9232 C.ar    1  UNL1        0.0915
      3 C          -7.9675  -16.2796   23.5262 C.ar    1  UNL1        0.1402
      4 C          -9.0102  -15.9317   24.3421 C.ar    1  UNL1        0.0325
      5 C          -8.7383  -15.4386   25.6064 C.ar    1  UNL1        0.0756
      6 N          -9.5910  -15.0265   26.5506 N.ar    1  UNL1       -0.3255
      7 C          -8.7732  -14.6146   27.5519 C.ar    1  UNL1        0.1984
      8 N          -7.4498  -14.7602   27.2800 N.ar    1  UNL1       -0.2136
      9 C          -7.4506  -15.2884   26.0404 C.ar    1  UNL1        0.1024
     10 C         -10.3112  -16.1859   23.6738 C.3     1  UNL1        0.0709
     11 C          -9.8647  -16.7627   22.2889 C.3     1  UNL1        0.1375
     12 C         -10.3265  -15.8627   21.1352 C.3     1  UNL1        0.0439
     13 C         -10.3773  -18.1950   22.0894 C.3     1  UNL1        0.0439
     14 O          -8.4343  -16.7776   22.3267 O.3     1  UNL1       -0.4824
     15 H         -10.6346  -15.0277   26.5165 H       1  UNL1        0.1686
     16 C          -5.5475  -16.6055   23.0061 C.2     1  UNL1        0.2526
     17 O          -5.2030  -15.8798   22.0338 O.2     1  UNL1       -0.2697
     18 N          -4.9120  -17.8763   23.2173 N.am    1  UNL1       -0.2806
     19 H          -5.4070  -18.5749   23.8159 H       1  UNL1        0.1552
     20 C          -3.6778  -18.2605   22.5840 C.ar    1  UNL1        0.0465
     21 C          -2.4666  -17.6728   22.9856 C.ar    1  UNL1        0.0143
     22 C          -1.2585  -18.0646   22.4075 C.ar    1  UNL1        0.0051
     23 C          -1.2292  -19.0765   21.4365 C.ar    1  UNL1        0.0712
     24 C          -2.4382  -19.6578   21.0204 C.ar    1  UNL1        0.0008
     25 C          -3.6619  -19.2630   21.5881 C.ar    1  UNL1       -0.0084
     26 C          -4.9358  -19.9202   21.1290 C.3     1  UNL1        0.0323
     27 C           0.0712  -19.4706   20.7811 C.3     1  UNL1        0.4186
     28 F           1.1505  -18.9815   21.4967 F       1  UNL1       -0.1659
     29 F           0.1859  -20.8485   20.7154 F       1  UNL1       -0.1659
     30 F           0.1095  -18.9537   19.4996 F       1  UNL1       -0.1659
     31 C          -4.0863  -16.4836   26.2040 C.3     1  UNL1        0.0773
     32 C          -4.9585  -15.3710   25.7106 C.2     1  UNL1        0.1752
     33 O          -4.5185  -14.1907   25.7528 O.2     1  UNL1       -0.2913
     34 N          -9.2458  -14.0933   28.8002 N.pl3   1  UNL1       -0.2816
     35 H         -10.0576  -14.5686   29.2546 H       1  UNL1        0.1551
     36 C          -8.7973  -12.8424   29.3389 C.ar    1  UNL1        0.0889
     37 C          -7.4412  -12.4947   29.2319 C.ar    1  UNL1        0.1543
     38 F          -6.5623  -13.3442   28.6432 F       1  UNL1       -0.2028
     39 C          -6.9822  -11.2798   29.7493 C.ar    1  UNL1        0.0310
     40 C          -7.8743  -10.3979   30.3628 C.ar    1  UNL1        0.0033
     41 C          -9.2299  -10.7230   30.4512 C.ar    1  UNL1        0.0128
     42 C          -9.7000  -11.9372   29.9363 C.ar    1  UNL1        0.0733
     43 CL        -11.4280  -12.2645   29.9958 Cl      1  UNL1       -0.0809
@<TRIPOS>BOND
     1    31    32    1
     2    32    33    2
     3    32     1    1
     4     1     2   ar
     5     2    16    1
     6    16    17    2
     7    16    18   am
     8    18    20    1
     9    20    21   ar
    10    21    22   ar
    11    22    23   ar
    12    23    27    1
    13    27    28    1
    14    27    29    1
    15    27    30    1
    16    23    24   ar
    17    24    25   ar
    18    25    26    1
    19     2     3   ar
    20     3     4   ar
    21     4     5   ar
    22     5     6   ar
    23     6     7   ar
    24     7    34    1
    25    34    36    1
    26    36    37   ar
    27    37    38    1
    28    37    39   ar
    29    39    40   ar
    30    40    41   ar
    31    41    42   ar
    32    42    43    1
    33     7     8   ar
    34     8     9   ar
    35     4    10    1
    36    10    11    1
    37    11    12    1
    38    11    13    1
    39    11    14    1
    40     9     1   ar
    41    25    20   ar
    42    14     3    1
    43     9     5   ar
    44    42    36   ar
    45    18    19    1
    46     6    15    1
    47    34    35    1
@<TRIPOS>MOLECULE
*****
 43 47 0 0 0
SMALL
GASTEIGER

@<TRIPOS>ATOM
      1 C          -8.1331  -14.0787   28.0733 C.ar    1  UNL1        0.0611
      2 C          -6.8437  -13.5115   27.7963 C.ar    1  UNL1        0.0915
      3 C          -6.4402  -12.3732   28.5363 C.ar    1  UNL1        0.1402
      4 C          -7.2319  -11.8026   29.4962 C.ar    1  UNL1        0.0325
      5 C          -8.4779  -12.3487   29.7511 C.ar    1  UNL1        0.0756
      6 N          -9.3971  -11.9680   30.6447 N.ar    1  UNL1       -0.3255
      7 C         -10.3884  -12.8798   30.4811 C.ar    1  UNL1        0.1984
      8 N         -10.1346  -13.8057   29.5195 N.ar    1  UNL1       -0.2136
      9 C          -8.9172  -13.4475   29.0665 C.ar    1  UNL1        0.1024
     10 C          -6.5627  -10.6232   30.1003 C.3     1  UNL1        0.0709
     11 C          -5.2061  -10.5773   29.3207 C.3     1  UNL1        0.1375
     12 C          -4.0131  -10.7695   30.2663 C.3     1  UNL1        0.0439
     13 C          -5.0595   -9.2693   28.5322 C.3     1  UNL1        0.0439
     14 O          -5.2574  -11.6746   28.4036 O.3     1  UNL1       -0.4824
     15 H          -9.3535  -11.1597   31.3044 H       1  UNL1        0.1686
     16 C          -5.9555  -14.0282   26.7310 C.2     1  UNL1        0.2526
     17 O          -4.7528  -13.6515   26.6821 O.2     1  UNL1       -0.2697
     18 N          -6.4625  -14.9486   25.7516 N.am    1  UNL1       -0.2806
     19 H          -7.4980  -15.0027   25.6241 H       1  UNL1        0.1552
     20 C          -5.6184  -15.7324   24.8884 C.ar    1  UNL1        0.0465
     21 C          -4.5424  -16.4591   25.4249 C.ar    1  UNL1        0.0143
     22 C          -3.7404  -17.2541   24.6052 C.ar    1  UNL1        0.0051
     23 C          -4.0150  -17.3667   23.2342 C.ar    1  UNL1        0.0712
     24 C          -5.0803  -16.6313   22.6893 C.ar    1  UNL1        0.0008
     25 C          -5.8878  -15.8189   23.5038 C.ar    1  UNL1       -0.0084
     26 C          -7.0311  -15.0584   22.8874 C.3     1  UNL1        0.0323
     27 C          -3.1230  -18.1922   22.3404 C.3     1  UNL1        0.4186
     28 F          -3.5465  -19.5097   22.3049 F       1  UNL1       -0.1659
     29 F          -3.1383  -17.6992   21.0471 F       1  UNL1       -0.1659
     30 F          -1.8288  -18.1484   22.8240 F       1  UNL1       -0.1659
     31 C          -8.3403  -16.6695   27.9893 C.3     1  UNL1        0.0773
     32 C          -8.6135  -15.3159   27.4103 C.2     1  UNL1        0.1752
     33 O          -9.2228  -15.2384   26.3097 O.2     1  UNL1       -0.2913
     34 N         -11.6104  -12.8679   31.2293 N.pl3   1  UNL1       -0.2816
     35 H         -12.3471  -12.1799   30.9548 H       1  UNL1        0.1551
     36 C         -11.7807  -13.6007   32.4500 C.ar    1  UNL1        0.0889
     37 C         -12.5669  -14.7640   32.4493 C.ar    1  UNL1        0.1543
     38 F         -13.1752  -15.1769   31.3090 F       1  UNL1       -0.2028
     39 C         -12.7458  -15.4944   33.6278 C.ar    1  UNL1        0.0310
     40 C         -12.1303  -15.0783   34.8101 C.ar    1  UNL1        0.0033
     41 C         -11.3252  -13.9369   34.8156 C.ar    1  UNL1        0.0128
     42 C         -11.1395  -13.1981   33.6408 C.ar    1  UNL1        0.0733
     43 CL        -10.0496  -11.8170   33.6779 Cl      1  UNL1       -0.0809
@<TRIPOS>BOND
     1    31    32    1
     2    32    33    2
     3    32     1    1
     4     1     2   ar
     5     2    16    1
     6    16    17    2
     7    16    18   am
     8    18    20    1
     9    20    21   ar
    10    21    22   ar
    11    22    23   ar
    12    23    27    1
    13    27    28    1
    14    27    29    1
    15    27    30    1
    16    23    24   ar
    17    24    25   ar
    18    25    26    1
    19     2     3   ar
    20     3     4   ar
    21     4     5   ar
    22     5     6   ar
    23     6     7   ar
    24     7    34    1
    25    34    36    1
    26    36    37   ar
    27    37    38    1
    28    37    39   ar
    29    39    40   ar
    30    40    41   ar
    31    41    42   ar
    32    42    43    1
    33     7     8   ar
    34     8     9   ar
    35     4    10    1
    36    10    11    1
    37    11    12    1
    38    11    13    1
    39    11    14    1
    40     9     1   ar
    41    25    20   ar
    42    14     3    1
    43     9     5   ar
    44    42    36   ar
    45    18    19    1
    46     6    15    1
    47    34    35    1
@<TRIPOS>MOLECULE
*****
 43 47 0 0 0
SMALL
GASTEIGER

@<TRIPOS>ATOM
      1 C          -7.7137  -11.6241   30.1357 C.ar    1  UNL1        0.0611
      2 C          -8.8509  -12.4807   29.9514 C.ar    1  UNL1        0.0915
      3 C          -9.8906  -12.4288   30.9119 C.ar    1  UNL1        0.1402
      4 C          -9.8460  -11.5975   31.9986 C.ar    1  UNL1        0.0325
      5 C          -8.7420  -10.7815   32.1753 C.ar    1  UNL1        0.0756
      6 N          -8.4993   -9.8916   33.1435 N.ar    1  UNL1       -0.3255
      7 C          -7.3010   -9.3632   32.7890 C.ar    1  UNL1        0.1984
      8 N          -6.7800   -9.8897   31.6498 N.ar    1  UNL1       -0.2136
      9 C          -7.7102  -10.7911   31.2785 C.ar    1  UNL1        0.1024
     10 C         -11.0601  -11.7591   32.8374 C.3     1  UNL1        0.0709
     11 C         -11.8582  -12.8560   32.0564 C.3     1  UNL1        0.1375
     12 C         -13.2096  -12.3193   31.5664 C.3     1  UNL1        0.0439
     13 C         -12.0594  -14.1143   32.9108 C.3     1  UNL1        0.0439
     14 O         -11.0465  -13.1828   30.9241 O.3     1  UNL1       -0.4824
     15 H          -9.0950   -9.6664   33.9711 H       1  UNL1        0.1686
     16 C          -8.9467  -13.4538   28.8404 C.2     1  UNL1        0.2526
     17 O         -10.0694  -13.7037   28.3229 O.2     1  UNL1       -0.2697
     18 N          -7.7675  -14.1172   28.3580 N.am    1  UNL1       -0.2806
     19 H          -6.9290  -14.1341   28.9809 H       1  UNL1        0.1552
     20 C          -7.7116  -14.8237   27.1051 C.ar    1  UNL1        0.0465
     21 C          -8.8493  -15.4903   26.6204 C.ar    1  UNL1        0.0143
     22 C          -8.8203  -16.1457   25.3888 C.ar    1  UNL1        0.0051
     23 C          -7.6623  -16.1229   24.5975 C.ar    1  UNL1        0.0712
     24 C          -6.5171  -15.4705   25.0831 C.ar    1  UNL1        0.0008
     25 C          -6.5318  -14.8166   26.3271 C.ar    1  UNL1       -0.0084
     26 C          -5.2906  -14.1136   26.8074 C.3     1  UNL1        0.0323
     27 C          -7.6170  -16.8667   23.2858 C.3     1  UNL1        0.4186
     28 F          -8.4074  -18.0020   23.3369 F       1  UNL1       -0.1659
     29 F          -8.0783  -16.0659   22.2553 F       1  UNL1       -0.1659
     30 F          -6.3126  -17.2382   23.0185 F       1  UNL1       -0.1659
     31 C          -6.1752  -10.2375   28.5633 C.3     1  UNL1        0.0773
     32 C          -6.6116  -11.5461   29.1456 C.2     1  UNL1        0.1752
     33 O          -6.0581  -12.6043   28.7426 O.2     1  UNL1       -0.2913
     34 N          -6.6200   -8.3573   33.5490 N.pl3   1  UNL1       -0.2816
     35 H          -6.9913   -8.1232   34.4971 H       1  UNL1        0.1551
     36 C          -5.5963   -7.5226   32.9909 C.ar    1  UNL1        0.0889
     37 C          -4.3557   -7.4283   33.6417 C.ar    1  UNL1        0.1543
     38 F          -4.1372   -8.1045   34.7974 F       1  UNL1       -0.2028
     39 C          -3.3432   -6.6212   33.1149 C.ar    1  UNL1        0.0310
     40 C          -3.5557   -5.9152   31.9290 C.ar    1  UNL1        0.0033
     41 C          -4.7773   -6.0225   31.2602 C.ar    1  UNL1        0.0128
     42 C          -5.7981   -6.8281   31.7792 C.ar    1  UNL1        0.0733
     43 CL         -7.2876   -6.9979   30.8579 Cl      1  UNL1       -0.0809
@<TRIPOS>BOND
     1    31    32    1
     2    32    33    2
     3    32     1    1
     4     1     2   ar
     5     2    16    1
     6    16    17    2
     7    16    18   am
     8    18    20    1
     9    20    21   ar
    10    21    22   ar
    11    22    23   ar
    12    23    27    1
    13    27    28    1
    14    27    29    1
    15    27    30    1
    16    23    24   ar
    17    24    25   ar
    18    25    26    1
    19     2     3   ar
    20     3     4   ar
    21     4     5   ar
    22     5     6   ar
    23     6     7   ar
    24     7    34    1
    25    34    36    1
    26    36    37   ar
    27    37    38    1
    28    37    39   ar
    29    39    40   ar
    30    40    41   ar
    31    41    42   ar
    32    42    43    1
    33     7     8   ar
    34     8     9   ar
    35     4    10    1
    36    10    11    1
    37    11    12    1
    38    11    13    1
    39    11    14    1
    40     9     1   ar
    41    25    20   ar
    42    14     3    1
    43     9     5   ar
    44    42    36   ar
    45    18    19    1
    46     6    15    1
    47    34    35    1
@<TRIPOS>MOLECULE
*****
 43 47 0 0 0
SMALL
GASTEIGER

@<TRIPOS>ATOM
      1 C          -8.1212  -14.1564   28.0279 C.ar    1  UNL1        0.0611
      2 C          -6.8459  -13.5635   27.7397 C.ar    1  UNL1        0.0915
      3 C          -6.4581  -12.4182   28.4774 C.ar    1  UNL1        0.1402
      4 C          -7.2520  -11.8643   29.4453 C.ar    1  UNL1        0.0325
      5 C          -8.4846  -12.4352   29.7110 C.ar    1  UNL1        0.0756
      6 N          -9.4028  -12.0737   30.6135 N.ar    1  UNL1       -0.3255
      7 C         -10.3773  -13.0048   30.4580 C.ar    1  UNL1        0.1984
      8 N         -10.1142  -13.9245   29.4930 N.ar    1  UNL1       -0.2136
      9 C          -8.9084  -13.5418   29.0291 C.ar    1  UNL1        0.1024
     10 C          -6.6007  -10.6726   30.0446 C.3     1  UNL1        0.0709
     11 C          -5.2525  -10.5991   29.2526 C.3     1  UNL1        0.1375
     12 C          -4.0473  -10.7686   30.1868 C.3     1  UNL1        0.0439
     13 C          -5.1392   -9.2876   28.4643 C.3     1  UNL1        0.0439
     14 O          -5.2907  -11.6961   28.3346 O.3     1  UNL1       -0.4824
     15 H          -9.3691  -11.2654   31.2737 H       1  UNL1        0.1686
     16 C          -5.9576  -14.0614   26.6656 C.2     1  UNL1        0.2526
     17 O          -4.7577  -13.6756   26.6173 O.2     1  UNL1       -0.2697
     18 N          -6.4613  -14.9739   25.6772 N.am    1  UNL1       -0.2806
     19 H          -7.4967  -15.0338   25.5524 H       1  UNL1        0.1552
     20 C          -5.6145  -15.7416   24.8022 C.ar    1  UNL1        0.0465
     21 C          -4.5307  -16.4655   25.3265 C.ar    1  UNL1        0.0143
     22 C          -3.7257  -17.2452   24.4950 C.ar    1  UNL1        0.0051
     23 C          -4.0049  -17.3450   23.1240 C.ar    1  UNL1        0.0712
     24 C          -5.0781  -16.6122   22.5913 C.ar    1  UNL1        0.0008
     25 C          -5.8887  -15.8151   23.4178 C.ar    1  UNL1       -0.0084
     26 C          -7.0404  -15.0571   22.8142 C.3     1  UNL1        0.0323
     27 C          -3.1100  -18.1537   22.2178 C.3     1  UNL1        0.4186
     28 F          -3.5291  -19.4719   22.1618 F       1  UNL1       -0.1659
     29 F          -3.1267  -17.6408   20.9322 F       1  UNL1       -0.1659
     30 F          -1.8161  -18.1131   22.7023 F       1  UNL1       -0.1659
     31 C          -8.2970  -16.7498   27.9545 C.3     1  UNL1        0.0773
     32 C          -8.5832  -15.4022   27.3679 C.2     1  UNL1        0.1752
     33 O          -9.1873  -15.3368   26.2637 O.2     1  UNL1       -0.2913
     34 N         -11.5924  -13.0179   31.2175 N.pl3   1  UNL1       -0.2816
     35 H         -12.3878  -12.4301   30.8808 H       1  UNL1        0.1551
     36 C         -11.6924  -13.6260   32.5122 C.ar    1  UNL1        0.0889
     37 C         -11.0608  -13.0169   33.6082 C.ar    1  UNL1        0.1543
     38 F         -10.3465  -11.8760   33.4379 F       1  UNL1       -0.2028
     39 C         -11.1458  -13.5920   34.8796 C.ar    1  UNL1        0.0310
     40 C         -11.8729  -14.7690   35.0689 C.ar    1  UNL1        0.0033
     41 C         -12.5264  -15.3688   33.9898 C.ar    1  UNL1        0.0128
     42 C         -12.4476  -14.8011   32.7124 C.ar    1  UNL1        0.0733
     43 CL        -13.3563  -15.5458   31.4024 Cl      1  UNL1       -0.0809
@<TRIPOS>BOND
     1    31    32    1
     2    32    33    2
     3    32     1    1
     4     1     2   ar
     5     2    16    1
     6    16    17    2
     7    16    18   am
     8    18    20    1
     9    20    21   ar
    10    21    22   ar
    11    22    23   ar
    12    23    27    1
    13    27    28    1
    14    27    29    1
    15    27    30    1
    16    23    24   ar
    17    24    25   ar
    18    25    26    1
    19     2     3   ar
    20     3     4   ar
    21     4     5   ar
    22     5     6   ar
    23     6     7   ar
    24     7    34    1
    25    34    36    1
    26    36    37   ar
    27    37    38    1
    28    37    39   ar
    29    39    40   ar
    30    40    41   ar
    31    41    42   ar
    32    42    43    1
    33     7     8   ar
    34     8     9   ar
    35     4    10    1
    36    10    11    1
    37    11    12    1
    38    11    13    1
    39    11    14    1
    40     9     1   ar
    41    25    20   ar
    42    14     3    1
    43     9     5   ar
    44    42    36   ar
    45    18    19    1
    46     6    15    1
    47    34    35    1
