@<TRIPOS>MOLECULE
*****
 48 53 0 0 0
SMALL
GASTEIGER

@<TRIPOS>ATOM
      1 O          58.5869   84.3678   10.2877 O.2     1  UNL1       -0.2701
      2 C          59.6779   84.9731   10.0993 C.2     1  UNL1        0.2483
      3 N          60.8300   84.6088   10.8756 N.am    1  UNL1       -0.2945
      4 H          61.7727   84.8462   10.4944 H       1  UNL1        0.1501
      5 C          59.7466   86.0423    9.0707 C.ar    1  UNL1        0.0808
      6 C          59.0161   85.8989    7.8785 C.ar    1  UNL1        0.0080
      7 C          59.0308   86.9017    6.9065 C.ar    1  UNL1        0.0148
      8 C          59.7704   88.0789    7.1055 C.ar    1  UNL1        0.0502
      9 C          60.4925   88.2304    8.3002 C.ar    1  UNL1        0.0443
     10 C          60.4849   87.2273    9.2739 C.ar    1  UNL1        0.1457
     11 F          61.1625   87.4504   10.4273 F       1  UNL1       -0.2040
     12 N          59.7703   89.1258    6.1110 N.pl3   1  UNL1       -0.3040
     13 C          58.5526   89.9179    5.8713 C.3     1  UNL1        0.1122
     14 C          58.4403   90.3147    4.3922 C.3     1  UNL1        0.1122
     15 N          59.7254   90.7819    3.8512 N.pl3   1  UNL1       -0.3040
     16 C          60.9049   90.8388    4.7217 C.3     1  UNL1        0.1122
     17 C          61.0419   89.5165    5.4773 C.3     1  UNL1        0.1122
     18 C          59.8343   91.0911    2.4494 C.ar    1  UNL1        0.0493
     19 C          58.6807   91.2525    1.6674 C.ar    1  UNL1        0.0268
     20 C          58.7804   91.5649    0.3076 C.ar    1  UNL1        0.0699
     21 CL         57.3013   91.7586   -0.6249 Cl      1  UNL1       -0.0813
     22 C          60.0447   91.7228   -0.2872 C.ar    1  UNL1        0.0745
     23 CL         60.1740   92.1160   -2.0011 Cl      1  UNL1       -0.0808
     24 C          61.2034   91.5667    0.4945 C.ar    1  UNL1        0.0472
     25 BR         62.9556   91.7674   -0.2568 Br      1  UNL1       -0.0481
     26 C          61.0936   91.2552    1.8539 C.ar    1  UNL1        0.0221
     27 C          60.7199   83.8227   12.1144 C.3     1  UNL1        0.1535
     28 C          60.4473   82.3632   11.8248 C.2     1  UNL1        0.2443
     29 O          61.3917   81.5989   11.4848 O.2     1  UNL1       -0.2730
     30 N          59.1121   81.8487   11.9603 N.am    1  UNL1       -0.2825
     31 H          58.3249   82.5354   11.9970 H       1  UNL1        0.1549
     32 C          58.7797   80.4499   11.9389 C.ar    1  UNL1        0.0535
     33 C          58.1893   79.8499   10.8134 C.ar    1  UNL1        0.0353
     34 C          57.9093   78.4812   10.8296 C.ar    1  UNL1        0.1002
     35 N          58.2199   77.7336   11.9215 N.ar    1  UNL1       -0.2422
     36 C          58.8087   78.2833   13.0161 C.ar    1  UNL1        0.1002
     37 C          59.1068   79.6478   13.0408 C.ar    1  UNL1        0.0353
     38 C          61.9761   83.9812   12.9999 C.3     1  UNL1        0.0569
     39 C          61.7740   84.9312   14.1498 C.ar    1  UNL1       -0.0017
     40 C          61.1510   84.6461   15.3617 C.ar    1  UNL1        0.0681
     41 N          61.2095   85.7150   16.1875 N.ar    1  UNL1       -0.3523
     42 C          61.8606   86.6746   15.5081 C.ar    1  UNL1        0.0563
     43 C          62.1813   87.9555   15.9562 C.ar    1  UNL1        0.0170
     44 C          62.8835   88.8026   15.0798 C.ar    1  UNL1        0.0015
     45 C          63.2382   88.3588   13.7872 C.ar    1  UNL1        0.0001
     46 C          62.8980   87.0626   13.3605 C.ar    1  UNL1        0.0012
     47 C          62.2150   86.2380   14.2568 C.ar    1  UNL1        0.0131
     48 H          60.8311   85.7755   17.1589 H       1  UNL1        0.1660
@<TRIPOS>BOND
     1     1     2    2
     2     2     3   am
     3     3    27    1
     4    27    38    1
     5    38    39    1
     6    39    40   ar
     7    40    41   ar
     8    41    42   ar
     9    42    43   ar
    10    43    44   ar
    11    44    45   ar
    12    45    46   ar
    13    46    47   ar
    14    27    28    1
    15    28    29    2
    16    28    30   am
    17    30    32    1
    18    32    33   ar
    19    33    34   ar
    20    34    35   ar
    21    35    36   ar
    22    36    37   ar
    23     2     5    1
    24     5     6   ar
    25     6     7   ar
    26     7     8   ar
    27     8    12    1
    28    12    13    1
    29    13    14    1
    30    14    15    1
    31    15    18    1
    32    18    19   ar
    33    19    20   ar
    34    20    21    1
    35    20    22   ar
    36    22    23    1
    37    22    24   ar
    38    24    25    1
    39    24    26   ar
    40    15    16    1
    41    16    17    1
    42     8     9   ar
    43     9    10   ar
    44    10    11    1
    45    47    39   ar
    46    37    32   ar
    47    10     5   ar
    48    47    42   ar
    49    17    12    1
    50    26    18   ar
    51     3     4    1
    52    41    48    1
    53    30    31    1
@<TRIPOS>MOLECULE
*****
 48 53 0 0 0
SMALL
GASTEIGER

@<TRIPOS>ATOM
      1 O          58.5365   84.2199   10.0706 O.2     1  UNL1       -0.2701
      2 C          59.5815   84.9223    9.9886 C.2     1  UNL1        0.2483
      3 N          60.6787   84.6610   10.8776 N.am    1  UNL1       -0.2945
      4 H          61.6294   84.9843   10.5908 H       1  UNL1        0.1501
      5 C          59.6551   85.9973    8.9663 C.ar    1  UNL1        0.0808
      6 C          58.7594   85.9801    7.8832 C.ar    1  UNL1        0.0080
      7 C          58.7787   86.9951    6.9240 C.ar    1  UNL1        0.0148
      8 C          59.6894   88.0591    7.0278 C.ar    1  UNL1        0.0502
      9 C          60.5783   88.0853    8.1145 C.ar    1  UNL1        0.0443
     10 C          60.5662   87.0692    9.0745 C.ar    1  UNL1        0.1457
     11 F          61.4153   87.1731   10.1268 F       1  UNL1       -0.2040
     12 N          59.6971   89.1202    6.0485 N.pl3   1  UNL1       -0.3040
     13 C          58.4572   89.8529    5.7424 C.3     1  UNL1        0.1122
     14 C          58.4170   90.2668    4.2644 C.3     1  UNL1        0.1122
     15 N          59.7073   90.8075    3.8114 N.pl3   1  UNL1       -0.3040
     16 C          60.8257   90.9106    4.7553 C.3     1  UNL1        0.1122
     17 C          60.9837   89.5852    5.5012 C.3     1  UNL1        0.1122
     18 C          59.8873   91.1439    2.4233 C.ar    1  UNL1        0.0493
     19 C          61.1762   91.2282    1.8756 C.ar    1  UNL1        0.0268
     20 C          61.3565   91.5429    0.5247 C.ar    1  UNL1        0.0699
     21 CL         62.9947   91.6326   -0.1100 Cl      1  UNL1       -0.0813
     22 C          60.2406   91.7754   -0.2986 C.ar    1  UNL1        0.0745
     23 CL         60.4643   92.1728   -2.0017 Cl      1  UNL1       -0.0808
     24 C          58.9466   91.6870    0.2455 C.ar    1  UNL1        0.0472
     25 BR         57.3852   91.9941   -0.8233 Br      1  UNL1       -0.0481
     26 C          58.7763   91.3708    1.5976 C.ar    1  UNL1        0.0221
     27 C          60.5176   83.8634   12.1034 C.3     1  UNL1        0.1535
     28 C          60.2742   82.4038   11.7894 C.2     1  UNL1        0.2443
     29 O          61.2104   81.6899   11.3360 O.2     1  UNL1       -0.2730
     30 N          58.9783   81.8309   12.0310 N.am    1  UNL1       -0.2825
     31 H          58.1727   82.4832   12.1652 H       1  UNL1        0.1549
     32 C          58.6986   80.4211   11.9916 C.ar    1  UNL1        0.0535
     33 C          58.1750   79.8055   10.8417 C.ar    1  UNL1        0.0353
     34 C          57.9451   78.4274   10.8421 C.ar    1  UNL1        0.1002
     35 N          58.2401   77.6861   11.9426 N.ar    1  UNL1       -0.2422
     36 C          58.7652   78.2516   13.0614 C.ar    1  UNL1        0.1002
     37 C          59.0117   79.6259   13.1026 C.ar    1  UNL1        0.0353
     38 C          61.7281   84.0269   13.0494 C.3     1  UNL1        0.0569
     39 C          61.4818   85.0103   14.1620 C.ar    1  UNL1       -0.0017
     40 C          60.6123   84.8461   15.2368 C.ar    1  UNL1        0.0681
     41 N          60.6965   85.8999   16.0796 N.ar    1  UNL1       -0.3523
     42 C          61.6085   86.7307   15.5462 C.ar    1  UNL1        0.0563
     43 C          62.0500   87.9458   16.0685 C.ar    1  UNL1        0.0170
     44 C          63.0283   88.6550   15.3483 C.ar    1  UNL1        0.0015
     45 C          63.5319   88.1439   14.1323 C.ar    1  UNL1        0.0001
     46 C          63.0652   86.9171   13.6272 C.ar    1  UNL1        0.0012
     47 C          62.1056   86.2272   14.3708 C.ar    1  UNL1        0.0131
     48 H          60.1647   86.0332   16.9683 H       1  UNL1        0.1660
@<TRIPOS>BOND
     1     1     2    2
     2     2     3   am
     3     3    27    1
     4    27    38    1
     5    38    39    1
     6    39    40   ar
     7    40    41   ar
     8    41    42   ar
     9    42    43   ar
    10    43    44   ar
    11    44    45   ar
    12    45    46   ar
    13    46    47   ar
    14    27    28    1
    15    28    29    2
    16    28    30   am
    17    30    32    1
    18    32    33   ar
    19    33    34   ar
    20    34    35   ar
    21    35    36   ar
    22    36    37   ar
    23     2     5    1
    24     5     6   ar
    25     6     7   ar
    26     7     8   ar
    27     8    12    1
    28    12    13    1
    29    13    14    1
    30    14    15    1
    31    15    18    1
    32    18    19   ar
    33    19    20   ar
    34    20    21    1
    35    20    22   ar
    36    22    23    1
    37    22    24   ar
    38    24    25    1
    39    24    26   ar
    40    15    16    1
    41    16    17    1
    42     8     9   ar
    43     9    10   ar
    44    10    11    1
    45    47    39   ar
    46    37    32   ar
    47    10     5   ar
    48    47    42   ar
    49    17    12    1
    50    26    18   ar
    51     3     4    1
    52    41    48    1
    53    30    31    1
@<TRIPOS>MOLECULE
*****
 48 53 0 0 0
SMALL
GASTEIGER

@<TRIPOS>ATOM
      1 O          59.4552   83.5130    9.5427 O.2     1  UNL1       -0.2701
      2 C          58.9891   84.6585    9.7932 C.2     1  UNL1        0.2483
      3 N          58.2506   84.8698   11.0067 N.am    1  UNL1       -0.2945
      4 H          58.1755   85.8456   11.3709 H       1  UNL1        0.1501
      5 C          59.2246   85.7644    8.8301 C.ar    1  UNL1        0.0808
      6 C          58.5670   85.7476    7.5880 C.ar    1  UNL1        0.0080
      7 C          58.7389   86.7899    6.6744 C.ar    1  UNL1        0.0148
      8 C          59.5673   87.8812    6.9831 C.ar    1  UNL1        0.0502
      9 C          60.2172   87.9067    8.2275 C.ar    1  UNL1        0.0443
     10 C          60.0521   86.8635    9.1433 C.ar    1  UNL1        0.1457
     11 F          60.6670   86.9662   10.3477 F       1  UNL1       -0.2040
     12 N          59.7301   88.9698    6.0483 N.pl3   1  UNL1       -0.3040
     13 C          58.6661   89.9754    5.8918 C.3     1  UNL1        0.1122
     14 C          58.5935   90.4738    4.4413 C.3     1  UNL1        0.1122
     15 N          59.9287   90.7409    3.8862 N.pl3   1  UNL1       -0.3040
     16 C          61.1184   90.5385    4.7204 C.3     1  UNL1        0.1122
     17 C          61.0365   89.1697    5.3970 C.3     1  UNL1        0.1122
     18 C          60.0600   91.1099    2.5008 C.ar    1  UNL1        0.0493
     19 C          58.9192   91.3495    1.7199 C.ar    1  UNL1        0.0268
     20 C          59.0411   91.7200    0.3766 C.ar    1  UNL1        0.0699
     21 CL         57.5775   92.0107   -0.5551 Cl      1  UNL1       -0.0813
     22 C          60.3150   91.8583   -0.2024 C.ar    1  UNL1        0.0745
     23 CL         60.4722   92.3247   -1.8954 Cl      1  UNL1       -0.0808
     24 C          61.4610   91.6239    0.5785 C.ar    1  UNL1        0.0472
     25 BR         63.2252   91.7941   -0.1517 Br      1  UNL1       -0.0481
     26 C          61.3291   91.2546    1.9214 C.ar    1  UNL1        0.0221
     27 C          57.7068   83.7524   11.7943 C.3     1  UNL1        0.1535
     28 C          58.6237   82.5497   11.7604 C.2     1  UNL1        0.2443
     29 O          59.6424   82.5100   12.5036 O.2     1  UNL1       -0.2730
     30 N          58.3158   81.4450   10.8939 N.am    1  UNL1       -0.2825
     31 H          57.6255   81.6041   10.1254 H       1  UNL1        0.1549
     32 C          58.9756   80.1686   10.9474 C.ar    1  UNL1        0.0535
     33 C          60.2877   79.9968   10.4740 C.ar    1  UNL1        0.0353
     34 C          60.8970   78.7433   10.5721 C.ar    1  UNL1        0.1002
     35 N          60.2294   77.7018   11.1351 N.ar    1  UNL1       -0.2422
     36 C          58.9671   77.8437   11.6187 C.ar    1  UNL1        0.1002
     37 C          58.3219   79.0802   11.5415 C.ar    1  UNL1        0.0353
     38 C          57.4110   84.1762   13.2503 C.3     1  UNL1        0.0569
     39 C          58.1627   85.4100   13.6724 C.ar    1  UNL1       -0.0017
     40 C          57.7337   86.7280   13.5418 C.ar    1  UNL1        0.0681
     41 N          58.6329   87.5755   14.0905 N.ar    1  UNL1       -0.3523
     42 C          59.6282   86.8063   14.5638 C.ar    1  UNL1        0.0563
     43 C          60.7752   87.2294   15.2343 C.ar    1  UNL1        0.0170
     44 C          61.6894   86.2480   15.6581 C.ar    1  UNL1        0.0015
     45 C          61.4439   84.8821   15.3982 C.ar    1  UNL1        0.0001
     46 C          60.2800   84.4844   14.7161 C.ar    1  UNL1        0.0012
     47 C          59.3826   85.4786   14.3211 C.ar    1  UNL1        0.0131
     48 H          58.5606   88.6160   14.1413 H       1  UNL1        0.1660
@<TRIPOS>BOND
     1     1     2    2
     2     2     3   am
     3     3    27    1
     4    27    38    1
     5    38    39    1
     6    39    40   ar
     7    40    41   ar
     8    41    42   ar
     9    42    43   ar
    10    43    44   ar
    11    44    45   ar
    12    45    46   ar
    13    46    47   ar
    14    27    28    1
    15    28    29    2
    16    28    30   am
    17    30    32    1
    18    32    33   ar
    19    33    34   ar
    20    34    35   ar
    21    35    36   ar
    22    36    37   ar
    23     2     5    1
    24     5     6   ar
    25     6     7   ar
    26     7     8   ar
    27     8    12    1
    28    12    13    1
    29    13    14    1
    30    14    15    1
    31    15    18    1
    32    18    19   ar
    33    19    20   ar
    34    20    21    1
    35    20    22   ar
    36    22    23    1
    37    22    24   ar
    38    24    25    1
    39    24    26   ar
    40    15    16    1
    41    16    17    1
    42     8     9   ar
    43     9    10   ar
    44    10    11    1
    45    47    39   ar
    46    37    32   ar
    47    10     5   ar
    48    47    42   ar
    49    17    12    1
    50    26    18   ar
    51     3     4    1
    52    41    48    1
    53    30    31    1
@<TRIPOS>MOLECULE
*****
 48 53 0 0 0
SMALL
GASTEIGER

@<TRIPOS>ATOM
      1 O          60.3351   83.7852    9.5784 O.2     1  UNL1       -0.2701
      2 C          59.6453   84.8108    9.8319 C.2     1  UNL1        0.2483
      3 N          58.9037   84.8764   11.0600 N.am    1  UNL1       -0.2945
      4 H          58.6339   85.8188   11.4198 H       1  UNL1        0.1501
      5 C          59.6254   85.9313    8.8571 C.ar    1  UNL1        0.0808
      6 C          60.5267   86.9981    9.0155 C.ar    1  UNL1        0.0080
      7 C          60.5580   88.0494    8.0967 C.ar    1  UNL1        0.0148
      8 C          59.6935   88.0570    6.9899 C.ar    1  UNL1        0.0502
      9 C          58.7993   86.9875    6.8225 C.ar    1  UNL1        0.0443
     10 C          58.7608   85.9353    7.7421 C.ar    1  UNL1        0.1457
     11 F          57.9098   84.9069    7.5023 F       1  UNL1       -0.2040
     12 N          59.7385   89.1327    6.0276 N.pl3   1  UNL1       -0.3040
     13 C          58.5699   90.0091    5.8431 C.3     1  UNL1        0.1122
     14 C          58.4490   90.4591    4.3801 C.3     1  UNL1        0.1122
     15 N          59.7487   90.8591    3.8206 N.pl3   1  UNL1       -0.3040
     16 C          60.9496   90.8119    4.6620 C.3     1  UNL1        0.1122
     17 C          61.0176   89.4603    5.3736 C.3     1  UNL1        0.1122
     18 C          59.8446   91.2049    2.4264 C.ar    1  UNL1        0.0493
     19 C          58.6880   91.2946    1.6372 C.ar    1  UNL1        0.0268
     20 C          58.7742   91.6419    0.2850 C.ar    1  UNL1        0.0699
     21 CL         57.2918   91.7422   -0.6570 Cl      1  UNL1       -0.0813
     22 C          60.0273   91.9077   -0.2948 C.ar    1  UNL1        0.0745
     23 CL         60.1394   92.3453   -1.9991 Cl      1  UNL1       -0.0808
     24 C          61.1885   91.8237    0.4943 C.ar    1  UNL1        0.0472
     25 BR         62.9260   92.1725   -0.2366 Br      1  UNL1       -0.0481
     26 C          61.0923   91.4765    1.8460 C.ar    1  UNL1        0.0221
     27 C          58.6210   83.6785   11.8662 C.3     1  UNL1        0.1535
     28 C          59.8565   82.8243   12.0454 C.2     1  UNL1        0.2443
     29 O          59.7569   81.5669   12.0768 O.2     1  UNL1       -0.2730
     30 N          61.1448   83.4518   12.1576 N.am    1  UNL1       -0.2825
     31 H          61.1736   84.4735   12.3757 H       1  UNL1        0.1549
     32 C          62.3953   82.7446   12.0974 C.ar    1  UNL1        0.0535
     33 C          62.8923   82.0311   13.2016 C.ar    1  UNL1        0.0353
     34 C          64.0993   81.3369   13.0867 C.ar    1  UNL1        0.1002
     35 N          64.7797   81.3403   11.9099 N.ar    1  UNL1       -0.2422
     36 C          64.3133   82.0055   10.8204 C.ar    1  UNL1        0.1002
     37 C          63.1099   82.7113   10.8920 C.ar    1  UNL1        0.0353
     38 C          58.0062   84.0482   13.2345 C.3     1  UNL1        0.0569
     39 C          58.5456   85.3356   13.7978 C.ar    1  UNL1       -0.0017
     40 C          57.9450   86.5894   13.7240 C.ar    1  UNL1        0.0681
     41 N          58.6758   87.5053   14.3985 N.ar    1  UNL1       -0.3523
     42 C          59.7348   86.8433   14.8954 C.ar    1  UNL1        0.0563
     43 C          60.7618   87.3641   15.6817 C.ar    1  UNL1        0.0170
     44 C          61.7739   86.4854   16.1085 C.ar    1  UNL1        0.0015
     45 C          61.7418   85.1234   15.7375 C.ar    1  UNL1        0.0001
     46 C          60.6954   84.6265   14.9401 C.ar    1  UNL1        0.0012
     47 C          59.6961   85.5177   14.5441 C.ar    1  UNL1        0.0131
     48 H          58.4542   88.5191   14.5142 H       1  UNL1        0.1660
@<TRIPOS>BOND
     1     1     2    2
     2     2     3   am
     3     3    27    1
     4    27    38    1
     5    38    39    1
     6    39    40   ar
     7    40    41   ar
     8    41    42   ar
     9    42    43   ar
    10    43    44   ar
    11    44    45   ar
    12    45    46   ar
    13    46    47   ar
    14    27    28    1
    15    28    29    2
    16    28    30   am
    17    30    32    1
    18    32    33   ar
    19    33    34   ar
    20    34    35   ar
    21    35    36   ar
    22    36    37   ar
    23     2     5    1
    24     5     6   ar
    25     6     7   ar
    26     7     8   ar
    27     8    12    1
    28    12    13    1
    29    13    14    1
    30    14    15    1
    31    15    18    1
    32    18    19   ar
    33    19    20   ar
    34    20    21    1
    35    20    22   ar
    36    22    23    1
    37    22    24   ar
    38    24    25    1
    39    24    26   ar
    40    15    16    1
    41    16    17    1
    42     8     9   ar
    43     9    10   ar
    44    10    11    1
    45    47    39   ar
    46    37    32   ar
    47    10     5   ar
    48    47    42   ar
    49    17    12    1
    50    26    18   ar
    51     3     4    1
    52    41    48    1
    53    30    31    1
@<TRIPOS>MOLECULE
*****
 48 53 0 0 0
SMALL
GASTEIGER

@<TRIPOS>ATOM
      1 O          58.4752   83.8087    9.4964 O.2     1  UNL1       -0.2701
      2 C          59.1282   84.8363    9.8280 C.2     1  UNL1        0.2483
      3 N          59.6712   84.9295   11.1543 N.am    1  UNL1       -0.2945
      4 H          60.4727   85.5802   11.3110 H       1  UNL1        0.1501
      5 C          59.3280   85.9214    8.8338 C.ar    1  UNL1        0.0808
      6 C          58.4664   86.0084    7.7267 C.ar    1  UNL1        0.0080
      7 C          58.6049   87.0374    6.7927 C.ar    1  UNL1        0.0148
      8 C          59.6045   88.0120    6.9462 C.ar    1  UNL1        0.0502
      9 C          60.4600   87.9346    8.0569 C.ar    1  UNL1        0.0443
     10 C          60.3285   86.9037    8.9919 C.ar    1  UNL1        0.1457
     11 F          61.1526   86.9080   10.0690 F       1  UNL1       -0.2040
     12 N          59.7362   89.0885    5.9928 N.pl3   1  UNL1       -0.3040
     13 C          58.6310   90.0411    5.7958 C.3     1  UNL1        0.1122
     14 C          58.5645   90.5073    4.3343 C.3     1  UNL1        0.1122
     15 N          59.8969   90.8243    3.7991 N.pl3   1  UNL1       -0.3040
     16 C          61.0778   90.6928    4.6595 C.3     1  UNL1        0.1122
     17 C          61.0448   89.3352    5.3621 C.3     1  UNL1        0.1122
     18 C          60.0386   91.1719    2.4093 C.ar    1  UNL1        0.0493
     19 C          58.9055   91.4398    1.6265 C.ar    1  UNL1        0.0268
     20 C          59.0379   91.7897    0.2787 C.ar    1  UNL1        0.0699
     21 CL         57.5836   92.1177   -0.6553 Cl      1  UNL1       -0.0813
     22 C          60.3149   91.8784   -0.3031 C.ar    1  UNL1        0.0745
     23 CL         60.4853   92.3187   -2.0018 Cl      1  UNL1       -0.0808
     24 C          61.4535   91.6154    0.4796 C.ar    1  UNL1        0.0472
     25 BR         63.2214   91.7178   -0.2543 Br      1  UNL1       -0.0481
     26 C          61.3111   91.2671    1.8269 C.ar    1  UNL1        0.0221
     27 C          59.2099   84.0622   12.2496 C.3     1  UNL1        0.1535
     28 C          59.2880   82.5995   11.8715 C.2     1  UNL1        0.2443
     29 O          60.2432   82.1798   11.1621 O.2     1  UNL1       -0.2730
     30 N          58.2811   81.6885   12.3429 N.am    1  UNL1       -0.2825
     31 H          57.3889   82.0922   12.7081 H       1  UNL1        0.1549
     32 C          58.3772   80.2572   12.2440 C.ar    1  UNL1        0.0535
     33 C          58.7604   79.4667   13.3411 C.ar    1  UNL1        0.0353
     34 C          58.8132   78.0773   13.2041 C.ar    1  UNL1        0.1002
     35 N          58.4816   77.4946   12.0217 N.ar    1  UNL1       -0.2422
     36 C          58.0890   78.2327   10.9502 C.ar    1  UNL1        0.1002
     37 C          58.0214   79.6247   11.0448 C.ar    1  UNL1        0.0353
     38 C          59.9902   84.3340   13.5551 C.3     1  UNL1        0.0569
     39 C          61.4510   83.9852   13.4555 C.ar    1  UNL1       -0.0017
     40 C          62.4780   84.8266   13.0365 C.ar    1  UNL1        0.0681
     41 N          63.6731   84.2027   13.1386 N.ar    1  UNL1       -0.3523
     42 C          63.4113   82.9734   13.6149 C.ar    1  UNL1        0.0563
     43 C          64.3324   81.9680   13.9060 C.ar    1  UNL1        0.0170
     44 C          63.8404   80.7512   14.4120 C.ar    1  UNL1        0.0015
     45 C          62.4542   80.5656   14.6058 C.ar    1  UNL1        0.0001
     46 C          61.5476   81.5963   14.2997 C.ar    1  UNL1        0.0012
     47 C          62.0653   82.7987   13.8139 C.ar    1  UNL1        0.0131
     48 H          64.6085   84.6018   12.9019 H       1  UNL1        0.1660
@<TRIPOS>BOND
     1     1     2    2
     2     2     3   am
     3     3    27    1
     4    27    38    1
     5    38    39    1
     6    39    40   ar
     7    40    41   ar
     8    41    42   ar
     9    42    43   ar
    10    43    44   ar
    11    44    45   ar
    12    45    46   ar
    13    46    47   ar
    14    27    28    1
    15    28    29    2
    16    28    30   am
    17    30    32    1
    18    32    33   ar
    19    33    34   ar
    20    34    35   ar
    21    35    36   ar
    22    36    37   ar
    23     2     5    1
    24     5     6   ar
    25     6     7   ar
    26     7     8   ar
    27     8    12    1
    28    12    13    1
    29    13    14    1
    30    14    15    1
    31    15    18    1
    32    18    19   ar
    33    19    20   ar
    34    20    21    1
    35    20    22   ar
    36    22    23    1
    37    22    24   ar
    38    24    25    1
    39    24    26   ar
    40    15    16    1
    41    16    17    1
    42     8     9   ar
    43     9    10   ar
    44    10    11    1
    45    47    39   ar
    46    37    32   ar
    47    10     5   ar
    48    47    42   ar
    49    17    12    1
    50    26    18   ar
    51     3     4    1
    52    41    48    1
    53    30    31    1
@<TRIPOS>MOLECULE
*****
 48 53 0 0 0
SMALL
GASTEIGER

@<TRIPOS>ATOM
      1 O          57.8738   84.5842   10.3859 O.2     1  UNL1       -0.2701
      2 C          59.0279   84.9529   10.0332 C.2     1  UNL1        0.2483
      3 N          60.1789   84.3163   10.6099 N.am    1  UNL1       -0.2945
      4 H          61.0806   84.3663   10.0857 H       1  UNL1        0.1501
      5 C          59.1678   86.0310    9.0212 C.ar    1  UNL1        0.0808
      6 C          60.0100   87.1236    9.2909 C.ar    1  UNL1        0.0080
      7 C          60.1912   88.1361    8.3462 C.ar    1  UNL1        0.0148
      8 C          59.5409   88.0780    7.1028 C.ar    1  UNL1        0.0502
      9 C          58.7074   86.9825    6.8256 C.ar    1  UNL1        0.0443
     10 C          58.5190   85.9689    7.7698 C.ar    1  UNL1        0.1457
     11 F          57.7405   84.9125    7.4276 F       1  UNL1       -0.2040
     12 N          59.7431   89.1134    6.1167 N.pl3   1  UNL1       -0.3040
     13 C          58.7197   90.1525    5.9151 C.3     1  UNL1        0.1122
     14 C          58.6606   90.5838    4.4426 C.3     1  UNL1        0.1122
     15 N          60.0030   90.7701    3.8720 N.pl3   1  UNL1       -0.3040
     16 C          61.1873   90.5598    4.7119 C.3     1  UNL1        0.1122
     17 C          61.0536   89.2292    5.4532 C.3     1  UNL1        0.1122
     18 C          60.1427   91.0671    2.4703 C.ar    1  UNL1        0.0493
     19 C          61.4153   91.1352    1.8835 C.ar    1  UNL1        0.0268
     20 C          61.5564   91.4115    0.5196 C.ar    1  UNL1        0.0699
     21 CL         63.1756   91.4824   -0.1644 Cl      1  UNL1       -0.0813
     22 C          60.4171   91.6213   -0.2775 C.ar    1  UNL1        0.0745
     23 CL         60.5915   91.9702   -1.9969 Cl      1  UNL1       -0.0808
     24 C          59.1395   91.5489    0.3060 C.ar    1  UNL1        0.0472
     25 BR         57.5478   91.8264   -0.7256 Br      1  UNL1       -0.0481
     26 C          59.0083   91.2711    1.6708 C.ar    1  UNL1        0.0221
     27 C          60.0927   83.5133   11.8398 C.3     1  UNL1        0.1535
     28 C          60.5802   84.2871   13.0447 C.2     1  UNL1        0.2443
     29 O          60.4852   83.7862   14.1987 O.2     1  UNL1       -0.2730
     30 N          61.1712   85.5849   12.8649 N.am    1  UNL1       -0.2825
     31 H          61.0139   86.0718   11.9535 H       1  UNL1        0.1549
     32 C          61.8720   86.3028   13.8950 C.ar    1  UNL1        0.0535
     33 C          63.2730   86.4142   13.8929 C.ar    1  UNL1        0.0353
     34 C          63.9075   87.1451   14.9005 C.ar    1  UNL1        0.1002
     35 N          63.1726   87.7560   15.8671 N.ar    1  UNL1       -0.2422
     36 C          61.8156   87.6813   15.8830 C.ar    1  UNL1        0.1002
     37 C          61.1416   86.9617   14.8935 C.ar    1  UNL1        0.0353
     38 C          58.6602   82.9826   12.0711 C.3     1  UNL1        0.0569
     39 C          58.4078   81.6528   11.4128 C.ar    1  UNL1       -0.0017
     40 C          58.1054   81.4354   10.0714 C.ar    1  UNL1        0.0681
     41 N          58.0110   80.1111    9.8155 N.ar    1  UNL1       -0.3523
     42 C          58.2475   79.4890   10.9832 C.ar    1  UNL1        0.0563
     43 C          58.2780   78.1145   11.2155 C.ar    1  UNL1        0.0170
     44 C          58.5595   77.6740   12.5214 C.ar    1  UNL1        0.0015
     45 C          58.7933   78.6061   13.5558 C.ar    1  UNL1        0.0001
     46 C          58.7522   79.9871   13.2933 C.ar    1  UNL1        0.0012
     47 C          58.4862   80.3956   11.9848 C.ar    1  UNL1        0.0131
     48 H          57.8042   79.6660    8.8939 H       1  UNL1        0.1660
@<TRIPOS>BOND
     1     1     2    2
     2     2     3   am
     3     3    27    1
     4    27    38    1
     5    38    39    1
     6    39    40   ar
     7    40    41   ar
     8    41    42   ar
     9    42    43   ar
    10    43    44   ar
    11    44    45   ar
    12    45    46   ar
    13    46    47   ar
    14    27    28    1
    15    28    29    2
    16    28    30   am
    17    30    32    1
    18    32    33   ar
    19    33    34   ar
    20    34    35   ar
    21    35    36   ar
    22    36    37   ar
    23     2     5    1
    24     5     6   ar
    25     6     7   ar
    26     7     8   ar
    27     8    12    1
    28    12    13    1
    29    13    14    1
    30    14    15    1
    31    15    18    1
    32    18    19   ar
    33    19    20   ar
    34    20    21    1
    35    20    22   ar
    36    22    23    1
    37    22    24   ar
    38    24    25    1
    39    24    26   ar
    40    15    16    1
    41    16    17    1
    42     8     9   ar
    43     9    10   ar
    44    10    11    1
    45    47    39   ar
    46    37    32   ar
    47    10     5   ar
    48    47    42   ar
    49    17    12    1
    50    26    18   ar
    51     3     4    1
    52    41    48    1
    53    30    31    1
