@<TRIPOS>MOLECULE
*****
 51 56 0 0 0
SMALL
GASTEIGER

@<TRIPOS>ATOM
      1 N          61.4689   85.2482   11.7111 N.am    1  UNL1       -0.2945
      2 C          60.4279   86.2047   11.4671 C.2     1  UNL1        0.2483
      3 O          59.6035   86.4851   12.3796 O.2     1  UNL1       -0.2701
      4 H          61.9353   84.7991   10.8914 H       1  UNL1        0.1501
      5 C          60.3003   86.8517   10.1462 C.ar    1  UNL1        0.0808
      6 C          59.5082   86.2591    9.1503 C.ar    1  UNL1        0.0080
      7 C          59.3889   86.8560    7.8925 C.ar    1  UNL1        0.0148
      8 C          60.0486   88.0637    7.6135 C.ar    1  UNL1        0.0502
      9 C          60.8247   88.6665    8.6150 C.ar    1  UNL1        0.0443
     10 C          60.9468   88.0714    9.8741 C.ar    1  UNL1        0.1457
     11 F          61.6546   88.7133   10.8379 F       1  UNL1       -0.2040
     12 N          59.9326   88.6818    6.3182 N.pl3   1  UNL1       -0.3040
     13 C          61.0145   88.5580    5.3346 C.3     1  UNL1        0.1123
     14 C          61.1736   89.8701    4.5657 C.3     1  UNL1        0.1136
     15 N          59.8662   90.3383    4.0859 N.pl3   1  UNL1       -0.2897
     16 C          58.7871   90.4633    5.0730 C.3     1  UNL1        0.1136
     17 C          58.6260   89.1521    5.8431 C.3     1  UNL1        0.1123
     18 C          59.7583   91.0259    2.8255 C.ar    1  UNL1        0.1318
     19 C          60.8668   91.6750    2.2627 C.ar    1  UNL1        0.0343
     20 C          60.7345   92.3234    1.0339 C.ar    1  UNL1        0.0083
     21 C          59.5080   92.3035    0.3526 C.ar    1  UNL1        0.0906
     22 C          58.4203   91.6534    0.9566 C.ar    1  UNL1        0.1041
     23 N          58.5725   91.0313    2.1555 N.ar    1  UNL1       -0.2292
     24 C          59.3382   93.0416   -0.9508 C.3     1  UNL1        0.4200
     25 F          58.2137   93.8478   -0.9123 F       1  UNL1       -0.1658
     26 F          59.2016   92.1264   -1.9776 F       1  UNL1       -0.1658
     27 F          60.4375   93.8436   -1.2047 F       1  UNL1       -0.1658
     28 C          61.8913   84.8932   13.0688 C.3     1  UNL1        0.1535
     29 C          62.1776   86.1410   13.8605 C.2     1  UNL1        0.2443
     30 O          61.8014   86.2120   15.0626 O.2     1  UNL1       -0.2730
     31 N          62.8642   87.2430   13.2452 N.am    1  UNL1       -0.2825
     32 H          62.9079   87.2714   12.2013 H       1  UNL1        0.1549
     33 C          63.3957   88.3651   13.9699 C.ar    1  UNL1        0.0535
     34 C          62.7650   88.7851   15.1490 C.ar    1  UNL1        0.0353
     35 C          63.2635   89.8893   15.8445 C.ar    1  UNL1        0.1002
     36 N          64.3444   90.5629   15.3700 N.ar    1  UNL1       -0.2422
     37 C          64.9651   90.1921   14.2189 C.ar    1  UNL1        0.1002
     38 C          64.4996   89.0926   13.4933 C.ar    1  UNL1        0.0353
     39 C          60.8167   84.0557   13.7885 C.3     1  UNL1        0.0565
     40 C          61.3695   81.5256   13.3443 C.ar    1  UNL1        0.0296
     41 N          60.8694   80.5235   12.5811 N.ar    1  UNL1       -0.3567
     42 C          59.8241   81.0426   11.9173 C.ar    1  UNL1        0.0561
     43 C          58.9934   80.3864   11.0098 C.ar    1  UNL1        0.0169
     44 C          57.9555   81.1255   10.4144 C.ar    1  UNL1        0.0015
     45 C          57.7767   82.4897   10.7317 C.ar    1  UNL1        0.0001
     46 C          58.6327   83.1263   11.6484 C.ar    1  UNL1        0.0012
     47 C          59.6493   82.3658   12.2297 C.ar    1  UNL1        0.0127
     48 C          60.6331   82.7046   13.1421 C.ar    1  UNL1       -0.0072
     49 H          61.2306   79.5463   12.5077 H       1  UNL1        0.1656
     50 C          63.8786   81.4801   13.3786 C.3     1  UNL1        0.0066
     51 C          62.5984   81.3553   14.2006 C.3     1  UNL1        0.0432
@<TRIPOS>BOND
     1    50    51    1
     2    51    40    1
     3    40    41   ar
     4    41    42   ar
     5    42    43   ar
     6    43    44   ar
     7    44    45   ar
     8    45    46   ar
     9    46    47   ar
    10    47    48   ar
    11    48    39    1
    12    39    28    1
    13    28     1    1
    14     1     2   am
    15     2     3    2
    16     2     5    1
    17     5     6   ar
    18     6     7   ar
    19     7     8   ar
    20     8    12    1
    21    12    13    1
    22    13    14    1
    23    14    15    1
    24    15    18    1
    25    18    19   ar
    26    19    20   ar
    27    20    21   ar
    28    21    24    1
    29    24    25    1
    30    24    26    1
    31    24    27    1
    32    21    22   ar
    33    22    23   ar
    34    15    16    1
    35    16    17    1
    36     8     9   ar
    37     9    10   ar
    38    10    11    1
    39    28    29    1
    40    29    30    2
    41    29    31   am
    42    31    33    1
    43    33    34   ar
    44    34    35   ar
    45    35    36   ar
    46    36    37   ar
    47    37    38   ar
    48    48    40   ar
    49    10     5   ar
    50    38    33   ar
    51    47    42   ar
    52    17    12    1
    53    23    18   ar
    54    41    49    1
    55     1     4    1
    56    31    32    1
