@<TRIPOS>MOLECULE
*****
 37 41 0 0 0
SMALL
GASTEIGER

@<TRIPOS>ATOM
      1 C         -29.8666   50.3376   -8.1774 C.ar    1  UNL1        0.1317
      2 C         -31.1410   50.1223   -8.7371 C.ar    1  UNL1        0.0290
      3 C         -31.3443   50.2595  -10.1225 C.ar    1  UNL1        0.0786
      4 C         -30.2659   50.6014  -10.9515 C.ar    1  UNL1        0.2664
      5 BR        -30.5251   50.7817  -12.8402 Br      1  UNL1        0.0280
      6 N         -29.0480   50.7875  -10.3755 N.ar    1  UNL1       -0.1220
      7 C         -27.8619   51.0864  -10.9279 C.ar    1  UNL1        0.3140
      8 C         -26.9292   51.1328   -9.8969 C.ar    1  UNL1        0.1320
      9 N         -27.5376   50.8632   -8.7160 N.ar    1  UNL1       -0.2941
     10 C         -28.8272   50.6670   -9.0555 C.ar    1  UNL1        0.3125
     11 H         -27.1323   50.8208   -7.8198 H       1  UNL1        0.1718
     12 N         -27.9698   49.2623   -4.8984 N.3     1  UNL1       -0.2647
     13 C         -29.3652   48.8172   -4.7338 C.3     1  UNL1        0.0941
     14 C         -30.0930   48.9782   -6.0726 C.3     1  UNL1        0.1084
     15 N         -29.6385   50.1912   -6.7650 N.pl3   1  UNL1       -0.2988
     16 C         -29.0142   51.2705   -5.9896 C.3     1  UNL1        0.1084
     17 C         -27.8689   50.7246   -5.1115 C.3     1  UNL1        0.0941
     18 C         -27.0641   48.7677   -3.8394 C.3     1  UNL1        0.1199
     19 C         -25.8388   45.3922   -3.8362 C.ar    1  UNL1        0.1165
     20 N         -26.3364   46.4521   -3.1629 N.ar    1  UNL1       -0.2344
     21 C         -26.5118   47.3912   -4.1150 C.ar    1  UNL1        0.0878
     22 C         -26.1086   46.8855   -5.3375 C.ar    1  UNL1        0.0499
     23 C         -26.1863   47.5632   -6.6692 C.3     1  UNL1        0.0511
     24 N         -25.6856   45.6246   -5.1549 N.ar    1  UNL1       -0.3443
     25 H         -25.3175   44.9660   -5.8773 H       1  UNL1        0.1668
     26 C         -25.7134   44.1838   -1.6724 C.3     1  UNL1        0.0084
     27 C         -25.4262   44.1186   -3.1676 C.3     1  UNL1        0.0637
     28 C         -25.4791   51.4221  -10.0175 C.ar    1  UNL1        0.0218
     29 C         -24.6616   51.3809   -8.8779 C.ar    1  UNL1        0.0013
     30 C         -23.2935   51.6501   -8.9678 C.ar    1  UNL1       -0.0042
     31 C         -22.6945   51.9714  -10.2075 C.ar    1  UNL1       -0.0228
     32 C         -23.5281   52.0098  -11.3461 C.ar    1  UNL1       -0.0042
     33 C         -24.8956   51.7402  -11.2535 C.ar    1  UNL1        0.0013
     34 C         -21.1891   52.2758  -10.3540 C.3     1  UNL1        0.0189
     35 C         -20.5959   52.6182   -8.9699 C.3     1  UNL1        0.0044
     36 C         -20.8997   53.4687  -11.2970 C.3     1  UNL1        0.0044
     37 C         -20.4671   51.0379  -10.9293 C.3     1  UNL1        0.0044
@<TRIPOS>BOND
     1    26    27    1
     2    27    19    1
     3    19    20   ar
     4    20    21   ar
     5    21    18    1
     6    18    12    1
     7    12    13    1
     8    13    14    1
     9    14    15    1
    10    15     1    1
    11     1     2   ar
    12     2     3   ar
    13     3     4   ar
    14     4     5    1
    15     4     6   ar
    16     6     7   ar
    17     7     8   ar
    18     8    28    1
    19    28    29   ar
    20    29    30   ar
    21    30    31   ar
    22    31    34    1
    23    34    35    1
    24    34    36    1
    25    34    37    1
    26    31    32   ar
    27    32    33   ar
    28     8     9   ar
    29     9    10   ar
    30    15    16    1
    31    16    17    1
    32    21    22   ar
    33    22    23    1
    34    22    24   ar
    35    24    19   ar
    36    17    12    1
    37    10     1   ar
    38    10     6   ar
    39    33    28   ar
    40    24    25    1
    41     9    11    1
@<TRIPOS>MOLECULE
*****
 37 41 0 0 0
SMALL
GASTEIGER

@<TRIPOS>ATOM
      1 C         -29.4004   49.2857   -8.3052 C.ar    1  UNL1        0.1317
      2 C         -30.7456   49.3395   -8.7188 C.ar    1  UNL1        0.0290
      3 C         -31.1245   50.1397   -9.8123 C.ar    1  UNL1        0.0786
      4 C         -30.1518   50.8789  -10.5012 C.ar    1  UNL1        0.2664
      5 BR        -30.6508   51.9645  -11.9975 Br      1  UNL1        0.0280
      6 N         -28.8616   50.7901  -10.0802 N.ar    1  UNL1       -0.1220
      7 C         -27.7474   51.3579  -10.5677 C.ar    1  UNL1        0.3140
      8 C         -26.6853   50.9139   -9.7868 C.ar    1  UNL1        0.1320
      9 N         -27.1429   50.0766   -8.8240 N.ar    1  UNL1       -0.2941
     10 C         -28.4732   50.0373   -9.0371 C.ar    1  UNL1        0.3125
     11 H         -26.6247   49.6071   -8.1310 H       1  UNL1        0.1718
     12 N         -29.8284   46.8317   -5.2555 N.3     1  UNL1       -0.2647
     13 C         -28.9501   47.9201   -4.7905 C.3     1  UNL1        0.0941
     14 C         -28.9486   49.0335   -5.8432 C.3     1  UNL1        0.1084
     15 N         -28.9937   48.4648   -7.1966 N.pl3   1  UNL1       -0.2988
     16 C         -28.5574   47.0790   -7.4091 C.3     1  UNL1        0.1084
     17 C         -29.2693   46.1227   -6.4297 C.3     1  UNL1        0.0941
     18 C         -30.2557   45.9163   -4.1758 C.3     1  UNL1        0.1199
     19 C         -27.3669   45.1341   -2.1912 C.ar    1  UNL1        0.1165
     20 N         -27.9884   45.1472   -3.3903 N.ar    1  UNL1       -0.2344
     21 C         -29.1958   45.6874   -3.1270 C.ar    1  UNL1        0.0878
     22 C         -29.2830   45.9792   -1.7778 C.ar    1  UNL1        0.0499
     23 C         -30.4192   46.6428   -1.0654 C.3     1  UNL1        0.0511
     24 N         -28.1265   45.6282   -1.1935 N.ar    1  UNL1       -0.3443
     25 H         -27.8702   45.7181   -0.1850 H       1  UNL1        0.1668
     26 C         -24.9627   45.3444   -2.7685 C.3     1  UNL1        0.0084
     27 C         -26.0029   44.5550   -1.9828 C.3     1  UNL1        0.0637
     28 C         -25.2529   51.2669   -9.9442 C.ar    1  UNL1        0.0218
     29 C         -24.4258   51.3498   -8.8139 C.ar    1  UNL1        0.0013
     30 C         -23.0740   51.6809   -8.9384 C.ar    1  UNL1       -0.0042
     31 C         -22.5018   51.9414  -10.2047 C.ar    1  UNL1       -0.0228
     32 C         -23.3449   51.8548  -11.3337 C.ar    1  UNL1       -0.0042
     33 C         -24.6960   51.5237  -11.2064 C.ar    1  UNL1        0.0013
     34 C         -21.0151   52.3104  -10.3897 C.3     1  UNL1        0.0189
     35 C         -20.9046   53.5843  -11.2553 C.3     1  UNL1        0.0044
     36 C         -20.1954   51.1971  -11.0858 C.3     1  UNL1        0.0044
     37 C         -20.3737   52.5710   -9.0093 C.3     1  UNL1        0.0044
@<TRIPOS>BOND
     1    26    27    1
     2    27    19    1
     3    19    20   ar
     4    20    21   ar
     5    21    18    1
     6    18    12    1
     7    12    13    1
     8    13    14    1
     9    14    15    1
    10    15     1    1
    11     1     2   ar
    12     2     3   ar
    13     3     4   ar
    14     4     5    1
    15     4     6   ar
    16     6     7   ar
    17     7     8   ar
    18     8    28    1
    19    28    29   ar
    20    29    30   ar
    21    30    31   ar
    22    31    34    1
    23    34    35    1
    24    34    36    1
    25    34    37    1
    26    31    32   ar
    27    32    33   ar
    28     8     9   ar
    29     9    10   ar
    30    15    16    1
    31    16    17    1
    32    21    22   ar
    33    22    23    1
    34    22    24   ar
    35    24    19   ar
    36    17    12    1
    37    10     1   ar
    38    10     6   ar
    39    33    28   ar
    40    24    25    1
    41     9    11    1
@<TRIPOS>MOLECULE
*****
 37 41 0 0 0
SMALL
GASTEIGER

@<TRIPOS>ATOM
      1 C         -27.9250   49.6695   -7.1482 C.ar    1  UNL1        0.1317
      2 C         -29.2999   49.6099   -7.4476 C.ar    1  UNL1        0.0290
      3 C         -29.8046   50.2237   -8.6087 C.ar    1  UNL1        0.0786
      4 C         -28.9285   50.8888   -9.4787 C.ar    1  UNL1        0.2664
      5 BR        -29.5993   51.7202  -11.0679 Br      1  UNL1        0.0280
      6 N         -27.6060   50.9128   -9.1623 N.ar    1  UNL1       -0.1220
      7 C         -26.5642   51.4440   -9.8212 C.ar    1  UNL1        0.3140
      8 C         -25.4223   51.1618   -9.0787 C.ar    1  UNL1        0.1320
      9 N         -25.7588   50.4601   -7.9689 N.ar    1  UNL1       -0.2941
     10 C         -27.0982   50.3387   -8.0585 C.ar    1  UNL1        0.3125
     11 H         -25.1640   50.1188   -7.2626 H       1  UNL1        0.1718
     12 N         -27.9906   47.8246   -3.6700 N.3     1  UNL1       -0.2647
     13 C         -27.0248   48.9297   -3.5339 C.3     1  UNL1        0.0941
     14 C         -27.1393   49.8360   -4.7640 C.3     1  UNL1        0.1084
     15 N         -27.3904   49.0386   -5.9717 N.pl3   1  UNL1       -0.2988
     16 C         -27.0281   47.6157   -5.9818 C.3     1  UNL1        0.1084
     17 C         -27.6225   46.8888   -4.7575 C.3     1  UNL1        0.0941
     18 C         -28.2880   47.1405   -2.3933 C.3     1  UNL1        0.1199
     19 C         -30.2570   48.7218    0.1598 C.ar    1  UNL1        0.1165
     20 N         -29.1771   47.9919   -0.1948 N.ar    1  UNL1       -0.2344
     21 C         -29.2853   47.8775   -1.5343 C.ar    1  UNL1        0.0878
     22 C         -30.4290   48.5290   -1.9591 C.ar    1  UNL1        0.0499
     23 C         -30.9025   48.7039   -3.3677 C.3     1  UNL1        0.0511
     24 N         -31.0369   49.0594   -0.8862 N.ar    1  UNL1       -0.3443
     25 H         -31.9221   49.6135   -0.8655 H       1  UNL1        0.1668
     26 C         -29.4239   48.7046    2.4972 C.3     1  UNL1        0.0084
     27 C         -30.5910   49.0513    1.5807 C.3     1  UNL1        0.0637
     28 C         -24.0266   51.5418   -9.4087 C.ar    1  UNL1        0.0218
     29 C         -23.6877   51.8780  -10.7280 C.ar    1  UNL1        0.0013
     30 C         -22.3796   52.2387  -11.0616 C.ar    1  UNL1       -0.0042
     31 C         -21.3617   52.2750  -10.0811 C.ar    1  UNL1       -0.0228
     32 C         -21.7159   51.9343   -8.7578 C.ar    1  UNL1       -0.0042
     33 C         -23.0244   51.5741   -8.4269 C.ar    1  UNL1        0.0013
     34 C         -19.9047   52.6670  -10.4037 C.3     1  UNL1        0.0189
     35 C         -19.4272   51.8923  -11.6513 C.3     1  UNL1        0.0044
     36 C         -18.9216   52.3517   -9.2504 C.3     1  UNL1        0.0044
     37 C         -19.8292   54.1841  -10.6821 C.3     1  UNL1        0.0044
@<TRIPOS>BOND
     1    26    27    1
     2    27    19    1
     3    19    20   ar
     4    20    21   ar
     5    21    18    1
     6    18    12    1
     7    12    13    1
     8    13    14    1
     9    14    15    1
    10    15     1    1
    11     1     2   ar
    12     2     3   ar
    13     3     4   ar
    14     4     5    1
    15     4     6   ar
    16     6     7   ar
    17     7     8   ar
    18     8    28    1
    19    28    29   ar
    20    29    30   ar
    21    30    31   ar
    22    31    34    1
    23    34    35    1
    24    34    36    1
    25    34    37    1
    26    31    32   ar
    27    32    33   ar
    28     8     9   ar
    29     9    10   ar
    30    15    16    1
    31    16    17    1
    32    21    22   ar
    33    22    23    1
    34    22    24   ar
    35    24    19   ar
    36    17    12    1
    37    10     1   ar
    38    10     6   ar
    39    33    28   ar
    40    24    25    1
    41     9    11    1
@<TRIPOS>MOLECULE
*****
 37 41 0 0 0
SMALL
GASTEIGER

@<TRIPOS>ATOM
      1 C         -29.1138   50.6573   -7.9109 C.ar    1  UNL1        0.1317
      2 C         -30.3815   50.3822   -8.4596 C.ar    1  UNL1        0.0290
      3 C         -30.5726   50.3898   -9.8535 C.ar    1  UNL1        0.0786
      4 C         -29.4888   50.6619  -10.7010 C.ar    1  UNL1        0.2664
      5 BR        -29.7313   50.6659  -12.6004 Br      1  UNL1        0.0280
      6 N         -28.2776   50.9091  -10.1338 N.ar    1  UNL1       -0.1220
      7 C         -27.0882   51.1646  -10.7010 C.ar    1  UNL1        0.3140
      8 C         -26.1656   51.3124   -9.6705 C.ar    1  UNL1        0.1320
      9 N         -26.7833   51.1482   -8.4752 N.ar    1  UNL1       -0.2941
     10 C         -28.0683   50.9121   -8.8064 C.ar    1  UNL1        0.3125
     11 H         -26.3862   51.1912   -7.5754 H       1  UNL1        0.1718
     12 N         -27.4388   49.6141   -4.5033 N.3     1  UNL1       -0.2647
     13 C         -28.8946   49.5086   -4.2980 C.3     1  UNL1        0.0941
     14 C         -29.5935   49.6553   -5.6537 C.3     1  UNL1        0.1084
     15 N         -28.8981   50.6430   -6.4892 N.pl3   1  UNL1       -0.2988
     16 C         -28.0400   51.6486   -5.8500 C.3     1  UNL1        0.1084
     17 C         -27.0258   50.9805   -4.8984 C.3     1  UNL1        0.0941
     18 C         -26.6440   49.0707   -3.3812 C.3     1  UNL1        0.1199
     19 C         -28.6979   46.7011   -1.6312 C.ar    1  UNL1        0.1165
     20 N         -28.5012   47.9543   -2.0952 N.ar    1  UNL1       -0.2344
     21 C         -27.2955   47.8947   -2.6967 C.ar    1  UNL1        0.0878
     22 C         -26.7855   46.6148   -2.5757 C.ar    1  UNL1        0.0499
     23 C         -25.5058   46.0910   -3.1473 C.3     1  UNL1        0.0511
     24 N         -27.6747   45.8671   -1.9031 N.ar    1  UNL1       -0.3443
     25 H         -27.5923   44.8581   -1.6459 H       1  UNL1        0.1668
     26 C         -30.2557   47.3994    0.1696 C.3     1  UNL1        0.0084
     27 C         -29.8966   46.3048   -0.8280 C.3     1  UNL1        0.0637
     28 C         -24.7163   51.5999   -9.8045 C.ar    1  UNL1        0.0218
     29 C         -24.1972   52.0105  -11.0416 C.ar    1  UNL1        0.0013
     30 C         -22.8356   52.2864  -11.1909 C.ar    1  UNL1       -0.0042
     31 C         -21.9433   52.1599  -10.1016 C.ar    1  UNL1       -0.0228
     32 C         -22.4783   51.7459   -8.8627 C.ar    1  UNL1       -0.0042
     33 C         -23.8399   51.4706   -8.7161 C.ar    1  UNL1        0.0013
     34 C         -20.4332   52.4537  -10.2203 C.3     1  UNL1        0.0189
     35 C         -19.7893   51.4512  -11.2025 C.3     1  UNL1        0.0044
     36 C         -19.6840   52.3361   -8.8709 C.3     1  UNL1        0.0044
     37 C         -20.2281   53.8910  -10.7464 C.3     1  UNL1        0.0044
@<TRIPOS>BOND
     1    26    27    1
     2    27    19    1
     3    19    20   ar
     4    20    21   ar
     5    21    18    1
     6    18    12    1
     7    12    13    1
     8    13    14    1
     9    14    15    1
    10    15     1    1
    11     1     2   ar
    12     2     3   ar
    13     3     4   ar
    14     4     5    1
    15     4     6   ar
    16     6     7   ar
    17     7     8   ar
    18     8    28    1
    19    28    29   ar
    20    29    30   ar
    21    30    31   ar
    22    31    34    1
    23    34    35    1
    24    34    36    1
    25    34    37    1
    26    31    32   ar
    27    32    33   ar
    28     8     9   ar
    29     9    10   ar
    30    15    16    1
    31    16    17    1
    32    21    22   ar
    33    22    23    1
    34    22    24   ar
    35    24    19   ar
    36    17    12    1
    37    10     1   ar
    38    10     6   ar
    39    33    28   ar
    40    24    25    1
    41     9    11    1
@<TRIPOS>MOLECULE
*****
 37 41 0 0 0
SMALL
GASTEIGER

@<TRIPOS>ATOM
      1 C         -29.2756   51.1829   -9.8366 C.ar    1  UNL1        0.1317
      2 C         -30.3247   50.8931   -8.9427 C.ar    1  UNL1        0.0290
      3 C         -30.0615   50.6888   -7.5758 C.ar    1  UNL1        0.0786
      4 C         -28.7457   50.7868   -7.1003 C.ar    1  UNL1        0.2664
      5 BR        -28.3734   50.5213   -5.2409 Br      1  UNL1        0.0280
      6 N         -27.7620   51.0818   -7.9919 N.ar    1  UNL1       -0.1220
      7 C         -26.4449   51.2608   -7.8053 C.ar    1  UNL1        0.3140
      8 C         -25.8942   51.5755   -9.0433 C.ar    1  UNL1        0.1320
      9 N         -26.8669   51.5908   -9.9872 N.ar    1  UNL1       -0.2941
     10 C         -27.9849   51.2776   -9.3026 C.ar    1  UNL1        0.3125
     11 H         -26.7777   51.7854  -10.9481 H       1  UNL1        0.1718
     12 N         -30.6611   50.4184  -13.4425 N.3     1  UNL1       -0.2647
     13 C         -29.2546   50.8230  -13.6170 C.3     1  UNL1        0.0941
     14 C         -28.5881   50.8892  -12.2388 C.3     1  UNL1        0.1084
     15 N         -29.5278   51.4053  -11.2349 N.pl3   1  UNL1       -0.2988
     16 C         -30.6813   52.2017  -11.6722 C.3     1  UNL1        0.1084
     17 C         -31.4682   51.4677  -12.7779 C.3     1  UNL1        0.0941
     18 C         -31.2853   49.9052  -14.6807 C.3     1  UNL1        0.1199
     19 C         -28.8663   49.1555  -17.2268 C.ar    1  UNL1        0.1165
     20 N         -29.6458   50.0551  -16.5882 N.ar    1  UNL1       -0.2344
     21 C         -30.2936   49.3244  -15.6579 C.ar    1  UNL1        0.0878
     22 C         -29.9019   48.0018  -15.7594 C.ar    1  UNL1        0.0499
     23 C         -30.3235   46.8620  -14.8866 C.3     1  UNL1        0.0511
     24 N         -29.0018   47.9021  -16.7503 N.ar    1  UNL1       -0.3443
     25 H         -28.5121   47.0407  -17.0808 H       1  UNL1        0.1668
     26 C         -26.5584   49.0927  -18.1362 C.3     1  UNL1        0.0084
     27 C         -28.0017   49.5065  -18.3966 C.3     1  UNL1        0.0637
     28 C         -24.4693   51.8645   -9.3389 C.ar    1  UNL1        0.0218
     29 C         -23.4700   51.4231   -8.4585 C.ar    1  UNL1        0.0013
     30 C         -22.1218   51.6842   -8.7166 C.ar    1  UNL1       -0.0042
     31 C         -21.7265   52.3995   -9.8703 C.ar    1  UNL1       -0.0228
     32 C         -22.7417   52.8381  -10.7477 C.ar    1  UNL1       -0.0042
     33 C         -24.0888   52.5758  -10.4872 C.ar    1  UNL1        0.0013
     34 C         -20.2507   52.7106  -10.1955 C.3     1  UNL1        0.0189
     35 C         -19.7812   51.8161  -11.3634 C.3     1  UNL1        0.0044
     36 C         -19.2997   52.4599   -9.0003 C.3     1  UNL1        0.0044
     37 C         -20.1143   54.1949  -10.5994 C.3     1  UNL1        0.0044
@<TRIPOS>BOND
     1    26    27    1
     2    27    19    1
     3    19    20   ar
     4    20    21   ar
     5    21    18    1
     6    18    12    1
     7    12    13    1
     8    13    14    1
     9    14    15    1
    10    15     1    1
    11     1     2   ar
    12     2     3   ar
    13     3     4   ar
    14     4     5    1
    15     4     6   ar
    16     6     7   ar
    17     7     8   ar
    18     8    28    1
    19    28    29   ar
    20    29    30   ar
    21    30    31   ar
    22    31    34    1
    23    34    35    1
    24    34    36    1
    25    34    37    1
    26    31    32   ar
    27    32    33   ar
    28     8     9   ar
    29     9    10   ar
    30    15    16    1
    31    16    17    1
    32    21    22   ar
    33    22    23    1
    34    22    24   ar
    35    24    19   ar
    36    17    12    1
    37    10     1   ar
    38    10     6   ar
    39    33    28   ar
    40    24    25    1
    41     9    11    1
@<TRIPOS>MOLECULE
*****
 37 41 0 0 0
SMALL
GASTEIGER

@<TRIPOS>ATOM
      1 C         -28.9814   48.8115   -8.7655 C.ar    1  UNL1        0.1317
      2 C         -30.3322   48.9092   -9.1524 C.ar    1  UNL1        0.0290
      3 C         -30.7476   49.9136  -10.0458 C.ar    1  UNL1        0.0786
      4 C         -29.8060   50.8154  -10.5626 C.ar    1  UNL1        0.2664
      5 BR        -30.3548   52.1813  -11.7872 Br      1  UNL1        0.0280
      6 N         -28.5091   50.6801  -10.1760 N.ar    1  UNL1       -0.1220
      7 C         -27.4185   51.3758  -10.5338 C.ar    1  UNL1        0.3140
      8 C         -26.3346   50.8087   -9.8715 C.ar    1  UNL1        0.1320
      9 N         -26.7554   49.7690   -9.1103 N.ar    1  UNL1       -0.2941
     10 C         -28.0861   49.7331   -9.3216 C.ar    1  UNL1        0.3125
     11 H         -26.2153   49.1782   -8.5372 H       1  UNL1        0.1718
     12 N         -29.1717   46.3292   -5.7146 N.3     1  UNL1       -0.2647
     13 C         -27.8604   46.9961   -5.6241 C.3     1  UNL1        0.0941
     14 C         -27.8267   48.1514   -6.6301 C.3     1  UNL1        0.1084
     15 N         -28.5373   47.7845   -7.8620 N.pl3   1  UNL1       -0.2988
     16 C         -28.7264   46.3653   -8.1874 C.3     1  UNL1        0.1084
     17 C         -29.3459   45.6062   -6.9956 C.3     1  UNL1        0.0941
     18 C         -29.4948   45.5006   -4.5334 C.3     1  UNL1        0.1199
     19 C         -29.7583   47.5698   -1.6103 C.ar    1  UNL1        0.1165
     20 N         -30.2399   47.1823   -2.8113 N.ar    1  UNL1       -0.2344
     21 C         -29.3667   46.2416   -3.2257 C.ar    1  UNL1        0.0878
     22 C         -28.3735   46.0877   -2.2755 C.ar    1  UNL1        0.0499
     23 C         -27.2398   45.1115   -2.2990 C.3     1  UNL1        0.0511
     24 N         -28.6264   46.9278   -1.2595 N.ar    1  UNL1       -0.3443
     25 H         -28.0679   47.0566   -0.3863 H       1  UNL1        0.1668
     26 C         -30.1130   48.4299    0.6902 C.3     1  UNL1        0.0084
     27 C         -30.3785   48.6589   -0.7929 C.3     1  UNL1        0.0637
     28 C         -24.9157   51.2339   -9.9547 C.ar    1  UNL1        0.0218
     29 C         -24.3599   51.5727  -11.1977 C.ar    1  UNL1        0.0013
     30 C         -23.0259   51.9755  -11.2998 C.ar    1  UNL1       -0.0042
     31 C         -22.1990   52.0532  -10.1556 C.ar    1  UNL1       -0.0228
     32 C         -22.7704   51.7095   -8.9114 C.ar    1  UNL1       -0.0042
     33 C         -24.1044   51.3070   -8.8120 C.ar    1  UNL1        0.0013
     34 C         -20.7215   52.4925  -10.2210 C.3     1  UNL1        0.0189
     35 C         -20.1342   52.5381   -8.7935 C.3     1  UNL1        0.0044
     36 C         -20.5318   53.8932  -10.8517 C.3     1  UNL1        0.0044
     37 C         -19.9213   51.4829  -11.0726 C.3     1  UNL1        0.0044
@<TRIPOS>BOND
     1    26    27    1
     2    27    19    1
     3    19    20   ar
     4    20    21   ar
     5    21    18    1
     6    18    12    1
     7    12    13    1
     8    13    14    1
     9    14    15    1
    10    15     1    1
    11     1     2   ar
    12     2     3   ar
    13     3     4   ar
    14     4     5    1
    15     4     6   ar
    16     6     7   ar
    17     7     8   ar
    18     8    28    1
    19    28    29   ar
    20    29    30   ar
    21    30    31   ar
    22    31    34    1
    23    34    35    1
    24    34    36    1
    25    34    37    1
    26    31    32   ar
    27    32    33   ar
    28     8     9   ar
    29     9    10   ar
    30    15    16    1
    31    16    17    1
    32    21    22   ar
    33    22    23    1
    34    22    24   ar
    35    24    19   ar
    36    17    12    1
    37    10     1   ar
    38    10     6   ar
    39    33    28   ar
    40    24    25    1
    41     9    11    1
@<TRIPOS>MOLECULE
*****
 37 41 0 0 0
SMALL
GASTEIGER

@<TRIPOS>ATOM
      1 C         -28.8061   49.3334   -9.0980 C.ar    1  UNL1        0.1317
      2 C         -29.4887   48.4752   -8.2140 C.ar    1  UNL1        0.0290
      3 C         -28.8006   47.8358   -7.1665 C.ar    1  UNL1        0.0786
      4 C         -27.4276   48.0658   -6.9961 C.ar    1  UNL1        0.2664
      5 BR        -26.4798   47.2106   -5.5688 Br      1  UNL1        0.0280
      6 N         -26.8068   48.9116   -7.8614 N.ar    1  UNL1       -0.1220
      7 C         -25.5305   49.3243   -7.9083 C.ar    1  UNL1        0.3140
      8 C         -25.4257   50.2133   -8.9731 C.ar    1  UNL1        0.1320
      9 N         -26.6311   50.3478   -9.5783 N.ar    1  UNL1       -0.2941
     10 C         -27.4388   49.5317   -8.8723 C.ar    1  UNL1        0.3125
     11 H         -26.8625   50.9102  -10.3525 H       1  UNL1        0.1718
     12 N         -30.5944   49.7203  -12.5849 N.3     1  UNL1       -0.2647
     13 C         -29.6341   50.8341  -12.4866 C.3     1  UNL1        0.0941
     14 C         -28.7310   50.5981  -11.2715 C.3     1  UNL1        0.1084
     15 N         -29.4957   50.0035  -10.1673 N.pl3   1  UNL1       -0.2988
     16 C         -30.9553   50.1604  -10.1373 C.3     1  UNL1        0.1084
     17 C         -31.5816   49.7319  -11.4807 C.3     1  UNL1        0.0941
     18 C         -31.2194   49.5962  -13.9191 C.3     1  UNL1        0.1199
     19 C         -28.8483   49.0574  -16.5618 C.ar    1  UNL1        0.1165
     20 N         -29.5497   49.9072  -15.7805 N.ar    1  UNL1       -0.2344
     21 C         -30.2732   49.0958  -14.9822 C.ar    1  UNL1        0.0878
     22 C         -30.0034   47.7777  -15.3029 C.ar    1  UNL1        0.0499
     23 C         -30.5385   46.5532  -14.6299 C.3     1  UNL1        0.0511
     24 N         -29.1041   47.7604  -16.2993 N.ar    1  UNL1       -0.3443
     25 H         -28.6915   46.9240  -16.7697 H       1  UNL1        0.1668
     26 C         -26.7729   50.3112  -17.0894 C.3     1  UNL1        0.0084
     27 C         -27.9408   49.5155  -17.6598 C.3     1  UNL1        0.0637
     28 C         -24.2077   50.9348   -9.4169 C.ar    1  UNL1        0.0218
     29 C         -24.0178   51.2125  -10.7790 C.ar    1  UNL1        0.0013
     30 C         -22.8782   51.8904  -11.2196 C.ar    1  UNL1       -0.0042
     31 C         -21.8853   52.3152  -10.3073 C.ar    1  UNL1       -0.0228
     32 C         -22.0883   52.0293   -8.9398 C.ar    1  UNL1       -0.0042
     33 C         -23.2285   51.3514   -8.5020 C.ar    1  UNL1        0.0013
     34 C         -20.6117   53.0661  -10.7484 C.3     1  UNL1        0.0189
     35 C         -20.0885   53.9250   -9.5766 C.3     1  UNL1        0.0044
     36 C         -20.8494   54.0094  -11.9524 C.3     1  UNL1        0.0044
     37 C         -19.5284   52.0453  -11.1597 C.3     1  UNL1        0.0044
@<TRIPOS>BOND
     1    26    27    1
     2    27    19    1
     3    19    20   ar
     4    20    21   ar
     5    21    18    1
     6    18    12    1
     7    12    13    1
     8    13    14    1
     9    14    15    1
    10    15     1    1
    11     1     2   ar
    12     2     3   ar
    13     3     4   ar
    14     4     5    1
    15     4     6   ar
    16     6     7   ar
    17     7     8   ar
    18     8    28    1
    19    28    29   ar
    20    29    30   ar
    21    30    31   ar
    22    31    34    1
    23    34    35    1
    24    34    36    1
    25    34    37    1
    26    31    32   ar
    27    32    33   ar
    28     8     9   ar
    29     9    10   ar
    30    15    16    1
    31    16    17    1
    32    21    22   ar
    33    22    23    1
    34    22    24   ar
    35    24    19   ar
    36    17    12    1
    37    10     1   ar
    38    10     6   ar
    39    33    28   ar
    40    24    25    1
    41     9    11    1
@<TRIPOS>MOLECULE
*****
 37 41 0 0 0
SMALL
GASTEIGER

@<TRIPOS>ATOM
      1 C         -29.3971   49.9451   -9.8294 C.ar    1  UNL1        0.1317
      2 C         -30.5792   49.9580   -9.0637 C.ar    1  UNL1        0.0290
      3 C         -30.5829   50.5021   -7.7662 C.ar    1  UNL1        0.0786
      4 C         -29.4027   51.0458   -7.2384 C.ar    1  UNL1        0.2664
      5 BR        -29.3949   51.7989   -5.4779 Br      1  UNL1        0.0280
      6 N         -28.2854   51.0272   -8.0136 N.ar    1  UNL1       -0.1220
      7 C         -27.0519   51.4979   -7.7718 C.ar    1  UNL1        0.3140
      8 C         -26.2886   51.2512   -8.9082 C.ar    1  UNL1        0.1320
      9 N         -27.0481   50.6325   -9.8451 N.ar    1  UNL1       -0.2941
     10 C         -28.2531   50.5104   -9.2536 C.ar    1  UNL1        0.3125
     11 H         -26.7818   50.3405  -10.7468 H       1  UNL1        0.1718
     12 N         -30.8164   48.9497  -13.3651 N.3     1  UNL1       -0.2647
     13 C         -30.1043   47.7637  -12.8564 C.3     1  UNL1        0.0941
     14 C         -29.7473   47.9991  -11.3850 C.3     1  UNL1        0.1084
     15 N         -29.3778   49.4030  -11.1613 N.pl3   1  UNL1       -0.2988
     16 C         -28.9281   50.2178  -12.2970 C.3     1  UNL1        0.1084
     17 C         -29.9329   50.1344  -13.4649 C.3     1  UNL1        0.0941
     18 C         -31.5816   48.6921  -14.6038 C.3     1  UNL1        0.1199
     19 C         -30.4325   45.8422  -16.4622 C.ar    1  UNL1        0.1165
     20 N         -31.2260   46.3649  -15.5022 N.ar    1  UNL1       -0.2344
     21 C         -30.9299   47.6807  -15.5138 C.ar    1  UNL1        0.0878
     22 C         -29.9601   47.9239  -16.4695 C.ar    1  UNL1        0.0499
     23 C         -29.3842   49.2485  -16.8600 C.3     1  UNL1        0.0511
     24 N         -29.6511   46.7607  -17.0640 N.ar    1  UNL1       -0.3443
     25 H         -28.9561   46.6011  -17.8273 H       1  UNL1        0.1668
     26 C         -30.0559   44.1533  -18.2408 C.3     1  UNL1        0.0084
     27 C         -30.3734   44.3785  -16.7675 C.3     1  UNL1        0.0637
     28 C         -24.8610   51.5968   -9.1169 C.ar    1  UNL1        0.0218
     29 C         -23.8904   51.1276   -8.2189 C.ar    1  UNL1        0.0013
     30 C         -22.5402   51.4408   -8.3956 C.ar    1  UNL1       -0.0042
     31 C         -22.1139   52.2383   -9.4824 C.ar    1  UNL1       -0.0228
     32 C         -23.1004   52.7041  -10.3784 C.ar    1  UNL1       -0.0042
     33 C         -24.4496   52.3895  -10.1993 C.ar    1  UNL1        0.0013
     34 C         -20.6347   52.6091   -9.7168 C.3     1  UNL1        0.0189
     35 C         -20.5462   54.0471  -10.2728 C.3     1  UNL1        0.0044
     36 C         -19.9260   51.6718  -10.7243 C.3     1  UNL1        0.0044
     37 C         -19.8655   52.5278   -8.3802 C.3     1  UNL1        0.0044
@<TRIPOS>BOND
     1    26    27    1
     2    27    19    1
     3    19    20   ar
     4    20    21   ar
     5    21    18    1
     6    18    12    1
     7    12    13    1
     8    13    14    1
     9    14    15    1
    10    15     1    1
    11     1     2   ar
    12     2     3   ar
    13     3     4   ar
    14     4     5    1
    15     4     6   ar
    16     6     7   ar
    17     7     8   ar
    18     8    28    1
    19    28    29   ar
    20    29    30   ar
    21    30    31   ar
    22    31    34    1
    23    34    35    1
    24    34    36    1
    25    34    37    1
    26    31    32   ar
    27    32    33   ar
    28     8     9   ar
    29     9    10   ar
    30    15    16    1
    31    16    17    1
    32    21    22   ar
    33    22    23    1
    34    22    24   ar
    35    24    19   ar
    36    17    12    1
    37    10     1   ar
    38    10     6   ar
    39    33    28   ar
    40    24    25    1
    41     9    11    1
@<TRIPOS>MOLECULE
*****
 37 41 0 0 0
SMALL
GASTEIGER

@<TRIPOS>ATOM
      1 C         -29.5420   48.8466   -9.0010 C.ar    1  UNL1        0.1317
      2 C         -30.1762   47.9836   -8.0862 C.ar    1  UNL1        0.0290
      3 C         -29.4453   47.3908   -7.0402 C.ar    1  UNL1        0.0786
      4 C         -28.0782   47.6720   -6.9026 C.ar    1  UNL1        0.2664
      5 BR        -27.0728   46.8805   -5.4781 Br      1  UNL1        0.0280
      6 N         -27.5050   48.5209   -7.7974 N.ar    1  UNL1       -0.1220
      7 C         -26.2452   48.9768   -7.8787 C.ar    1  UNL1        0.3140
      8 C         -26.1929   49.8465   -8.9631 C.ar    1  UNL1        0.1320
      9 N         -27.4141   49.9262   -9.5461 N.ar    1  UNL1       -0.2941
     10 C         -28.1783   49.0972   -8.8074 C.ar    1  UNL1        0.3125
     11 H         -27.6805   50.4638  -10.3266 H       1  UNL1        0.1718
     12 N         -30.4776   49.7524  -12.7172 N.3     1  UNL1       -0.2647
     13 C         -30.4462   51.0262  -11.9762 C.3     1  UNL1        0.0941
     14 C         -29.8438   50.7733  -10.5903 C.3     1  UNL1        0.1084
     15 N         -30.2758   49.4697  -10.0693 N.pl3   1  UNL1       -0.2988
     16 C         -31.4948   48.8500  -10.6041 C.3     1  UNL1        0.1084
     17 C         -31.4524   48.7950  -12.1454 C.3     1  UNL1        0.0941
     18 C         -30.6230   49.9235  -14.1786 C.3     1  UNL1        0.1199
     19 C         -30.3841   46.6450  -15.6242 C.ar    1  UNL1        0.1165
     20 N         -30.9035   47.4725  -14.6915 N.ar    1  UNL1       -0.2344
     21 C         -30.3380   48.6666  -14.9626 C.ar    1  UNL1        0.0878
     22 C         -29.4841   48.5348  -16.0426 C.ar    1  UNL1        0.0499
     23 C         -28.6999   49.6169  -16.7156 C.3     1  UNL1        0.0511
     24 N         -29.5180   47.2579  -16.4552 N.ar    1  UNL1       -0.3443
     25 H         -28.9884   46.8311  -17.2479 H       1  UNL1        0.1668
     26 C         -30.3375   44.6122  -17.0467 C.3     1  UNL1        0.0084
     27 C         -30.6828   45.1796  -15.6751 C.3     1  UNL1        0.0637
     28 C         -25.0102   50.6007   -9.4462 C.ar    1  UNL1        0.0218
     29 C         -24.8886   50.9108  -10.8091 C.ar    1  UNL1        0.0013
     30 C         -23.7833   51.6198  -11.2864 C.ar    1  UNL1       -0.0042
     31 C         -22.7572   52.0445  -10.4113 C.ar    1  UNL1       -0.0228
     32 C         -22.8916   51.7259   -9.0427 C.ar    1  UNL1       -0.0042
     33 C         -23.9977   51.0168   -8.5681 C.ar    1  UNL1        0.0013
     34 C         -21.5195   52.8292  -10.8937 C.3     1  UNL1        0.0189
     35 C         -20.4062   51.8378  -11.2969 C.3     1  UNL1        0.0044
     36 C         -20.9392   53.7724   -9.8122 C.3     1  UNL1        0.0044
     37 C         -21.9019   53.6948  -12.1140 C.3     1  UNL1        0.0044
@<TRIPOS>BOND
     1    26    27    1
     2    27    19    1
     3    19    20   ar
     4    20    21   ar
     5    21    18    1
     6    18    12    1
     7    12    13    1
     8    13    14    1
     9    14    15    1
    10    15     1    1
    11     1     2   ar
    12     2     3   ar
    13     3     4   ar
    14     4     5    1
    15     4     6   ar
    16     6     7   ar
    17     7     8   ar
    18     8    28    1
    19    28    29   ar
    20    29    30   ar
    21    30    31   ar
    22    31    34    1
    23    34    35    1
    24    34    36    1
    25    34    37    1
    26    31    32   ar
    27    32    33   ar
    28     8     9   ar
    29     9    10   ar
    30    15    16    1
    31    16    17    1
    32    21    22   ar
    33    22    23    1
    34    22    24   ar
    35    24    19   ar
    36    17    12    1
    37    10     1   ar
    38    10     6   ar
    39    33    28   ar
    40    24    25    1
    41     9    11    1
