@<TRIPOS>MOLECULE
*****
 36 39 0 0 0
SMALL
GASTEIGER

@<TRIPOS>ATOM
      1 N          -9.0141   -9.6577   31.5521 N.am    1  UNL1       -0.2685
      2 C         -10.3311   -9.8047   32.1092 C.2     1  UNL1        0.2677
      3 O         -11.1383   -8.8390   32.0579 O.2     1  UNL1       -0.2682
      4 C         -10.7063  -11.0593   32.7906 C.ar    1  UNL1        0.1400
      5 N          -9.8843  -11.5078   33.7763 N.ar    1  UNL1       -0.2388
      6 C         -10.0972  -12.6727   34.4339 C.ar    1  UNL1        0.0990
      7 C         -11.1914  -13.4743   34.1030 C.ar    1  UNL1        0.0196
      8 C         -11.4062  -14.6902   34.7696 C.ar    1  UNL1        0.0016
      9 C         -12.4956  -15.4928   34.4298 C.ar    1  UNL1        0.0000
     10 C         -13.3758  -15.0891   33.4258 C.ar    1  UNL1        0.0000
     11 C         -13.1729  -13.8807   32.7536 C.ar    1  UNL1        0.0006
     12 C         -12.0773  -13.0531   33.0804 C.ar    1  UNL1        0.0085
     13 C         -11.8319  -11.8288   32.4118 C.ar    1  UNL1        0.0437
     14 S         -12.8767  -11.3017   31.0353 S.3     1  UNL1       -0.1398
     15 H         -13.7415  -10.5971   31.8934 H       1  UNL1        0.1072
     16 C          -9.0830  -11.8153   30.3400 C.3     1  UNL1        0.0265
     17 C          -8.6493  -10.3416   30.2960 C.3     1  UNL1        0.1007
     18 C          -7.1736  -10.1387   29.9776 C.ar    1  UNL1        0.0234
     19 C          -6.7443   -9.3989   28.8540 C.ar    1  UNL1        0.0019
     20 C          -5.3866   -9.3151   28.5342 C.ar    1  UNL1        0.0295
     21 C          -4.4384   -9.9659   29.3242 C.ar    1  UNL1        0.1424
     22 F          -3.1230   -9.8913   29.0045 F       1  UNL1       -0.2041
     23 C          -4.8462  -10.7032   30.4370 C.ar    1  UNL1        0.0590
     24 C          -6.2034  -10.7964   30.7620 C.ar    1  UNL1        0.1399
     25 F          -6.5718  -11.5493   31.8295 F       1  UNL1       -0.2044
     26 C          -8.0724   -8.7315   32.1913 C.3     1  UNL1        0.1207
     27 C          -8.1101   -7.3866   31.5148 C.ar    1  UNL1       -0.0021
     28 C          -6.9207   -6.6829   31.2738 C.ar    1  UNL1       -0.0026
     29 C          -6.9510   -5.4621   30.5989 C.ar    1  UNL1       -0.0001
     30 C          -8.1661   -4.9311   30.1613 C.ar    1  UNL1        0.0064
     31 C          -9.3716   -5.6140   30.4024 C.ar    1  UNL1        0.0752
     32 C          -9.3310   -6.8501   31.0739 C.ar    1  UNL1        0.0038
     33 C         -10.6544   -5.0404   29.9274 C.2     1  UNL1        0.3380
     34 O         -10.7153   -3.8221   29.6120 O.2     1  UNL1       -0.2451
     35 O         -11.8131   -5.8103   29.8316 O.3     1  UNL1       -0.4771
     36 H         -11.8641   -6.7638   30.1658 H       1  UNL1        0.2954
@<TRIPOS>BOND
     1    16    17    1
     2    17    18    1
     3    18    19   ar
     4    19    20   ar
     5    20    21   ar
     6    21    22    1
     7    21    23   ar
     8    23    24   ar
     9    24    25    1
    10    17     1    1
    11     1    26    1
    12    26    27    1
    13    27    28   ar
    14    28    29   ar
    15    29    30   ar
    16    30    31   ar
    17    31    33    1
    18    33    34    2
    19    33    35    1
    20    31    32   ar
    21     1     2   am
    22     2     3    2
    23     2     4    1
    24     4     5   ar
    25     5     6   ar
    26     6     7   ar
    27     7     8   ar
    28     8     9   ar
    29     9    10   ar
    30    10    11   ar
    31    11    12   ar
    32    12    13   ar
    33    13    14    1
    34    24    18   ar
    35    32    27   ar
    36    13     4   ar
    37    12     7   ar
    38    35    36    1
    39    14    15    1
@<TRIPOS>MOLECULE
*****
 36 39 0 0 0
SMALL
GASTEIGER

@<TRIPOS>ATOM
      1 N         -10.6784  -10.8669   31.9500 N.am    1  UNL1       -0.2685
      2 C          -9.2810  -11.1761   32.0845 C.2     1  UNL1        0.2677
      3 O          -8.9243  -12.3700   32.2700 O.2     1  UNL1       -0.2682
      4 C          -8.2817  -10.0899   32.0673 C.ar    1  UNL1        0.1400
      5 N          -8.4123   -9.1027   32.9931 N.ar    1  UNL1       -0.2388
      6 C          -7.5883   -8.0286   33.0396 C.ar    1  UNL1        0.0990
      7 C          -6.5586   -7.8945   32.1063 C.ar    1  UNL1        0.0196
      8 C          -5.7135   -6.7749   32.1399 C.ar    1  UNL1        0.0016
      9 C          -4.6914   -6.6399   31.2000 C.ar    1  UNL1        0.0000
     10 C          -4.5056   -7.6182   30.2232 C.ar    1  UNL1        0.0000
     11 C          -5.3407   -8.7379   30.1781 C.ar    1  UNL1        0.0006
     12 C          -6.3814   -8.8949   31.1185 C.ar    1  UNL1        0.0085
     13 C          -7.2560  -10.0088   31.0958 C.ar    1  UNL1        0.0437
     14 S          -7.1304  -11.2562   29.7948 S.3     1  UNL1       -0.1398
     15 H          -6.2425  -12.0376   30.5577 H       1  UNL1        0.1072
     16 C         -10.6958  -11.4142   29.5355 C.3     1  UNL1        0.0265
     17 C         -11.2421  -10.4933   30.6381 C.3     1  UNL1        0.1007
     18 C         -11.0380   -9.0089   30.3637 C.ar    1  UNL1        0.0234
     19 C          -9.9940   -8.5360   29.5389 C.ar    1  UNL1        0.0019
     20 C          -9.7732   -7.1645   29.3873 C.ar    1  UNL1        0.0295
     21 C         -10.5844   -6.2455   30.0536 C.ar    1  UNL1        0.1424
     22 F         -10.3603   -4.9159   29.9127 F       1  UNL1       -0.2041
     23 C         -11.6193   -6.6964   30.8746 C.ar    1  UNL1        0.0590
     24 C         -11.8447   -8.0673   31.0359 C.ar    1  UNL1        0.1399
     25 F         -12.8362   -8.4754   31.8681 F       1  UNL1       -0.2044
     26 C         -11.5574  -11.0340   33.1131 C.3     1  UNL1        0.1207
     27 C         -11.6273  -12.4819   33.5210 C.ar    1  UNL1       -0.0021
     28 C         -10.8135  -12.9646   34.5567 C.ar    1  UNL1       -0.0026
     29 C         -10.9170  -14.2930   34.9707 C.ar    1  UNL1       -0.0001
     30 C         -11.8297  -15.1518   34.3546 C.ar    1  UNL1        0.0064
     31 C         -12.6470  -14.6922   33.3066 C.ar    1  UNL1        0.0752
     32 C         -12.5441  -13.3479   32.9027 C.ar    1  UNL1        0.0038
     33 C         -13.6154  -15.6144   32.6647 C.2     1  UNL1        0.3380
     34 O         -14.7286  -15.8318   33.2131 O.2     1  UNL1       -0.2451
     35 O         -13.3251  -16.2686   31.4679 O.3     1  UNL1       -0.4771
     36 H         -12.4151  -16.2239   31.0283 H       1  UNL1        0.2954
@<TRIPOS>BOND
     1    16    17    1
     2    17    18    1
     3    18    19   ar
     4    19    20   ar
     5    20    21   ar
     6    21    22    1
     7    21    23   ar
     8    23    24   ar
     9    24    25    1
    10    17     1    1
    11     1    26    1
    12    26    27    1
    13    27    28   ar
    14    28    29   ar
    15    29    30   ar
    16    30    31   ar
    17    31    33    1
    18    33    34    2
    19    33    35    1
    20    31    32   ar
    21     1     2   am
    22     2     3    2
    23     2     4    1
    24     4     5   ar
    25     5     6   ar
    26     6     7   ar
    27     7     8   ar
    28     8     9   ar
    29     9    10   ar
    30    10    11   ar
    31    11    12   ar
    32    12    13   ar
    33    13    14    1
    34    24    18   ar
    35    32    27   ar
    36    13     4   ar
    37    12     7   ar
    38    35    36    1
    39    14    15    1
@<TRIPOS>MOLECULE
*****
 36 39 0 0 0
SMALL
GASTEIGER

@<TRIPOS>ATOM
      1 N         -10.0121  -11.3384   31.2850 N.am    1  UNL1       -0.2685
      2 C         -10.4414  -10.7031   30.0690 C.2     1  UNL1        0.2677
      3 O         -10.9316  -11.4023   29.1428 O.2     1  UNL1       -0.2682
      4 C         -10.2483   -9.2508   29.8893 C.ar    1  UNL1        0.1400
      5 N          -9.1177   -8.8421   29.2543 N.ar    1  UNL1       -0.2388
      6 C          -8.8073   -7.5353   29.0799 C.ar    1  UNL1        0.0990
      7 C          -9.6574   -6.5418   29.5696 C.ar    1  UNL1        0.0196
      8 C          -9.3313   -5.1868   29.4065 C.ar    1  UNL1        0.0016
      9 C         -10.1787   -4.1971   29.9052 C.ar    1  UNL1        0.0000
     10 C         -11.3540   -4.5512   30.5677 C.ar    1  UNL1        0.0000
     11 C         -11.6903   -5.8971   30.7375 C.ar    1  UNL1        0.0006
     12 C         -10.8477   -6.9151   30.2417 C.ar    1  UNL1        0.0085
     13 C         -11.1485   -8.2893   30.4068 C.ar    1  UNL1        0.0437
     14 S         -12.6024   -8.8112   31.3437 S.3     1  UNL1       -0.1398
     15 H         -13.4051   -8.8302   30.1877 H       1  UNL1        0.1072
     16 C          -9.9003  -10.5810   33.6394 C.3     1  UNL1        0.0265
     17 C         -10.7851  -11.1743   32.5316 C.3     1  UNL1        0.1007
     18 C         -11.4726  -12.4773   32.9183 C.ar    1  UNL1        0.0234
     19 C         -10.9904  -13.2981   33.9613 C.ar    1  UNL1        0.0019
     20 C         -11.5846  -14.5350   34.2255 C.ar    1  UNL1        0.0295
     21 C         -12.6634  -14.9733   33.4570 C.ar    1  UNL1        0.1424
     22 F         -13.2304  -16.1787   33.7093 F       1  UNL1       -0.2041
     23 C         -13.1508  -14.1752   32.4208 C.ar    1  UNL1        0.0590
     24 C         -12.5593  -12.9379   32.1463 C.ar    1  UNL1        0.1399
     25 F         -13.0330  -12.2002   31.1101 F       1  UNL1       -0.2044
     26 C          -8.8556  -12.2407   31.2444 C.3     1  UNL1        0.1207
     27 C          -7.5824  -11.4617   31.0445 C.ar    1  UNL1       -0.0021
     28 C          -6.8565  -10.9976   32.1515 C.ar    1  UNL1       -0.0026
     29 C          -5.6492  -10.3228   31.9673 C.ar    1  UNL1       -0.0001
     30 C          -5.1568  -10.1024   30.6793 C.ar    1  UNL1        0.0064
     31 C          -5.8740  -10.5488   29.5549 C.ar    1  UNL1        0.0752
     32 C          -7.0852  -11.2384   29.7500 C.ar    1  UNL1        0.0038
     33 C          -5.3364  -10.3121   28.1928 C.2     1  UNL1        0.3380
     34 O          -5.1345   -9.1331   27.7971 O.2     1  UNL1       -0.2451
     35 O          -5.0581  -11.3630   27.3195 O.3     1  UNL1       -0.4771
     36 H          -5.2934  -12.3242   27.5297 H       1  UNL1        0.2954
@<TRIPOS>BOND
     1    16    17    1
     2    17    18    1
     3    18    19   ar
     4    19    20   ar
     5    20    21   ar
     6    21    22    1
     7    21    23   ar
     8    23    24   ar
     9    24    25    1
    10    17     1    1
    11     1    26    1
    12    26    27    1
    13    27    28   ar
    14    28    29   ar
    15    29    30   ar
    16    30    31   ar
    17    31    33    1
    18    33    34    2
    19    33    35    1
    20    31    32   ar
    21     1     2   am
    22     2     3    2
    23     2     4    1
    24     4     5   ar
    25     5     6   ar
    26     6     7   ar
    27     7     8   ar
    28     8     9   ar
    29     9    10   ar
    30    10    11   ar
    31    11    12   ar
    32    12    13   ar
    33    13    14    1
    34    24    18   ar
    35    32    27   ar
    36    13     4   ar
    37    12     7   ar
    38    35    36    1
    39    14    15    1
@<TRIPOS>MOLECULE
*****
 36 39 0 0 0
SMALL
GASTEIGER

@<TRIPOS>ATOM
      1 N          -9.7673   -8.3317   31.0875 N.am    1  UNL1       -0.2685
      2 C         -10.9367   -8.9342   31.6671 C.2     1  UNL1        0.2677
      3 O         -12.0685   -8.4236   31.4541 O.2     1  UNL1       -0.2682
      4 C         -10.7983  -10.1051   32.5551 C.ar    1  UNL1        0.1400
      5 N          -9.7964  -10.0805   33.4740 N.ar    1  UNL1       -0.2388
      6 C          -9.5392  -11.1187   34.3051 C.ar    1  UNL1        0.0990
      7 C         -10.3100  -12.2807   34.2339 C.ar    1  UNL1        0.0196
      8 C         -10.0362  -13.3653   35.0810 C.ar    1  UNL1        0.0016
      9 C         -10.8027  -14.5282   35.0006 C.ar    1  UNL1        0.0000
     10 C         -11.8448  -14.6168   34.0777 C.ar    1  UNL1        0.0000
     11 C         -12.1277  -13.5440   33.2277 C.ar    1  UNL1        0.0006
     12 C         -11.3650  -12.3582   33.2911 C.ar    1  UNL1        0.0085
     13 C         -11.6132  -11.2559   32.4369 C.ar    1  UNL1        0.0437
     14 S         -12.8815  -11.3484   31.1535 S.3     1  UNL1       -0.1398
     15 H         -13.8662  -10.8319   32.0163 H       1  UNL1        0.1072
     16 C         -10.0373   -9.8491   29.1501 C.3     1  UNL1        0.0265
     17 C          -9.0637   -8.9840   29.9660 C.3     1  UNL1        0.1007
     18 C          -7.8335   -9.7337   30.4608 C.ar    1  UNL1        0.0234
     19 C          -7.8126  -10.4004   31.7054 C.ar    1  UNL1        0.0019
     20 C          -6.6378  -10.9940   32.1746 C.ar    1  UNL1        0.0295
     21 C          -5.4689  -10.9318   31.4154 C.ar    1  UNL1        0.1424
     22 F          -4.3282  -11.4994   31.8788 F       1  UNL1       -0.2041
     23 C          -5.4719  -10.2746   30.1840 C.ar    1  UNL1        0.0590
     24 C          -6.6420   -9.6737   29.7087 C.ar    1  UNL1        0.1399
     25 F          -6.6047   -9.0119   28.5241 F       1  UNL1       -0.2044
     26 C          -9.3467   -7.0056   31.5544 C.3     1  UNL1        0.1207
     27 C          -7.8719   -6.8059   31.3244 C.ar    1  UNL1       -0.0021
     28 C          -7.4109   -6.2805   30.1081 C.ar    1  UNL1       -0.0026
     29 C          -6.0491   -6.0451   29.9155 C.ar    1  UNL1       -0.0001
     30 C          -5.1356   -6.3339   30.9313 C.ar    1  UNL1        0.0064
     31 C          -5.5745   -6.8722   32.1542 C.ar    1  UNL1        0.0752
     32 C          -6.9508   -7.0960   32.3444 C.ar    1  UNL1        0.0038
     33 C          -4.5933   -7.1694   33.2262 C.2     1  UNL1        0.3380
     34 O          -3.4483   -6.6451   33.1880 O.2     1  UNL1       -0.2451
     35 O          -4.8942   -8.0324   34.2795 O.3     1  UNL1       -0.4771
     36 H          -5.7513   -8.5683   34.3181 H       1  UNL1        0.2954
@<TRIPOS>BOND
     1    16    17    1
     2    17    18    1
     3    18    19   ar
     4    19    20   ar
     5    20    21   ar
     6    21    22    1
     7    21    23   ar
     8    23    24   ar
     9    24    25    1
    10    17     1    1
    11     1    26    1
    12    26    27    1
    13    27    28   ar
    14    28    29   ar
    15    29    30   ar
    16    30    31   ar
    17    31    33    1
    18    33    34    2
    19    33    35    1
    20    31    32   ar
    21     1     2   am
    22     2     3    2
    23     2     4    1
    24     4     5   ar
    25     5     6   ar
    26     6     7   ar
    27     7     8   ar
    28     8     9   ar
    29     9    10   ar
    30    10    11   ar
    31    11    12   ar
    32    12    13   ar
    33    13    14    1
    34    24    18   ar
    35    32    27   ar
    36    13     4   ar
    37    12     7   ar
    38    35    36    1
    39    14    15    1
@<TRIPOS>MOLECULE
*****
 36 39 0 0 0
SMALL
GASTEIGER

@<TRIPOS>ATOM
      1 N          -9.9798   -9.9080   31.0105 N.am    1  UNL1       -0.2685
      2 C         -10.5560  -10.2469   32.2832 C.2     1  UNL1        0.2677
      3 O         -10.3018   -9.5333   33.2897 O.2     1  UNL1       -0.2682
      4 C         -11.3876  -11.4593   32.4154 C.ar    1  UNL1        0.1400
      5 N         -12.5240  -11.5247   31.6717 N.ar    1  UNL1       -0.2388
      6 C         -13.3918  -12.5617   31.7499 C.ar    1  UNL1        0.0990
      7 C         -13.1435  -13.6184   32.6279 C.ar    1  UNL1        0.0196
      8 C         -14.0484  -14.6865   32.7249 C.ar    1  UNL1        0.0016
      9 C         -13.8014  -15.7361   33.6101 C.ar    1  UNL1        0.0000
     10 C         -12.6532  -15.7278   34.4021 C.ar    1  UNL1        0.0000
     11 C         -11.7441  -14.6698   34.3158 C.ar    1  UNL1        0.0006
     12 C         -11.9739  -13.5972   33.4277 C.ar    1  UNL1        0.0085
     13 C         -11.0825  -12.5014   33.3227 C.ar    1  UNL1        0.0437
     14 S          -9.6324  -12.3837   34.3940 S.3     1  UNL1       -0.1398
     15 H          -8.8240  -13.0606   33.4618 H       1  UNL1        0.1072
     16 C         -10.2749   -9.7551   28.5572 C.3     1  UNL1        0.0265
     17 C         -10.8159   -9.3407   29.9347 C.3     1  UNL1        0.1007
     18 C         -10.9775   -7.8362   30.1104 C.ar    1  UNL1        0.0234
     19 C         -10.1642   -6.9098   29.4216 C.ar    1  UNL1        0.0019
     20 C         -10.2707   -5.5406   29.6797 C.ar    1  UNL1        0.0295
     21 C         -11.1840   -5.0740   30.6256 C.ar    1  UNL1        0.1424
     22 F         -11.2768   -3.7458   30.8811 F       1  UNL1       -0.2041
     23 C         -11.9937   -5.9767   31.3168 C.ar    1  UNL1        0.0590
     24 C         -11.8908   -7.3492   31.0684 C.ar    1  UNL1        0.1399
     25 F         -12.6667   -8.2046   31.7814 F       1  UNL1       -0.2044
     26 C          -8.5285  -10.0322   30.8328 C.3     1  UNL1        0.1207
     27 C          -7.8179   -8.8473   31.4319 C.ar    1  UNL1       -0.0021
     28 C          -7.3700   -8.8893   32.7606 C.ar    1  UNL1       -0.0026
     29 C          -6.6644   -7.8125   33.2986 C.ar    1  UNL1       -0.0001
     30 C          -6.4017   -6.6844   32.5185 C.ar    1  UNL1        0.0064
     31 C          -6.8515   -6.6163   31.1879 C.ar    1  UNL1        0.0752
     32 C          -7.5528   -7.7113   30.6495 C.ar    1  UNL1        0.0038
     33 C          -6.5609   -5.4137   30.3695 C.2     1  UNL1        0.3380
     34 O          -5.5814   -5.4191   29.5771 O.2     1  UNL1       -0.2451
     35 O          -7.3360   -4.2580   30.4602 O.3     1  UNL1       -0.4771
     36 H          -8.0696   -4.1454   31.1476 H       1  UNL1        0.2954
@<TRIPOS>BOND
     1    16    17    1
     2    17    18    1
     3    18    19   ar
     4    19    20   ar
     5    20    21   ar
     6    21    22    1
     7    21    23   ar
     8    23    24   ar
     9    24    25    1
    10    17     1    1
    11     1    26    1
    12    26    27    1
    13    27    28   ar
    14    28    29   ar
    15    29    30   ar
    16    30    31   ar
    17    31    33    1
    18    33    34    2
    19    33    35    1
    20    31    32   ar
    21     1     2   am
    22     2     3    2
    23     2     4    1
    24     4     5   ar
    25     5     6   ar
    26     6     7   ar
    27     7     8   ar
    28     8     9   ar
    29     9    10   ar
    30    10    11   ar
    31    11    12   ar
    32    12    13   ar
    33    13    14    1
    34    24    18   ar
    35    32    27   ar
    36    13     4   ar
    37    12     7   ar
    38    35    36    1
    39    14    15    1
@<TRIPOS>MOLECULE
*****
 36 39 0 0 0
SMALL
GASTEIGER

@<TRIPOS>ATOM
      1 N          -8.6631  -10.3869   31.6254 N.am    1  UNL1       -0.2685
      2 C          -9.9886  -10.1856   32.1441 C.2     1  UNL1        0.2677
      3 O         -10.3615   -9.0249   32.4614 O.2     1  UNL1       -0.2682
      4 C         -10.8785  -11.3433   32.3597 C.ar    1  UNL1        0.1400
      5 N         -11.9700  -11.4536   31.5566 N.ar    1  UNL1       -0.2388
      6 C         -12.8852  -12.4423   31.6963 C.ar    1  UNL1        0.0990
      7 C         -12.7362  -13.3979   32.7033 C.ar    1  UNL1        0.0196
      8 C         -13.6908  -14.4138   32.8627 C.ar    1  UNL1        0.0016
      9 C         -13.5432  -15.3615   33.8759 C.ar    1  UNL1        0.0000
     10 C         -12.4452  -15.3026   34.7343 C.ar    1  UNL1        0.0000
     11 C         -11.4875  -14.2955   34.5867 C.ar    1  UNL1        0.0006
     12 C         -11.6168  -13.3261   33.5692 C.ar    1  UNL1        0.0085
     13 C         -10.6740  -12.2830   33.3978 C.ar    1  UNL1        0.0437
     14 S          -9.2869  -12.0940   34.5399 S.3     1  UNL1       -0.1398
     15 H          -8.4543  -12.9038   33.7451 H       1  UNL1        0.1072
     16 C          -8.9182  -12.1281   29.8840 C.3     1  UNL1        0.0265
     17 C          -8.4544  -10.6968   30.1976 C.3     1  UNL1        0.1007
     18 C          -7.0173  -10.4063   29.7845 C.ar    1  UNL1        0.0234
     19 C          -5.9450  -11.2435   30.1630 C.ar    1  UNL1        0.0019
     20 C          -4.6276  -10.8959   29.8527 C.ar    1  UNL1        0.0295
     21 C          -4.3579   -9.7126   29.1644 C.ar    1  UNL1        0.1424
     22 F          -3.0777   -9.3733   28.8746 F       1  UNL1       -0.2041
     23 C          -5.4062   -8.8727   28.7850 C.ar    1  UNL1        0.0590
     24 C          -6.7275   -9.2103   29.0955 C.ar    1  UNL1        0.1399
     25 F          -7.7223   -8.3564   28.7441 F       1  UNL1       -0.2044
     26 C          -7.5138  -10.1726   32.5122 C.3     1  UNL1        0.1207
     27 C          -6.9200   -8.8067   32.2895 C.ar    1  UNL1       -0.0021
     28 C          -5.5838   -8.5523   32.6324 C.ar    1  UNL1       -0.0026
     29 C          -5.0183   -7.3027   32.3762 C.ar    1  UNL1       -0.0001
     30 C          -5.7799   -6.2959   31.7793 C.ar    1  UNL1        0.0064
     31 C          -7.1247   -6.5254   31.4381 C.ar    1  UNL1        0.0752
     32 C          -7.6840   -7.7921   31.6896 C.ar    1  UNL1        0.0038
     33 C          -7.9202   -5.4482   30.8000 C.2     1  UNL1        0.3380
     34 O          -9.1659   -5.5850   30.6698 O.2     1  UNL1       -0.2451
     35 O          -7.3260   -4.2816   30.3198 O.3     1  UNL1       -0.4771
     36 H          -6.3232   -4.1501   30.2953 H       1  UNL1        0.2954
@<TRIPOS>BOND
     1    16    17    1
     2    17    18    1
     3    18    19   ar
     4    19    20   ar
     5    20    21   ar
     6    21    22    1
     7    21    23   ar
     8    23    24   ar
     9    24    25    1
    10    17     1    1
    11     1    26    1
    12    26    27    1
    13    27    28   ar
    14    28    29   ar
    15    29    30   ar
    16    30    31   ar
    17    31    33    1
    18    33    34    2
    19    33    35    1
    20    31    32   ar
    21     1     2   am
    22     2     3    2
    23     2     4    1
    24     4     5   ar
    25     5     6   ar
    26     6     7   ar
    27     7     8   ar
    28     8     9   ar
    29     9    10   ar
    30    10    11   ar
    31    11    12   ar
    32    12    13   ar
    33    13    14    1
    34    24    18   ar
    35    32    27   ar
    36    13     4   ar
    37    12     7   ar
    38    35    36    1
    39    14    15    1
@<TRIPOS>MOLECULE
*****
 36 39 0 0 0
SMALL
GASTEIGER

@<TRIPOS>ATOM
      1 N          -9.8090  -11.2780   32.3583 N.am    1  UNL1       -0.2685
      2 C         -10.2997   -9.9934   32.7772 C.2     1  UNL1        0.2677
      3 O         -11.1341   -9.9242   33.7184 O.2     1  UNL1       -0.2682
      4 C          -9.8725   -8.7738   32.0637 C.ar    1  UNL1        0.1400
      5 N          -8.5633   -8.4188   32.1565 N.ar    1  UNL1       -0.2388
      6 C          -8.0679   -7.2927   31.5899 C.ar    1  UNL1        0.0990
      7 C          -8.9121   -6.4342   30.8831 C.ar    1  UNL1        0.0196
      8 C          -8.4067   -5.2577   30.3092 C.ar    1  UNL1        0.0016
      9 C          -9.2552   -4.3977   29.6115 C.ar    1  UNL1        0.0000
     10 C         -10.6097   -4.7047   29.4814 C.ar    1  UNL1        0.0000
     11 C         -11.1260   -5.8729   30.0488 C.ar    1  UNL1        0.0006
     12 C         -10.2862   -6.7571   30.7594 C.ar    1  UNL1        0.0085
     13 C         -10.7760   -7.9430   31.3595 C.ar    1  UNL1        0.0437
     14 S         -12.5373   -8.3432   31.3128 S.3     1  UNL1       -0.1398
     15 H         -12.3933   -9.0721   30.1176 H       1  UNL1        0.1072
     16 C          -8.0790  -11.3573   34.1276 C.3     1  UNL1        0.0265
     17 C          -8.4265  -11.6914   32.6682 C.3     1  UNL1        0.1007
     18 C          -7.4485  -11.1176   31.6510 C.ar    1  UNL1        0.0234
     19 C          -6.3154  -10.3701   32.0400 C.ar    1  UNL1        0.0019
     20 C          -5.4932   -9.7736   31.0804 C.ar    1  UNL1        0.0295
     21 C          -5.7863   -9.9099   29.7231 C.ar    1  UNL1        0.1424
     22 F          -4.9925   -9.3206   28.7954 F       1  UNL1       -0.2041
     23 C          -6.9039  -10.6435   29.3219 C.ar    1  UNL1        0.0590
     24 C          -7.7350  -11.2402   30.2755 C.ar    1  UNL1        0.1399
     25 F          -8.8337  -11.9177   29.8558 F       1  UNL1       -0.2044
     26 C         -10.7354  -12.2159   31.7138 C.3     1  UNL1        0.1207
     27 C         -11.2139  -13.2494   32.6990 C.ar    1  UNL1       -0.0021
     28 C         -10.8419  -13.1649   34.0489 C.ar    1  UNL1       -0.0026
     29 C         -11.3290  -14.0915   34.9714 C.ar    1  UNL1       -0.0001
     30 C         -12.1881  -15.1112   34.5563 C.ar    1  UNL1        0.0064
     31 C         -12.5647  -15.2216   33.2059 C.ar    1  UNL1        0.0752
     32 C         -12.0778  -14.2763   32.2840 C.ar    1  UNL1        0.0038
     33 C         -13.4819  -16.3069   32.7801 C.2     1  UNL1        0.3380
     34 O         -14.6993  -16.2577   33.1007 O.2     1  UNL1       -0.2451
     35 O         -13.0331  -17.4009   32.0409 O.3     1  UNL1       -0.4771
     36 H         -12.0544  -17.5589   31.8393 H       1  UNL1        0.2954
@<TRIPOS>BOND
     1    16    17    1
     2    17    18    1
     3    18    19   ar
     4    19    20   ar
     5    20    21   ar
     6    21    22    1
     7    21    23   ar
     8    23    24   ar
     9    24    25    1
    10    17     1    1
    11     1    26    1
    12    26    27    1
    13    27    28   ar
    14    28    29   ar
    15    29    30   ar
    16    30    31   ar
    17    31    33    1
    18    33    34    2
    19    33    35    1
    20    31    32   ar
    21     1     2   am
    22     2     3    2
    23     2     4    1
    24     4     5   ar
    25     5     6   ar
    26     6     7   ar
    27     7     8   ar
    28     8     9   ar
    29     9    10   ar
    30    10    11   ar
    31    11    12   ar
    32    12    13   ar
    33    13    14    1
    34    24    18   ar
    35    32    27   ar
    36    13     4   ar
    37    12     7   ar
    38    35    36    1
    39    14    15    1
@<TRIPOS>MOLECULE
*****
 36 39 0 0 0
SMALL
GASTEIGER

@<TRIPOS>ATOM
      1 N          -9.1752  -10.4763   31.6530 N.am    1  UNL1       -0.2685
      2 C         -10.5123  -10.3266   32.1592 C.2     1  UNL1        0.2677
      3 O         -10.9176   -9.1882   32.5152 O.2     1  UNL1       -0.2682
      4 C         -11.3769  -11.5126   32.3168 C.ar    1  UNL1        0.1400
      5 N         -12.4767  -11.5971   31.5219 N.ar    1  UNL1       -0.2388
      6 C         -13.3709  -12.6104   31.6141 C.ar    1  UNL1        0.0990
      7 C         -13.1900  -13.6204   32.5609 C.ar    1  UNL1        0.0196
      8 C         -14.1228  -14.6628   32.6717 C.ar    1  UNL1        0.0016
      9 C         -13.9435  -15.6653   33.6252 C.ar    1  UNL1        0.0000
     10 C         -12.8355  -15.6352   34.4720 C.ar    1  UNL1        0.0000
     11 C         -11.8993  -14.6023   34.3726 C.ar    1  UNL1        0.0006
     12 C         -12.0608  -13.5774   33.4158 C.ar    1  UNL1        0.0085
     13 C         -11.1405  -12.5075   33.2949 C.ar    1  UNL1        0.0437
     14 S          -9.7422  -12.3584   34.4292 S.3     1  UNL1       -0.1398
     15 H          -8.9049  -13.1032   33.5778 H       1  UNL1        0.1072
     16 C          -9.3669  -12.1531   29.8416 C.3     1  UNL1        0.0265
     17 C          -8.9391  -10.7256   30.2176 C.3     1  UNL1        0.1007
     18 C          -7.5028  -10.3886   29.8383 C.ar    1  UNL1        0.0234
     19 C          -6.4324  -11.2727   30.0966 C.ar    1  UNL1        0.0019
     20 C          -5.1151  -10.8924   29.8273 C.ar    1  UNL1        0.0295
     21 C          -4.8435   -9.6295   29.2999 C.ar    1  UNL1        0.1424
     22 F          -3.5632   -9.2599   29.0501 F       1  UNL1       -0.2041
     23 C          -5.8898   -8.7427   29.0409 C.ar    1  UNL1        0.0590
     24 C          -7.2110   -9.1132   29.3117 C.ar    1  UNL1        0.1399
     25 F          -8.2036   -8.2164   29.0820 F       1  UNL1       -0.2044
     26 C          -8.0440  -10.2694   32.5644 C.3     1  UNL1        0.1207
     27 C          -7.5349   -8.8556   32.4649 C.ar    1  UNL1       -0.0021
     28 C          -8.4116   -7.8098   32.1402 C.ar    1  UNL1       -0.0026
     29 C          -7.9509   -6.4933   32.1010 C.ar    1  UNL1       -0.0001
     30 C          -6.6131   -6.2084   32.3820 C.ar    1  UNL1        0.0064
     31 C          -5.7142   -7.2427   32.6984 C.ar    1  UNL1        0.0752
     32 C          -6.1896   -8.5664   32.7467 C.ar    1  UNL1        0.0038
     33 C          -4.2970   -6.9247   32.9995 C.2     1  UNL1        0.3380
     34 O          -3.6379   -6.1987   32.2084 O.2     1  UNL1       -0.2451
     35 O          -3.6575   -7.4210   34.1350 O.3     1  UNL1       -0.4771
     36 H          -4.0908   -8.0919   34.7560 H       1  UNL1        0.2954
@<TRIPOS>BOND
     1    16    17    1
     2    17    18    1
     3    18    19   ar
     4    19    20   ar
     5    20    21   ar
     6    21    22    1
     7    21    23   ar
     8    23    24   ar
     9    24    25    1
    10    17     1    1
    11     1    26    1
    12    26    27    1
    13    27    28   ar
    14    28    29   ar
    15    29    30   ar
    16    30    31   ar
    17    31    33    1
    18    33    34    2
    19    33    35    1
    20    31    32   ar
    21     1     2   am
    22     2     3    2
    23     2     4    1
    24     4     5   ar
    25     5     6   ar
    26     6     7   ar
    27     7     8   ar
    28     8     9   ar
    29     9    10   ar
    30    10    11   ar
    31    11    12   ar
    32    12    13   ar
    33    13    14    1
    34    24    18   ar
    35    32    27   ar
    36    13     4   ar
    37    12     7   ar
    38    35    36    1
    39    14    15    1
@<TRIPOS>MOLECULE
*****
 36 39 0 0 0
SMALL
GASTEIGER

@<TRIPOS>ATOM
      1 N          -9.9360  -11.2884   32.5200 N.am    1  UNL1       -0.2685
      2 C          -8.5136  -11.2336   32.7204 C.2     1  UNL1        0.2677
      3 O          -8.0400  -11.4409   33.8692 O.2     1  UNL1       -0.2682
      4 C          -7.6252  -10.8748   31.5975 C.ar    1  UNL1        0.1400
      5 N          -7.5028  -11.7717   30.5831 N.ar    1  UNL1       -0.2388
      6 C          -6.6765  -11.5757   29.5279 C.ar    1  UNL1        0.0990
      7 C          -5.8969  -10.4199   29.4537 C.ar    1  UNL1        0.0196
      8 C          -5.0266  -10.2207   28.3712 C.ar    1  UNL1        0.0016
      9 C          -4.2424   -9.0687   28.3052 C.ar    1  UNL1        0.0000
     10 C          -4.3210   -8.1101   29.3154 C.ar    1  UNL1        0.0000
     11 C          -5.1832   -8.2965   30.3995 C.ar    1  UNL1        0.0006
     12 C          -5.9854   -9.4545   30.4872 C.ar    1  UNL1        0.0085
     13 C          -6.8604   -9.6843   31.5770 C.ar    1  UNL1        0.0437
     14 S          -6.9311   -8.5299   32.9650 S.3     1  UNL1       -0.1398
     15 H          -7.9640   -7.7876   32.3627 H       1  UNL1        0.1072
     16 C         -11.2308  -11.9241   30.5078 C.3     1  UNL1        0.0265
     17 C         -10.5492  -12.4176   31.7939 C.3     1  UNL1        0.1007
     18 C         -11.4632  -13.2194   32.7115 C.ar    1  UNL1        0.0234
     19 C         -10.9955  -13.8084   33.9067 C.ar    1  UNL1        0.0019
     20 C         -11.8340  -14.6204   34.6750 C.ar    1  UNL1        0.0295
     21 C         -13.1464  -14.8593   34.2659 C.ar    1  UNL1        0.1424
     22 F         -13.9536  -15.6564   35.0082 F       1  UNL1       -0.2041
     23 C         -13.6237  -14.2866   33.0858 C.ar    1  UNL1        0.0590
     24 C         -12.7901  -13.4763   32.3082 C.ar    1  UNL1        0.1399
     25 F         -13.2719  -12.9621   31.1482 F       1  UNL1       -0.2044
     26 C         -10.7804  -10.2619   33.1417 C.3     1  UNL1        0.1207
     27 C         -11.1479   -9.1997   32.1395 C.ar    1  UNL1       -0.0021
     28 C         -12.4847   -8.8016   31.9894 C.ar    1  UNL1       -0.0026
     29 C         -12.8179   -7.7798   31.0996 C.ar    1  UNL1       -0.0001
     30 C         -11.8230   -7.1484   30.3503 C.ar    1  UNL1        0.0064
     31 C         -10.4780   -7.5395   30.4764 C.ar    1  UNL1        0.0752
     32 C         -10.1491   -8.5632   31.3843 C.ar    1  UNL1        0.0038
     33 C          -9.4311   -6.8565   29.6777 C.2     1  UNL1        0.3380
     34 O          -8.4254   -7.5040   29.2820 O.2     1  UNL1       -0.2451
     35 O          -9.5164   -5.5015   29.3595 O.3     1  UNL1       -0.4771
     36 H         -10.2384   -4.8980   29.7308 H       1  UNL1        0.2954
@<TRIPOS>BOND
     1    16    17    1
     2    17    18    1
     3    18    19   ar
     4    19    20   ar
     5    20    21   ar
     6    21    22    1
     7    21    23   ar
     8    23    24   ar
     9    24    25    1
    10    17     1    1
    11     1    26    1
    12    26    27    1
    13    27    28   ar
    14    28    29   ar
    15    29    30   ar
    16    30    31   ar
    17    31    33    1
    18    33    34    2
    19    33    35    1
    20    31    32   ar
    21     1     2   am
    22     2     3    2
    23     2     4    1
    24     4     5   ar
    25     5     6   ar
    26     6     7   ar
    27     7     8   ar
    28     8     9   ar
    29     9    10   ar
    30    10    11   ar
    31    11    12   ar
    32    12    13   ar
    33    13    14    1
    34    24    18   ar
    35    32    27   ar
    36    13     4   ar
    37    12     7   ar
    38    35    36    1
    39    14    15    1
