@<TRIPOS>MOLECULE
*****
 38 42 0 0 0
SMALL
GASTEIGER

@<TRIPOS>ATOM
      1 C         -59.0654  -43.3729  -22.2619 C.3     1  UNL1        0.0498
      2 C         -60.3136  -44.1487  -22.6986 C.3     1  UNL1        0.1673
      3 C         -60.3027  -45.5554  -22.0895 C.3     1  UNL1        0.0498
      4 O         -60.2901  -44.2771  -24.1376 O.3     1  UNL1       -0.4770
      5 C         -61.1746  -43.6330  -25.0285 C.ar    1  UNL1        0.1407
      6 C         -60.9768  -43.7521  -26.4082 C.ar    1  UNL1        0.0452
      7 C         -61.8539  -43.1222  -27.3024 C.ar    1  UNL1        0.0450
      8 C         -62.9340  -42.3731  -26.8145 C.ar    1  UNL1        0.0085
      9 C         -63.1402  -42.2533  -25.4367 C.ar    1  UNL1        0.0052
     10 C         -62.2615  -42.8823  -24.5457 C.ar    1  UNL1        0.0529
     11 C         -62.4227  -42.8072  -23.0976 C.ar    1  UNL1        0.1005
     12 N         -63.3920  -42.1719  -22.4127 N.ar    1  UNL1       -0.2271
     13 C         -63.0566  -42.4059  -21.1193 C.ar    1  UNL1        0.1417
     14 N         -61.9354  -43.1528  -20.9852 N.ar    1  UNL1       -0.3380
     15 C         -61.5479  -43.4044  -22.2445 C.ar    1  UNL1        0.0891
     16 H         -61.4781  -43.4744  -20.1034 H       1  UNL1        0.1672
     17 C         -63.8458  -41.8918  -19.9718 C.ar    1  UNL1        0.0531
     18 C         -64.7186  -42.7514  -19.2597 C.ar    1  UNL1        0.0720
     19 C         -65.4576  -42.2595  -18.1760 C.ar    1  UNL1        0.0104
     20 C         -65.3442  -40.9242  -17.7924 C.ar    1  UNL1        0.0014
     21 C         -64.4956  -40.0652  -18.4889 C.ar    1  UNL1        0.0104
     22 C         -63.7473  -40.5344  -19.5762 C.ar    1  UNL1        0.0720
     23 C         -64.8454  -44.1508  -19.5941 C.1     1  UNL1        0.1005
     24 N         -64.9471  -45.2720  -19.8624 N.1     1  UNL1       -0.1908
     25 C         -62.9302  -39.5886  -20.3001 C.1     1  UNL1        0.1005
     26 N         -62.2759  -38.8303  -20.8801 N.1     1  UNL1       -0.1908
     27 C         -61.6450  -43.2435  -28.7206 C.1     1  UNL1       -0.0597
     28 C         -61.4704  -43.3418  -29.9094 C.1     1  UNL1       -0.0598
     29 C         -61.2621  -43.4561  -31.3330 C.ar    1  UNL1        0.0459
     30 C         -62.2509  -42.9606  -32.1947 C.ar    1  UNL1        0.0082
     31 C         -62.0908  -43.0502  -33.5780 C.ar    1  UNL1        0.0006
     32 C         -60.9427  -43.6349  -34.1117 C.ar    1  UNL1       -0.0000
     33 C         -59.9492  -44.1328  -33.2651 C.ar    1  UNL1        0.0045
     34 C         -60.0916  -44.0521  -31.8649 C.ar    1  UNL1        0.0791
     35 C         -59.0099  -44.5944  -30.9518 C.3     1  UNL1        0.4191
     36 F         -57.7864  -44.5319  -31.5941 F       1  UNL1       -0.1658
     37 F         -58.9200  -43.8727  -29.7738 F       1  UNL1       -0.1658
     38 F         -59.2886  -45.9116  -30.6341 F       1  UNL1       -0.1658
@<TRIPOS>BOND
     1     1     2    1
     2     2     3    1
     3     2     4    1
     4     4     5    1
     5     5     6   ar
     6     6     7   ar
     7     7    27    1
     8    27    28    3
     9    28    29    1
    10    29    30   ar
    11    30    31   ar
    12    31    32   ar
    13    32    33   ar
    14    33    34   ar
    15    34    35    1
    16    35    36    1
    17    35    37    1
    18    35    38    1
    19     7     8   ar
    20     8     9   ar
    21     9    10   ar
    22    10    11    1
    23    11    12   ar
    24    12    13   ar
    25    13    17    1
    26    17    18   ar
    27    18    23    1
    28    23    24    3
    29    18    19   ar
    30    19    20   ar
    31    20    21   ar
    32    21    22   ar
    33    22    25    1
    34    25    26    3
    35    13    14   ar
    36    14    15   ar
    37    15     2    1
    38    10     5   ar
    39    15    11   ar
    40    34    29   ar
    41    22    17   ar
    42    14    16    1
@<TRIPOS>MOLECULE
*****
 38 42 0 0 0
SMALL
GASTEIGER

@<TRIPOS>ATOM
      1 C         -59.1108  -43.4509  -22.2614 C.3     1  UNL1        0.0498
      2 C         -60.3705  -44.2039  -22.7050 C.3     1  UNL1        0.1673
      3 C         -60.3845  -45.6134  -22.1027 C.3     1  UNL1        0.0498
      4 O         -60.3453  -44.3258  -24.1446 O.3     1  UNL1       -0.4770
      5 C         -61.2166  -43.6630  -25.0348 C.ar    1  UNL1        0.1407
      6 C         -61.0170  -43.7787  -26.4144 C.ar    1  UNL1        0.0452
      7 C         -61.8811  -43.1301  -27.3080 C.ar    1  UNL1        0.0450
      8 C         -62.9501  -42.3656  -26.8193 C.ar    1  UNL1        0.0085
      9 C         -63.1580  -42.2490  -25.4415 C.ar    1  UNL1        0.0052
     10 C         -62.2922  -42.8967  -24.5512 C.ar    1  UNL1        0.0529
     11 C         -62.4561  -42.8258  -23.1032 C.ar    1  UNL1        0.1005
     12 N         -63.4166  -42.1780  -22.4178 N.ar    1  UNL1       -0.2271
     13 C         -63.0887  -42.4236  -21.1247 C.ar    1  UNL1        0.1417
     14 N         -61.9803  -43.1896  -20.9912 N.ar    1  UNL1       -0.3380
     15 C         -61.5936  -43.4415  -22.2507 C.ar    1  UNL1        0.0891
     16 H         -61.5308  -43.5229  -20.1098 H       1  UNL1        0.1672
     17 C         -63.8724  -41.9021  -19.9768 C.ar    1  UNL1        0.0531
     18 C         -63.7596  -40.5437  -19.5898 C.ar    1  UNL1        0.0720
     19 C         -64.5049  -40.0584  -18.5075 C.ar    1  UNL1        0.0104
     20 C         -65.3581  -40.9052  -17.8018 C.ar    1  UNL1        0.0014
     21 C         -65.4730  -42.2458  -18.1662 C.ar    1  UNL1        0.0104
     22 C         -64.7371  -42.7536  -19.2446 C.ar    1  UNL1        0.0720
     23 C         -62.9174  -39.6169  -20.3097 C.1     1  UNL1        0.1005
     24 N         -62.2423  -38.8746  -20.8864 N.1     1  UNL1       -0.1908
     25 C         -64.8474  -44.1629  -19.5416 C.1     1  UNL1        0.1005
     26 N         -64.9364  -45.2920  -19.7792 N.1     1  UNL1       -0.1908
     27 C         -61.6704  -43.2481  -28.7262 C.1     1  UNL1       -0.0597
     28 C         -61.4908  -43.3452  -29.9143 C.1     1  UNL1       -0.0598
     29 C         -61.2729  -43.4595  -31.3365 C.ar    1  UNL1        0.0459
     30 C         -62.2550  -42.9623  -32.2048 C.ar    1  UNL1        0.0082
     31 C         -62.0855  -43.0518  -33.5870 C.ar    1  UNL1        0.0006
     32 C         -60.9348  -43.6382  -34.1130 C.ar    1  UNL1       -0.0000
     33 C         -59.9479  -44.1380  -33.2597 C.ar    1  UNL1        0.0045
     34 C         -60.0997  -44.0573  -31.8605 C.ar    1  UNL1        0.0791
     35 C         -59.0252  -44.6015  -30.9401 C.3     1  UNL1        0.4191
     36 F         -57.8008  -44.5622  -31.5825 F       1  UNL1       -0.1658
     37 F         -58.9268  -43.8663  -29.7712 F       1  UNL1       -0.1658
     38 F         -59.3204  -45.9110  -30.6061 F       1  UNL1       -0.1658
@<TRIPOS>BOND
     1     1     2    1
     2     2     3    1
     3     2     4    1
     4     4     5    1
     5     5     6   ar
     6     6     7   ar
     7     7    27    1
     8    27    28    3
     9    28    29    1
    10    29    30   ar
    11    30    31   ar
    12    31    32   ar
    13    32    33   ar
    14    33    34   ar
    15    34    35    1
    16    35    36    1
    17    35    37    1
    18    35    38    1
    19     7     8   ar
    20     8     9   ar
    21     9    10   ar
    22    10    11    1
    23    11    12   ar
    24    12    13   ar
    25    13    17    1
    26    17    18   ar
    27    18    23    1
    28    23    24    3
    29    18    19   ar
    30    19    20   ar
    31    20    21   ar
    32    21    22   ar
    33    22    25    1
    34    25    26    3
    35    13    14   ar
    36    14    15   ar
    37    15     2    1
    38    10     5   ar
    39    15    11   ar
    40    34    29   ar
    41    22    17   ar
    42    14    16    1
@<TRIPOS>MOLECULE
*****
 38 42 0 0 0
SMALL
GASTEIGER

@<TRIPOS>ATOM
      1 C         -59.2373  -45.4132  -22.0528 C.3     1  UNL1        0.0498
      2 C         -60.6071  -45.7032  -22.6771 C.3     1  UNL1        0.1673
      3 C         -61.1014  -47.0896  -22.2488 C.3     1  UNL1        0.0498
      4 O         -60.4633  -45.6969  -24.1149 O.3     1  UNL1       -0.4770
      5 C         -60.9987  -44.7228  -24.9840 C.ar    1  UNL1        0.1407
      6 C         -60.6940  -44.7692  -26.3484 C.ar    1  UNL1        0.0452
      7 C         -61.2263  -43.8104  -27.2220 C.ar    1  UNL1        0.0450
      8 C         -62.0685  -42.8037  -26.7291 C.ar    1  UNL1        0.0085
      9 C         -62.3807  -42.7537  -25.3669 C.ar    1  UNL1        0.0052
     10 C         -61.8462  -43.7119  -24.4963 C.ar    1  UNL1        0.0529
     11 C         -62.1376  -43.7250  -23.0668 C.ar    1  UNL1        0.1005
     12 N         -62.9326  -42.8796  -22.3847 N.ar    1  UNL1       -0.2271
     13 C         -62.8337  -43.3288  -21.1085 C.ar    1  UNL1        0.1417
     14 N         -62.0219  -44.4050  -20.9828 N.ar    1  UNL1       -0.3380
     15 C         -61.5927  -44.6484  -22.2301 C.ar    1  UNL1        0.0891
     16 H         -61.7888  -44.9374  -20.1154 H       1  UNL1        0.1672
     17 C         -63.5482  -42.6987  -19.9700 C.ar    1  UNL1        0.0531
     18 C         -63.0523  -41.5083  -19.3828 C.ar    1  UNL1        0.0720
     19 C         -63.7339  -40.9181  -18.3108 C.ar    1  UNL1        0.0104
     20 C         -64.8998  -41.4965  -17.8114 C.ar    1  UNL1        0.0014
     21 C         -65.3948  -42.6720  -18.3739 C.ar    1  UNL1        0.0104
     22 C         -64.7297  -43.2805  -19.4461 C.ar    1  UNL1        0.0720
     23 C         -61.8690  -40.8500  -19.8856 C.1     1  UNL1        0.1005
     24 N         -60.9207  -40.3225  -20.2882 N.1     1  UNL1       -0.1908
     25 C         -65.2515  -44.5289  -19.9517 C.1     1  UNL1        0.1005
     26 N         -65.6693  -45.5291  -20.3574 N.1     1  UNL1       -0.1908
     27 C         -60.9075  -43.8589  -28.6241 C.1     1  UNL1       -0.0597
     28 C         -60.6433  -43.8980  -29.7996 C.1     1  UNL1       -0.0598
     29 C         -60.3300  -43.9432  -31.2078 C.ar    1  UNL1        0.0459
     30 C         -59.1218  -44.5336  -31.6047 C.ar    1  UNL1        0.0082
     31 C         -58.7788  -44.5989  -32.9557 C.ar    1  UNL1        0.0006
     32 C         -59.6388  -44.0755  -33.9207 C.ar    1  UNL1       -0.0000
     33 C         -60.8459  -43.4843  -33.5397 C.ar    1  UNL1        0.0045
     34 C         -61.2111  -43.4083  -32.1802 C.ar    1  UNL1        0.0791
     35 C         -62.5223  -42.7654  -31.7734 C.3     1  UNL1        0.4191
     36 F         -63.1855  -42.3119  -32.8995 F       1  UNL1       -0.1658
     37 F         -63.3495  -43.6560  -31.1108 F       1  UNL1       -0.1658
     38 F         -62.2730  -41.6959  -30.9323 F       1  UNL1       -0.1658
@<TRIPOS>BOND
     1     1     2    1
     2     2     3    1
     3     2     4    1
     4     4     5    1
     5     5     6   ar
     6     6     7   ar
     7     7    27    1
     8    27    28    3
     9    28    29    1
    10    29    30   ar
    11    30    31   ar
    12    31    32   ar
    13    32    33   ar
    14    33    34   ar
    15    34    35    1
    16    35    36    1
    17    35    37    1
    18    35    38    1
    19     7     8   ar
    20     8     9   ar
    21     9    10   ar
    22    10    11    1
    23    11    12   ar
    24    12    13   ar
    25    13    17    1
    26    17    18   ar
    27    18    23    1
    28    23    24    3
    29    18    19   ar
    30    19    20   ar
    31    20    21   ar
    32    21    22   ar
    33    22    25    1
    34    25    26    3
    35    13    14   ar
    36    14    15   ar
    37    15     2    1
    38    10     5   ar
    39    15    11   ar
    40    34    29   ar
    41    22    17   ar
    42    14    16    1
@<TRIPOS>MOLECULE
*****
 38 42 0 0 0
SMALL
GASTEIGER

@<TRIPOS>ATOM
      1 C         -59.2439  -45.3821  -22.0471 C.3     1  UNL1        0.0498
      2 C         -60.6134  -45.6764  -22.6703 C.3     1  UNL1        0.1673
      3 C         -61.1055  -47.0621  -22.2370 C.3     1  UNL1        0.0498
      4 O         -60.4696  -45.6751  -24.1080 O.3     1  UNL1       -0.4770
      5 C         -61.0065  -44.7049  -24.9806 C.ar    1  UNL1        0.1407
      6 C         -60.7018  -44.7557  -26.3449 C.ar    1  UNL1        0.0452
      7 C         -61.2357  -43.8009  -27.2218 C.ar    1  UNL1        0.0450
      8 C         -62.0794  -42.7936  -26.7324 C.ar    1  UNL1        0.0085
      9 C         -62.3915  -42.7393  -25.3705 C.ar    1  UNL1        0.0052
     10 C         -61.8555  -43.6935  -24.4965 C.ar    1  UNL1        0.0529
     11 C         -62.1468  -43.7020  -23.0669 C.ar    1  UNL1        0.1005
     12 N         -62.9431  -42.8554  -22.3877 N.ar    1  UNL1       -0.2271
     13 C         -62.8435  -43.2999  -21.1100 C.ar    1  UNL1        0.1417
     14 N         -62.0300  -44.3744  -20.9805 N.ar    1  UNL1       -0.3380
     15 C         -61.6005  -44.6216  -22.2269 C.ar    1  UNL1        0.0891
     16 H         -61.7961  -44.9033  -20.1112 H       1  UNL1        0.1672
     17 C         -63.5589  -42.6669  -19.9736 C.ar    1  UNL1        0.0531
     18 C         -64.7314  -43.2609  -19.4444 C.ar    1  UNL1        0.0720
     19 C         -65.3990  -42.6590  -18.3700 C.ar    1  UNL1        0.0104
     20 C         -64.9199  -41.4728  -17.8164 C.ar    1  UNL1        0.0014
     21 C         -63.7721  -40.8729  -18.3322 C.ar    1  UNL1        0.0104
     22 C         -63.0882  -41.4561  -19.4067 C.ar    1  UNL1        0.0720
     23 C         -65.2488  -44.5077  -19.9583 C.1     1  UNL1        0.1005
     24 N         -65.6631  -45.5068  -20.3700 N.1     1  UNL1       -0.1908
     25 C         -61.9400  -40.7618  -19.9413 C.1     1  UNL1        0.1005
     26 N         -61.0199  -40.2059  -20.3702 N.1     1  UNL1       -0.1908
     27 C         -60.9168  -43.8539  -28.6237 C.1     1  UNL1       -0.0597
     28 C         -60.6508  -43.8951  -29.7988 C.1     1  UNL1       -0.0598
     29 C         -60.3337  -43.9413  -31.2061 C.ar    1  UNL1        0.0459
     30 C         -59.1245  -44.5320  -31.5994 C.ar    1  UNL1        0.0082
     31 C         -58.7779  -44.5982  -32.9494 C.ar    1  UNL1        0.0006
     32 C         -59.6353  -44.0755  -33.9170 C.ar    1  UNL1       -0.0000
     33 C         -60.8434  -43.4840  -33.5397 C.ar    1  UNL1        0.0045
     34 C         -61.2123  -43.4071  -32.1813 C.ar    1  UNL1        0.0791
     35 C         -62.5246  -42.7640  -31.7784 C.3     1  UNL1        0.4191
     36 F         -63.1864  -42.3145  -32.9069 F       1  UNL1       -0.1658
     37 F         -63.3521  -43.6532  -31.1143 F       1  UNL1       -0.1658
     38 F         -62.2774  -41.6917  -30.9403 F       1  UNL1       -0.1658
@<TRIPOS>BOND
     1     1     2    1
     2     2     3    1
     3     2     4    1
     4     4     5    1
     5     5     6   ar
     6     6     7   ar
     7     7    27    1
     8    27    28    3
     9    28    29    1
    10    29    30   ar
    11    30    31   ar
    12    31    32   ar
    13    32    33   ar
    14    33    34   ar
    15    34    35    1
    16    35    36    1
    17    35    37    1
    18    35    38    1
    19     7     8   ar
    20     8     9   ar
    21     9    10   ar
    22    10    11    1
    23    11    12   ar
    24    12    13   ar
    25    13    17    1
    26    17    18   ar
    27    18    23    1
    28    23    24    3
    29    18    19   ar
    30    19    20   ar
    31    20    21   ar
    32    21    22   ar
    33    22    25    1
    34    25    26    3
    35    13    14   ar
    36    14    15   ar
    37    15     2    1
    38    10     5   ar
    39    15    11   ar
    40    34    29   ar
    41    22    17   ar
    42    14    16    1
@<TRIPOS>MOLECULE
*****
 38 42 0 0 0
SMALL
GASTEIGER

@<TRIPOS>ATOM
      1 C         -61.8402  -47.3551  -27.3370 C.3     1  UNL1        0.0498
      2 C         -60.9327  -46.1374  -27.1264 C.3     1  UNL1        0.1673
      3 C         -59.4610  -46.5662  -27.1345 C.3     1  UNL1        0.0498
      4 O         -61.2313  -45.5646  -25.8339 O.3     1  UNL1       -0.4770
      5 C         -61.8580  -44.3189  -25.6189 C.ar    1  UNL1        0.1407
      6 C         -62.1922  -43.9268  -24.3184 C.ar    1  UNL1        0.0452
      7 C         -62.8087  -42.6879  -24.0927 C.ar    1  UNL1        0.0450
      8 C         -63.0890  -41.8375  -25.1715 C.ar    1  UNL1        0.0085
      9 C         -62.7538  -42.2212  -26.4738 C.ar    1  UNL1        0.0052
     10 C         -62.1395  -43.4600  -26.6964 C.ar    1  UNL1        0.0529
     11 C         -61.7543  -43.9189  -28.0266 C.ar    1  UNL1        0.1005
     12 N         -61.9009  -43.2644  -29.1938 N.ar    1  UNL1       -0.2271
     13 C         -61.3996  -44.1398  -30.1008 C.ar    1  UNL1        0.1417
     14 N         -60.9539  -45.2900  -29.5428 N.ar    1  UNL1       -0.3380
     15 C         -61.1792  -45.1346  -28.2297 C.ar    1  UNL1        0.0891
     16 H         -60.5200  -46.1109  -30.0203 H       1  UNL1        0.1672
     17 C         -61.3475  -43.8567  -31.5571 C.ar    1  UNL1        0.0531
     18 C         -62.4816  -43.3344  -32.2269 C.ar    1  UNL1        0.0720
     19 C         -62.4235  -43.0670  -33.6008 C.ar    1  UNL1        0.0104
     20 C         -61.2551  -43.3149  -34.3193 C.ar    1  UNL1        0.0014
     21 C         -60.1342  -43.8363  -33.6751 C.ar    1  UNL1        0.0104
     22 C         -60.1691  -44.1123  -32.3021 C.ar    1  UNL1        0.0720
     23 C         -63.7042  -43.0265  -31.5221 C.1     1  UNL1        0.1005
     24 N         -64.6838  -42.7800  -30.9571 N.1     1  UNL1       -0.1908
     25 C         -59.0007  -44.7079  -31.6967 C.1     1  UNL1        0.1005
     26 N         -58.0645  -45.1855  -31.2121 N.1     1  UNL1       -0.1908
     27 C         -63.1547  -42.2899  -22.7542 C.1     1  UNL1       -0.0597
     28 C         -63.4477  -41.9553  -21.6337 C.1     1  UNL1       -0.0598
     29 C         -63.8017  -41.5537  -20.2934 C.ar    1  UNL1        0.0459
     30 C         -63.4496  -40.2652  -19.8672 C.ar    1  UNL1        0.0082
     31 C         -63.7720  -39.8353  -18.5794 C.ar    1  UNL1        0.0006
     32 C         -64.4483  -40.6878  -17.7074 C.ar    1  UNL1       -0.0000
     33 C         -64.8055  -41.9744  -18.1185 C.ar    1  UNL1        0.0045
     34 C         -64.4892  -42.4280  -19.4152 C.ar    1  UNL1        0.0791
     35 C         -64.8795  -43.8251  -19.8551 C.3     1  UNL1        0.4191
     36 F         -65.8496  -43.7478  -20.8381 F       1  UNL1       -0.1658
     37 F         -63.7996  -44.5260  -20.3642 F       1  UNL1       -0.1658
     38 F         -65.3832  -44.5276  -18.7752 F       1  UNL1       -0.1658
@<TRIPOS>BOND
     1     1     2    1
     2     2     3    1
     3     2     4    1
     4     4     5    1
     5     5     6   ar
     6     6     7   ar
     7     7    27    1
     8    27    28    3
     9    28    29    1
    10    29    30   ar
    11    30    31   ar
    12    31    32   ar
    13    32    33   ar
    14    33    34   ar
    15    34    35    1
    16    35    36    1
    17    35    37    1
    18    35    38    1
    19     7     8   ar
    20     8     9   ar
    21     9    10   ar
    22    10    11    1
    23    11    12   ar
    24    12    13   ar
    25    13    17    1
    26    17    18   ar
    27    18    23    1
    28    23    24    3
    29    18    19   ar
    30    19    20   ar
    31    20    21   ar
    32    21    22   ar
    33    22    25    1
    34    25    26    3
    35    13    14   ar
    36    14    15   ar
    37    15     2    1
    38    10     5   ar
    39    15    11   ar
    40    34    29   ar
    41    22    17   ar
    42    14    16    1
@<TRIPOS>MOLECULE
*****
 38 42 0 0 0
SMALL
GASTEIGER

@<TRIPOS>ATOM
      1 C         -61.7884  -47.3655  -27.3353 C.3     1  UNL1        0.0498
      2 C         -60.8885  -46.1424  -27.1237 C.3     1  UNL1        0.1673
      3 C         -59.4142  -46.5621  -27.1318 C.3     1  UNL1        0.0498
      4 O         -61.1908  -45.5723  -25.8309 O.3     1  UNL1       -0.4770
      5 C         -61.8253  -44.3306  -25.6151 C.ar    1  UNL1        0.1407
      6 C         -62.1622  -43.9415  -24.3144 C.ar    1  UNL1        0.0452
      7 C         -62.7863  -42.7066  -24.0880 C.ar    1  UNL1        0.0450
      8 C         -63.0716  -41.8571  -25.1663 C.ar    1  UNL1        0.0085
      9 C         -62.7338  -42.2379  -26.4687 C.ar    1  UNL1        0.0052
     10 C         -62.1119  -43.4728  -26.6921 C.ar    1  UNL1        0.0529
     11 C         -61.7236  -43.9284  -28.0226 C.ar    1  UNL1        0.1005
     12 N         -61.8741  -43.2740  -29.1893 N.ar    1  UNL1       -0.2271
     13 C         -61.3672  -44.1457  -30.0968 C.ar    1  UNL1        0.1417
     14 N         -60.9145  -45.2935  -29.5395 N.ar    1  UNL1       -0.3380
     15 C         -61.1410  -45.1404  -28.2263 C.ar    1  UNL1        0.0891
     16 H         -60.4755  -46.1114  -30.0175 H       1  UNL1        0.1672
     17 C         -61.3166  -43.8613  -31.5530 C.ar    1  UNL1        0.0531
     18 C         -60.1381  -44.1247  -32.2942 C.ar    1  UNL1        0.0720
     19 C         -60.0992  -43.8565  -33.6686 C.ar    1  UNL1        0.0104
     20 C         -61.2141  -43.3267  -34.3161 C.ar    1  UNL1        0.0014
     21 C         -62.3776  -43.0549  -33.5980 C.ar    1  UNL1        0.0104
     22 C         -62.4395  -43.3142  -32.2227 C.ar    1  UNL1        0.0720
     23 C         -58.9682  -44.7065  -31.6783 C.1     1  UNL1        0.1005
     24 N         -58.0310  -45.1725  -31.1845 N.1     1  UNL1       -0.1908
     25 C         -63.6476  -42.9578  -31.5157 C.1     1  UNL1        0.1005
     26 N         -64.6157  -42.6730  -30.9491 N.1     1  UNL1       -0.1908
     27 C         -63.1350  -42.3116  -22.7493 C.1     1  UNL1       -0.0597
     28 C         -63.4300  -41.9790  -21.6287 C.1     1  UNL1       -0.0598
     29 C         -63.7860  -41.5792  -20.2884 C.ar    1  UNL1        0.0459
     30 C         -63.4187  -40.2978  -19.8538 C.ar    1  UNL1        0.0082
     31 C         -63.7425  -39.8698  -18.5657 C.ar    1  UNL1        0.0006
     32 C         -64.4353  -40.7173  -17.7018 C.ar    1  UNL1       -0.0000
     33 C         -64.8078  -41.9968  -18.1213 C.ar    1  UNL1        0.0045
     34 C         -64.4904  -42.4483  -19.4185 C.ar    1  UNL1        0.0791
     35 C         -64.8973  -43.8378  -19.8676 C.3     1  UNL1        0.4191
     36 F         -65.8571  -43.7422  -20.8591 F       1  UNL1       -0.1658
     37 F         -63.8232  -44.5526  -20.3695 F       1  UNL1       -0.1658
     38 F         -65.4213  -44.5368  -18.7951 F       1  UNL1       -0.1658
@<TRIPOS>BOND
     1     1     2    1
     2     2     3    1
     3     2     4    1
     4     4     5    1
     5     5     6   ar
     6     6     7   ar
     7     7    27    1
     8    27    28    3
     9    28    29    1
    10    29    30   ar
    11    30    31   ar
    12    31    32   ar
    13    32    33   ar
    14    33    34   ar
    15    34    35    1
    16    35    36    1
    17    35    37    1
    18    35    38    1
    19     7     8   ar
    20     8     9   ar
    21     9    10   ar
    22    10    11    1
    23    11    12   ar
    24    12    13   ar
    25    13    17    1
    26    17    18   ar
    27    18    23    1
    28    23    24    3
    29    18    19   ar
    30    19    20   ar
    31    20    21   ar
    32    21    22   ar
    33    22    25    1
    34    25    26    3
    35    13    14   ar
    36    14    15   ar
    37    15     2    1
    38    10     5   ar
    39    15    11   ar
    40    34    29   ar
    41    22    17   ar
    42    14    16    1
@<TRIPOS>MOLECULE
*****
 38 42 0 0 0
SMALL
GASTEIGER

@<TRIPOS>ATOM
      1 C         -61.6331  -47.3885  -27.5522 C.3     1  UNL1        0.0498
      2 C         -60.7512  -46.1512  -27.3478 C.3     1  UNL1        0.1673
      3 C         -59.2705  -46.5476  -27.3658 C.3     1  UNL1        0.0498
      4 O         -61.0536  -45.5847  -26.0534 O.3     1  UNL1       -0.4770
      5 C         -61.7060  -44.3530  -25.8343 C.ar    1  UNL1        0.1407
      6 C         -62.0401  -43.9680  -24.5316 C.ar    1  UNL1        0.0452
      7 C         -62.6820  -42.7429  -24.3019 C.ar    1  UNL1        0.0450
      8 C         -62.9881  -41.8991  -25.3790 C.ar    1  UNL1        0.0085
      9 C         -62.6533  -42.2756  -26.6834 C.ar    1  UNL1        0.0052
     10 C         -62.0135  -43.5008  -26.9100 C.ar    1  UNL1        0.0529
     11 C         -61.6272  -43.9515  -28.2427 C.ar    1  UNL1        0.1005
     12 N         -61.7960  -43.3006  -29.4090 N.ar    1  UNL1       -0.2271
     13 C         -61.2817  -44.1650  -30.3192 C.ar    1  UNL1        0.1417
     14 N         -60.8071  -45.3050  -29.7641 N.ar    1  UNL1       -0.3380
     15 C         -61.0270  -45.1543  -28.4495 C.ar    1  UNL1        0.0891
     16 H         -60.3586  -46.1163  -30.2444 H       1  UNL1        0.1672
     17 C         -61.2455  -43.8812  -31.7759 C.ar    1  UNL1        0.0531
     18 C         -62.4038  -43.4122  -32.4438 C.ar    1  UNL1        0.0720
     19 C         -62.3608  -43.1438  -33.8180 C.ar    1  UNL1        0.0104
     20 C         -61.1836  -43.3384  -34.5387 C.ar    1  UNL1        0.0014
     21 C         -60.0386  -43.8071  -33.8963 C.ar    1  UNL1        0.0104
     22 C         -60.0581  -44.0830  -32.5230 C.ar    1  UNL1        0.0720
     23 C         -63.6379  -43.1602  -31.7367 C.1     1  UNL1        0.1005
     24 N         -64.6265  -42.9581  -31.1700 N.1     1  UNL1       -0.1908
     25 C         -58.8624  -44.6237  -31.9195 C.1     1  UNL1        0.1005
     26 N         -57.9041  -45.0571  -31.4365 N.1     1  UNL1       -0.1908
     27 C         -63.0277  -42.3522  -22.9612 C.1     1  UNL1       -0.0597
     28 C         -63.3204  -42.0237  -21.8389 C.1     1  UNL1       -0.0598
     29 C         -63.6739  -41.6290  -20.4963 C.ar    1  UNL1        0.0459
     30 C         -64.2224  -42.5934  -19.6391 C.ar    1  UNL1        0.0082
     31 C         -64.5785  -42.2556  -18.3329 C.ar    1  UNL1        0.0006
     32 C         -64.3900  -40.9529  -17.8724 C.ar    1  UNL1       -0.0000
     33 C         -63.8445  -39.9816  -18.7155 C.ar    1  UNL1        0.0045
     34 C         -63.4781  -40.3023  -20.0384 C.ar    1  UNL1        0.0791
     35 C         -62.8868  -39.2437  -20.9482 C.3     1  UNL1        0.4191
     36 F         -61.5411  -39.4983  -21.1426 F       1  UNL1       -0.1658
     37 F         -63.5082  -39.2213  -22.1850 F       1  UNL1       -0.1658
     38 F         -63.0330  -37.9975  -20.3659 F       1  UNL1       -0.1658
@<TRIPOS>BOND
     1     1     2    1
     2     2     3    1
     3     2     4    1
     4     4     5    1
     5     5     6   ar
     6     6     7   ar
     7     7    27    1
     8    27    28    3
     9    28    29    1
    10    29    30   ar
    11    30    31   ar
    12    31    32   ar
    13    32    33   ar
    14    33    34   ar
    15    34    35    1
    16    35    36    1
    17    35    37    1
    18    35    38    1
    19     7     8   ar
    20     8     9   ar
    21     9    10   ar
    22    10    11    1
    23    11    12   ar
    24    12    13   ar
    25    13    17    1
    26    17    18   ar
    27    18    23    1
    28    23    24    3
    29    18    19   ar
    30    19    20   ar
    31    20    21   ar
    32    21    22   ar
    33    22    25    1
    34    25    26    3
    35    13    14   ar
    36    14    15   ar
    37    15     2    1
    38    10     5   ar
    39    15    11   ar
    40    34    29   ar
    41    22    17   ar
    42    14    16    1
@<TRIPOS>MOLECULE
*****
 38 42 0 0 0
SMALL
GASTEIGER

@<TRIPOS>ATOM
      1 C         -67.1138  -41.0412  -24.8417 C.3     1  UNL1        0.0498
      2 C         -65.7339  -40.3868  -24.7079 C.3     1  UNL1        0.1673
      3 C         -65.8730  -38.8607  -24.6705 C.3     1  UNL1        0.0498
      4 O         -64.9466  -40.7425  -25.8661 O.3     1  UNL1       -0.4770
      5 C         -63.8229  -41.5957  -25.8580 C.ar    1  UNL1        0.1407
      6 C         -63.2132  -41.9500  -27.0661 C.ar    1  UNL1        0.0452
      7 C         -62.0917  -42.7914  -27.0689 C.ar    1  UNL1        0.0450
      8 C         -61.5770  -43.2776  -25.8587 C.ar    1  UNL1        0.0085
      9 C         -62.1789  -42.9242  -24.6471 C.ar    1  UNL1        0.0052
     10 C         -63.3001  -42.0848  -24.6474 C.ar    1  UNL1        0.0529
     11 C         -63.9711  -41.6685  -23.4206 C.ar    1  UNL1        0.1005
     12 N         -63.6391  -41.9883  -22.1558 N.ar    1  UNL1       -0.2271
     13 C         -64.5900  -41.3588  -21.4212 C.ar    1  UNL1        0.1417
     14 N         -65.4794  -40.6714  -22.1758 N.ar    1  UNL1       -0.3380
     15 C         -65.0729  -40.8713  -23.4383 C.ar    1  UNL1        0.0891
     16 H         -66.2927  -40.1018  -21.8528 H       1  UNL1        0.1672
     17 C         -64.6423  -41.4213  -19.9389 C.ar    1  UNL1        0.0531
     18 C         -64.2321  -40.3113  -19.1596 C.ar    1  UNL1        0.0720
     19 C         -64.2874  -40.3770  -17.7615 C.ar    1  UNL1        0.0104
     20 C         -64.7410  -41.5320  -17.1265 C.ar    1  UNL1        0.0014
     21 C         -65.1401  -42.6347  -17.8802 C.ar    1  UNL1        0.0104
     22 C         -65.0928  -42.5923  -19.2797 C.ar    1  UNL1        0.0720
     23 C         -63.7880  -39.0791  -19.7687 C.1     1  UNL1        0.1005
     24 N         -63.4320  -38.0918  -20.2565 N.1     1  UNL1       -0.1908
     25 C         -65.4601  -43.7829  -20.0104 C.1     1  UNL1        0.1005
     26 N         -65.7541  -44.7366  -20.5964 N.1     1  UNL1       -0.1908
     27 C         -61.4697  -43.1569  -28.3136 C.1     1  UNL1       -0.0597
     28 C         -60.9510  -43.4614  -29.3583 C.1     1  UNL1       -0.0598
     29 C         -60.3325  -43.8244  -30.6108 C.ar    1  UNL1        0.0459
     30 C         -59.0713  -44.4362  -30.5806 C.ar    1  UNL1        0.0082
     31 C         -58.4367  -44.8038  -31.7677 C.ar    1  UNL1        0.0006
     32 C         -59.0559  -44.5637  -32.9939 C.ar    1  UNL1       -0.0000
     33 C         -60.3125  -43.9549  -33.0393 C.ar    1  UNL1        0.0045
     34 C         -60.9706  -43.5759  -31.8515 C.ar    1  UNL1        0.0791
     35 C         -62.3339  -42.9156  -31.9076 C.3     1  UNL1        0.4191
     36 F         -63.2764  -43.7479  -31.3309 F       1  UNL1       -0.1658
     37 F         -62.3497  -41.7072  -31.2324 F       1  UNL1       -0.1658
     38 F         -62.6818  -42.6813  -33.2258 F       1  UNL1       -0.1658
@<TRIPOS>BOND
     1     1     2    1
     2     2     3    1
     3     2     4    1
     4     4     5    1
     5     5     6   ar
     6     6     7   ar
     7     7    27    1
     8    27    28    3
     9    28    29    1
    10    29    30   ar
    11    30    31   ar
    12    31    32   ar
    13    32    33   ar
    14    33    34   ar
    15    34    35    1
    16    35    36    1
    17    35    37    1
    18    35    38    1
    19     7     8   ar
    20     8     9   ar
    21     9    10   ar
    22    10    11    1
    23    11    12   ar
    24    12    13   ar
    25    13    17    1
    26    17    18   ar
    27    18    23    1
    28    23    24    3
    29    18    19   ar
    30    19    20   ar
    31    20    21   ar
    32    21    22   ar
    33    22    25    1
    34    25    26    3
    35    13    14   ar
    36    14    15   ar
    37    15     2    1
    38    10     5   ar
    39    15    11   ar
    40    34    29   ar
    41    22    17   ar
    42    14    16    1
@<TRIPOS>MOLECULE
*****
 38 42 0 0 0
SMALL
GASTEIGER

@<TRIPOS>ATOM
      1 C         -61.6019  -47.3924  -27.5558 C.3     1  UNL1        0.0498
      2 C         -60.7274  -46.1498  -27.3515 C.3     1  UNL1        0.1673
      3 C         -59.2444  -46.5371  -27.3703 C.3     1  UNL1        0.0498
      4 O         -61.0327  -45.5854  -26.0569 O.3     1  UNL1       -0.4770
      5 C         -61.6925  -44.3577  -25.8372 C.ar    1  UNL1        0.1407
      6 C         -62.0283  -43.9751  -24.5343 C.ar    1  UNL1        0.0452
      7 C         -62.6776  -42.7540  -24.3040 C.ar    1  UNL1        0.0450
      8 C         -62.9894  -41.9118  -25.3807 C.ar    1  UNL1        0.0085
      9 C         -62.6529  -42.2861  -26.6854 C.ar    1  UNL1        0.0052
     10 C         -62.0057  -43.5072  -26.9126 C.ar    1  UNL1        0.0529
     11 C         -61.6174  -43.9553  -28.2456 C.ar    1  UNL1        0.1005
     12 N         -61.7907  -43.3052  -29.4116 N.ar    1  UNL1       -0.2271
     13 C         -61.2716  -44.1662  -30.3223 C.ar    1  UNL1        0.1417
     14 N         -60.7898  -45.3034  -29.7676 N.ar    1  UNL1       -0.3380
     15 C         -61.0099  -45.1543  -28.4529 C.ar    1  UNL1        0.0891
     16 H         -60.3365  -46.1119  -30.2483 H       1  UNL1        0.1672
     17 C         -61.2379  -43.8819  -31.7789 C.ar    1  UNL1        0.0531
     18 C         -60.0526  -44.0988  -32.5244 C.ar    1  UNL1        0.0720
     19 C         -60.0297  -43.8310  -33.8992 C.ar    1  UNL1        0.0104
     20 C         -61.1674  -43.3472  -34.5431 C.ar    1  UNL1        0.0014
     21 C         -62.3381  -43.1214  -33.8208 C.ar    1  UNL1        0.0104
     22 C         -62.3844  -43.3812  -32.4450 C.ar    1  UNL1        0.0720
     23 C         -58.8580  -44.6324  -31.9123 C.1     1  UNL1        0.1005
     24 N         -57.9011  -45.0601  -31.4216 N.1     1  UNL1       -0.1908
     25 C         -63.6031  -43.0727  -31.7337 C.1     1  UNL1        0.1005
     26 N         -64.5799  -42.8252  -31.1644 N.1     1  UNL1       -0.1908
     27 C         -63.0250  -42.3657  -22.9630 C.1     1  UNL1       -0.0597
     28 C         -63.3185  -42.0381  -21.8406 C.1     1  UNL1       -0.0598
     29 C         -63.6721  -41.6436  -20.4980 C.ar    1  UNL1        0.0459
     30 C         -64.2249  -42.6069  -19.6424 C.ar    1  UNL1        0.0082
     31 C         -64.5813  -42.2692  -18.3362 C.ar    1  UNL1        0.0006
     32 C         -64.3887  -40.9676  -17.8742 C.ar    1  UNL1       -0.0000
     33 C         -63.8389  -39.9973  -18.7157 C.ar    1  UNL1        0.0045
     34 C         -63.4721  -40.3180  -20.0386 C.ar    1  UNL1        0.0791
     35 C         -62.8760  -39.2606  -20.9466 C.3     1  UNL1        0.4191
     36 F         -61.5294  -39.5155  -21.1337 F       1  UNL1       -0.1658
     37 F         -63.4910  -39.2398  -22.1867 F       1  UNL1       -0.1658
     38 F         -63.0253  -38.0137  -20.3667 F       1  UNL1       -0.1658
@<TRIPOS>BOND
     1     1     2    1
     2     2     3    1
     3     2     4    1
     4     4     5    1
     5     5     6   ar
     6     6     7   ar
     7     7    27    1
     8    27    28    3
     9    28    29    1
    10    29    30   ar
    11    30    31   ar
    12    31    32   ar
    13    32    33   ar
    14    33    34   ar
    15    34    35    1
    16    35    36    1
    17    35    37    1
    18    35    38    1
    19     7     8   ar
    20     8     9   ar
    21     9    10   ar
    22    10    11    1
    23    11    12   ar
    24    12    13   ar
    25    13    17    1
    26    17    18   ar
    27    18    23    1
    28    23    24    3
    29    18    19   ar
    30    19    20   ar
    31    20    21   ar
    32    21    22   ar
    33    22    25    1
    34    25    26    3
    35    13    14   ar
    36    14    15   ar
    37    15     2    1
    38    10     5   ar
    39    15    11   ar
    40    34    29   ar
    41    22    17   ar
    42    14    16    1
