@<TRIPOS>MOLECULE
*****
 45 50 0 0 0
SMALL
GASTEIGER

@<TRIPOS>ATOM
      1 C          61.4019   85.2925   12.6662 C.ar    1  UNL1        0.0702
      2 C          61.1623   84.9597   11.3280 C.ar    1  UNL1        0.0191
      3 C          60.3386   83.8795   11.0083 C.ar    1  UNL1        0.0356
      4 C          59.7757   83.1103   12.0387 C.ar    1  UNL1        0.1318
      5 N          60.0324   83.4445   13.3339 N.ar    1  UNL1       -0.2279
      6 C          60.8270   84.4954   13.6686 C.ar    1  UNL1        0.1149
      7 N          58.9001   82.0042   11.7500 N.pl3   1  UNL1       -0.2932
      8 C          58.3791   81.1333   12.8121 C.3     1  UNL1        0.0923
      9 C          58.6814   79.6584   12.4981 C.3     1  UNL1        0.0252
     10 C          58.6441   79.3242   10.9790 C.3     1  UNL1        0.0472
     11 C          57.8511   80.3869   10.1828 C.3     1  UNL1        0.0252
     12 C          58.4461   81.7926   10.3685 C.3     1  UNL1        0.0923
     13 C          60.0683   79.1331   10.4210 C.3     1  UNL1        0.2054
     14 O          61.0302   79.2776   11.4640 O.3     1  UNL1       -0.4755
     15 C          61.9673   80.3182   11.5408 C.ar    1  UNL1        0.1388
     16 C          62.5418   80.9018   10.3971 C.ar    1  UNL1        0.0369
     17 C          63.4753   81.9312   10.5291 C.ar    1  UNL1        0.0033
     18 C          63.8412   82.3932   11.7955 C.ar    1  UNL1        0.0066
     19 C          63.2693   81.8307   12.9504 C.ar    1  UNL1        0.0785
     20 C          62.3380   80.7852   12.8077 C.ar    1  UNL1        0.0433
     21 C          63.6491   82.3047   14.3038 C.2     1  UNL1        0.3381
     22 O          64.3274   83.3589   14.4292 O.2     1  UNL1       -0.2451
     23 O          63.2887   81.6057   15.4555 O.3     1  UNL1       -0.4771
     24 H          62.8354   80.7019   15.4258 H       1  UNL1        0.2954
     25 C          62.0534   87.7439   12.5271 C.2     1  UNL1        0.2839
     26 O          61.0140   88.0427   11.8807 O.2     1  UNL1       -0.2665
     27 N          62.2700   86.3949   12.9772 N.am    1  UNL1       -0.2766
     28 H          63.1365   86.1782   13.5160 H       1  UNL1        0.1553
     29 C          64.2527   87.8091   14.9022 C.3     1  UNL1        0.0345
     30 C          63.9608   88.8512   13.8655 C.ar    1  UNL1        0.0202
     31 C          63.0218   88.8127   12.8271 C.ar    1  UNL1        0.1946
     32 O          63.1209   89.9036   12.0879 O.2     1  UNL1       -0.4492
     33 C          64.0578   90.6586   12.6075 C.ar    1  UNL1        0.1452
     34 C          64.4914   91.9000   12.1556 C.ar    1  UNL1        0.0375
     35 C          65.5209   92.5392   12.8685 C.ar    1  UNL1        0.0031
     36 C          66.0991   91.9310   14.0160 C.ar    1  UNL1        0.0002
     37 C          65.6283   90.6656   14.4416 C.ar    1  UNL1        0.0028
     38 C          64.6047   90.0623   13.7109 C.ar    1  UNL1        0.0337
     39 C          67.1861   92.6153   14.7614 C.ar    1  UNL1        0.0001
     40 C          68.1167   91.8725   15.5125 C.ar    1  UNL1        0.0023
     41 C          69.1384   92.5194   16.2143 C.ar    1  UNL1        0.0296
     42 C          69.2440   93.9118   16.1744 C.ar    1  UNL1        0.1401
     43 F          70.2359   94.5367   16.8554 F       1  UNL1       -0.2042
     44 C          68.3268   94.6599   15.4324 C.ar    1  UNL1        0.0296
     45 C          67.3026   94.0180   14.7296 C.ar    1  UNL1        0.0023
@<TRIPOS>BOND
     1    29    30    1
     2    30    31   ar
     3    31    25    1
     4    25    26    2
     5    25    27   am
     6    27     1    1
     7     1     2   ar
     8     2     3   ar
     9     3     4   ar
    10     4     7    1
    11     7     8    1
    12     8     9    1
    13     9    10    1
    14    10    13    1
    15    13    14    1
    16    14    15    1
    17    15    16   ar
    18    16    17   ar
    19    17    18   ar
    20    18    19   ar
    21    19    21    1
    22    21    22    2
    23    21    23    1
    24    19    20   ar
    25    10    11    1
    26    11    12    1
    27     4     5   ar
    28     5     6   ar
    29    31    32   ar
    30    32    33   ar
    31    33    34   ar
    32    34    35   ar
    33    35    36   ar
    34    36    39    1
    35    39    40   ar
    36    40    41   ar
    37    41    42   ar
    38    42    43    1
    39    42    44   ar
    40    44    45   ar
    41    36    37   ar
    42    37    38   ar
    43    38    30   ar
    44     6     1   ar
    45    38    33   ar
    46    12     7    1
    47    45    39   ar
    48    20    15   ar
    49    27    28    1
    50    23    24    1
@<TRIPOS>MOLECULE
*****
 45 50 0 0 0
SMALL
GASTEIGER

@<TRIPOS>ATOM
      1 C          61.4386   85.2885   12.6925 C.ar    1  UNL1        0.0702
      2 C          61.0160   85.0905   11.3730 C.ar    1  UNL1        0.0191
      3 C          60.1800   84.0193   11.0553 C.ar    1  UNL1        0.0356
      4 C          59.7896   83.1239   12.0633 C.ar    1  UNL1        0.1318
      5 N          60.2228   83.3285   13.3384 N.ar    1  UNL1       -0.2279
      6 C          61.0329   84.3680   13.6717 C.ar    1  UNL1        0.1149
      7 N          58.9073   82.0217   11.7806 N.pl3   1  UNL1       -0.2932
      8 C          58.3706   81.1676   12.8485 C.3     1  UNL1        0.0923
      9 C          58.6633   79.6867   12.5543 C.3     1  UNL1        0.0252
     10 C          58.6353   79.3350   11.0389 C.3     1  UNL1        0.0472
     11 C          57.8575   80.3947   10.2239 C.3     1  UNL1        0.0252
     12 C          58.4625   81.7976   10.3980 C.3     1  UNL1        0.0923
     13 C          60.0623   79.1258   10.4947 C.3     1  UNL1        0.2054
     14 O          60.9868   78.9937   11.5725 O.3     1  UNL1       -0.4755
     15 C          61.8822   79.9944   11.9772 C.ar    1  UNL1        0.1388
     16 C          62.2698   80.1620   13.3190 C.ar    1  UNL1        0.0369
     17 C          63.1598   81.1786   13.6699 C.ar    1  UNL1        0.0033
     18 C          63.6762   82.0322   12.6922 C.ar    1  UNL1        0.0066
     19 C          63.3099   81.8733   11.3439 C.ar    1  UNL1        0.0785
     20 C          62.4029   80.8532   11.0015 C.ar    1  UNL1        0.0433
     21 C          63.8440   82.7732   10.2924 C.2     1  UNL1        0.3381
     22 O          65.0692   83.0665   10.2841 O.2     1  UNL1       -0.2451
     23 O          63.0224   83.3240    9.3095 O.3     1  UNL1       -0.4771
     24 H          62.0166   83.2157    9.3153 H       1  UNL1        0.2954
     25 C          62.0440   87.7553   12.6583 C.2     1  UNL1        0.2839
     26 O          60.9475   88.0759   12.1268 O.2     1  UNL1       -0.2665
     27 N          62.3168   86.3844   12.9979 N.am    1  UNL1       -0.2766
     28 H          63.2305   86.1495   13.4431 H       1  UNL1        0.1553
     29 C          64.2524   87.8327   15.0245 C.3     1  UNL1        0.0345
     30 C          63.9646   88.8643   13.9762 C.ar    1  UNL1        0.0202
     31 C          63.0215   88.8203   12.9418 C.ar    1  UNL1        0.1946
     32 O          63.1262   89.9013   12.1889 O.2     1  UNL1       -0.4492
     33 C          64.0707   90.6554   12.6959 C.ar    1  UNL1        0.1452
     34 C          64.5120   91.8879   12.2273 C.ar    1  UNL1        0.0375
     35 C          65.5490   92.5278   12.9287 C.ar    1  UNL1        0.0031
     36 C          66.1268   91.9293   14.0814 C.ar    1  UNL1        0.0002
     37 C          65.6480   90.6729   14.5241 C.ar    1  UNL1        0.0028
     38 C          64.6171   90.0685   13.8046 C.ar    1  UNL1        0.0337
     39 C          67.2217   92.6143   14.8144 C.ar    1  UNL1        0.0001
     40 C          67.3235   94.0184   14.8005 C.ar    1  UNL1        0.0023
     41 C          68.3561   94.6607   15.4906 C.ar    1  UNL1        0.0296
     42 C          69.2966   93.9114   16.2017 C.ar    1  UNL1        0.1401
     43 F          70.2966   94.5367   16.8704 F       1  UNL1       -0.2042
     44 C          69.2061   92.5176   16.2233 C.ar    1  UNL1        0.0296
     45 C          68.1760   91.8703   15.5342 C.ar    1  UNL1        0.0023
@<TRIPOS>BOND
     1    29    30    1
     2    30    31   ar
     3    31    25    1
     4    25    26    2
     5    25    27   am
     6    27     1    1
     7     1     2   ar
     8     2     3   ar
     9     3     4   ar
    10     4     7    1
    11     7     8    1
    12     8     9    1
    13     9    10    1
    14    10    13    1
    15    13    14    1
    16    14    15    1
    17    15    16   ar
    18    16    17   ar
    19    17    18   ar
    20    18    19   ar
    21    19    21    1
    22    21    22    2
    23    21    23    1
    24    19    20   ar
    25    10    11    1
    26    11    12    1
    27     4     5   ar
    28     5     6   ar
    29    31    32   ar
    30    32    33   ar
    31    33    34   ar
    32    34    35   ar
    33    35    36   ar
    34    36    39    1
    35    39    40   ar
    36    40    41   ar
    37    41    42   ar
    38    42    43    1
    39    42    44   ar
    40    44    45   ar
    41    36    37   ar
    42    37    38   ar
    43    38    30   ar
    44     6     1   ar
    45    38    33   ar
    46    12     7    1
    47    45    39   ar
    48    20    15   ar
    49    27    28    1
    50    23    24    1
@<TRIPOS>MOLECULE
*****
 45 50 0 0 0
SMALL
GASTEIGER

@<TRIPOS>ATOM
      1 C          61.3756   84.9346   12.9882 C.ar    1  UNL1        0.0702
      2 C          61.4254   83.8263   13.8414 C.ar    1  UNL1        0.0191
      3 C          60.6078   82.7201   13.6065 C.ar    1  UNL1        0.0356
      4 C          59.7131   82.7386   12.5252 C.ar    1  UNL1        0.1318
      5 N          59.6722   83.8327   11.7149 N.ar    1  UNL1       -0.2279
      6 C          60.4630   84.9189   11.9215 C.ar    1  UNL1        0.1149
      7 N          58.8716   81.6069   12.2344 N.pl3   1  UNL1       -0.2932
      8 C          58.6366   80.5446   13.2215 C.3     1  UNL1        0.0923
      9 C          58.9647   79.1672   12.6212 C.3     1  UNL1        0.0252
     10 C          58.6403   79.0554   11.1037 C.3     1  UNL1        0.0472
     11 C          57.6335   80.1409   10.6564 C.3     1  UNL1        0.0252
     12 C          58.1602   81.5556   10.9496 C.3     1  UNL1        0.0923
     13 C          59.9301   79.0859   10.2601 C.3     1  UNL1        0.2054
     14 O          60.9961   79.6654   11.0096 O.3     1  UNL1       -0.4755
     15 C          61.6655   80.8457   10.6551 C.ar    1  UNL1        0.1388
     16 C          61.2881   81.6225    9.5447 C.ar    1  UNL1        0.0369
     17 C          61.9925   82.7862    9.2314 C.ar    1  UNL1        0.0033
     18 C          63.0719   83.1911   10.0200 C.ar    1  UNL1        0.0066
     19 C          63.4571   82.4344   11.1409 C.ar    1  UNL1        0.0785
     20 C          62.7486   81.2563   11.4419 C.ar    1  UNL1        0.0433
     21 C          64.6039   82.8457   11.9873 C.2     1  UNL1        0.3381
     22 O          64.6924   84.0386   12.3829 O.2     1  UNL1       -0.2451
     23 O          65.6074   81.9487   12.3519 O.3     1  UNL1       -0.4771
     24 H          65.6557   81.0063   11.9875 H       1  UNL1        0.2954
     25 C          61.9898   87.3829   12.7031 C.2     1  UNL1        0.2839
     26 O          60.9758   87.6137   11.9915 O.2     1  UNL1       -0.2665
     27 N          62.2091   86.0739   13.2577 N.am    1  UNL1       -0.2766
     28 H          63.0538   85.9138   13.8485 H       1  UNL1        0.1553
     29 C          64.2552   87.5473   15.0102 C.3     1  UNL1        0.0345
     30 C          63.8921   88.5711   13.9777 C.ar    1  UNL1        0.0202
     31 C          62.9246   88.4901   12.9684 C.ar    1  UNL1        0.1946
     32 O          62.9591   89.5795   12.2212 O.2     1  UNL1       -0.4492
     33 C          63.8813   90.3732   12.7085 C.ar    1  UNL1        0.1452
     34 C          64.2527   91.6276   12.2376 C.ar    1  UNL1        0.0375
     35 C          65.2777   92.3103   12.9160 C.ar    1  UNL1        0.0031
     36 C          65.9132   91.7319   14.0484 C.ar    1  UNL1        0.0002
     37 C          65.5048   90.4519   14.4942 C.ar    1  UNL1        0.0028
     38 C          64.4837   89.8052   13.7978 C.ar    1  UNL1        0.0337
     39 C          66.9947   92.4621   14.7572 C.ar    1  UNL1        0.0001
     40 C          67.9367   91.7652   15.5375 C.ar    1  UNL1        0.0023
     41 C          68.9534   92.4553   16.2048 C.ar    1  UNL1        0.0296
     42 C          69.0424   93.8456   16.1008 C.ar    1  UNL1        0.1401
     43 F          70.0294   94.5124   16.7484 F       1  UNL1       -0.2042
     44 C          68.1138   94.5483   15.3294 C.ar    1  UNL1        0.0296
     45 C          67.0947   93.8631   14.6609 C.ar    1  UNL1        0.0023
@<TRIPOS>BOND
     1    29    30    1
     2    30    31   ar
     3    31    25    1
     4    25    26    2
     5    25    27   am
     6    27     1    1
     7     1     2   ar
     8     2     3   ar
     9     3     4   ar
    10     4     7    1
    11     7     8    1
    12     8     9    1
    13     9    10    1
    14    10    13    1
    15    13    14    1
    16    14    15    1
    17    15    16   ar
    18    16    17   ar
    19    17    18   ar
    20    18    19   ar
    21    19    21    1
    22    21    22    2
    23    21    23    1
    24    19    20   ar
    25    10    11    1
    26    11    12    1
    27     4     5   ar
    28     5     6   ar
    29    31    32   ar
    30    32    33   ar
    31    33    34   ar
    32    34    35   ar
    33    35    36   ar
    34    36    39    1
    35    39    40   ar
    36    40    41   ar
    37    41    42   ar
    38    42    43    1
    39    42    44   ar
    40    44    45   ar
    41    36    37   ar
    42    37    38   ar
    43    38    30   ar
    44     6     1   ar
    45    38    33   ar
    46    12     7    1
    47    45    39   ar
    48    20    15   ar
    49    27    28    1
    50    23    24    1
@<TRIPOS>MOLECULE
*****
 45 50 0 0 0
SMALL
GASTEIGER

@<TRIPOS>ATOM
      1 C          61.3092   86.3927   11.5857 C.ar    1  UNL1        0.0702
      2 C          61.0399   85.2363   12.3267 C.ar    1  UNL1        0.0191
      3 C          60.0933   84.3158   11.8751 C.ar    1  UNL1        0.0356
      4 C          59.3911   84.5722   10.6871 C.ar    1  UNL1        0.1318
      5 N          59.6601   85.7101    9.9884 N.ar    1  UNL1       -0.2279
      6 C          60.5816   86.6178   10.4064 C.ar    1  UNL1        0.1149
      7 N          58.4255   83.6349   10.1748 N.pl3   1  UNL1       -0.2932
      8 C          58.0297   82.4407   10.9332 C.3     1  UNL1        0.0923
      9 C          58.2034   81.1750   10.0770 C.3     1  UNL1        0.0252
     10 C          57.9155   81.4011    8.5648 C.3     1  UNL1        0.0472
     11 C          57.0655   82.6721    8.3320 C.3     1  UNL1        0.0252
     12 C          57.7539   83.9243    8.9001 C.3     1  UNL1        0.0923
     13 C          59.2251   81.4293    7.7521 C.3     1  UNL1        0.2054
     14 O          60.3498   81.4261    8.6289 O.3     1  UNL1       -0.4755
     15 C          61.2867   82.4655    8.7218 C.ar    1  UNL1        0.1388
     16 C          61.3022   83.5494    7.8253 C.ar    1  UNL1        0.0369
     17 C          62.2608   84.5553    7.9580 C.ar    1  UNL1        0.0033
     18 C          63.2070   84.4968    8.9840 C.ar    1  UNL1        0.0066
     19 C          63.2006   83.4275    9.8973 C.ar    1  UNL1        0.0785
     20 C          62.2378   82.4120    9.7482 C.ar    1  UNL1        0.0433
     21 C          64.2004   83.3457   10.9901 C.2     1  UNL1        0.3381
     22 O          65.1315   82.4997   10.9231 O.2     1  UNL1       -0.2451
     23 O          64.1346   84.1739   12.1101 O.3     1  UNL1       -0.4771
     24 H          63.3601   84.8022   12.2794 H       1  UNL1        0.2954
     25 C          62.1484   88.7658   11.9278 C.2     1  UNL1        0.2839
     26 O          61.1156   89.2670   11.4086 O.2     1  UNL1       -0.2665
     27 N          62.2717   87.3403   12.0767 N.am    1  UNL1       -0.2766
     28 H          63.1352   86.9540   12.5163 H       1  UNL1        0.1553
     29 C          64.1311   88.3570   14.4545 C.3     1  UNL1        0.0345
     30 C          64.0535   89.5100   13.5002 C.ar    1  UNL1        0.0202
     31 C          63.2078   89.6760   12.3962 C.ar    1  UNL1        0.1946
     32 O          63.4976   90.8033   11.7707 O.2     1  UNL1       -0.4492
     33 C          64.4701   91.3890   12.4258 C.ar    1  UNL1        0.1452
     34 C          65.0844   92.5993   12.1242 C.ar    1  UNL1        0.0375
     35 C          66.1185   93.0428   12.9673 C.ar    1  UNL1        0.0031
     36 C          66.5214   92.2738   14.0929 C.ar    1  UNL1        0.0002
     37 C          65.8697   91.0466   14.3634 C.ar    1  UNL1        0.0028
     38 C          64.8472   90.6393   13.5065 C.ar    1  UNL1        0.0337
     39 C          67.6148   92.7519   14.9767 C.ar    1  UNL1        0.0001
     40 C          68.4122   91.8358   15.6887 C.ar    1  UNL1        0.0023
     41 C          69.4403   92.2888   16.5210 C.ar    1  UNL1        0.0296
     42 C          69.6850   93.6580   16.6517 C.ar    1  UNL1        0.1401
     43 F          70.6829   94.0946   17.4591 F       1  UNL1       -0.2042
     44 C          68.9009   94.5769   15.9502 C.ar    1  UNL1        0.0296
     45 C          67.8709   94.1292   15.1173 C.ar    1  UNL1        0.0023
@<TRIPOS>BOND
     1    29    30    1
     2    30    31   ar
     3    31    25    1
     4    25    26    2
     5    25    27   am
     6    27     1    1
     7     1     2   ar
     8     2     3   ar
     9     3     4   ar
    10     4     7    1
    11     7     8    1
    12     8     9    1
    13     9    10    1
    14    10    13    1
    15    13    14    1
    16    14    15    1
    17    15    16   ar
    18    16    17   ar
    19    17    18   ar
    20    18    19   ar
    21    19    21    1
    22    21    22    2
    23    21    23    1
    24    19    20   ar
    25    10    11    1
    26    11    12    1
    27     4     5   ar
    28     5     6   ar
    29    31    32   ar
    30    32    33   ar
    31    33    34   ar
    32    34    35   ar
    33    35    36   ar
    34    36    39    1
    35    39    40   ar
    36    40    41   ar
    37    41    42   ar
    38    42    43    1
    39    42    44   ar
    40    44    45   ar
    41    36    37   ar
    42    37    38   ar
    43    38    30   ar
    44     6     1   ar
    45    38    33   ar
    46    12     7    1
    47    45    39   ar
    48    20    15   ar
    49    27    28    1
    50    23    24    1
