@<TRIPOS>MOLECULE
*****
 49 54 0 0 0
SMALL
GASTEIGER

@<TRIPOS>ATOM
      1 O          10.1968   79.2145   22.5343 O.2     1  UNL1       -0.2701
      2 C           9.2341   78.4994   22.9227 C.2     1  UNL1        0.2483
      3 N           9.1356   78.0993   24.3017 N.am    1  UNL1       -0.2945
      4 H           8.3475   77.4738   24.5830 H       1  UNL1        0.1501
      5 C           8.2552   78.0124   21.9311 C.ar    1  UNL1        0.0808
      6 C           8.0463   76.6331   21.7949 C.ar    1  UNL1        0.0080
      7 C           7.0489   76.1483   20.9486 C.ar    1  UNL1        0.0148
      8 C           6.2412   77.0346   20.2110 C.ar    1  UNL1        0.0502
      9 C           6.5048   78.4127   20.2923 C.ar    1  UNL1        0.0443
     10 C           7.4974   78.9013   21.1483 C.ar    1  UNL1        0.1457
     11 F           7.7238   80.2385   21.1976 F       1  UNL1       -0.2040
     12 N           5.1013   76.5546   19.4595 N.pl3   1  UNL1       -0.3040
     13 C           4.7568   75.1262   19.4325 C.3     1  UNL1        0.1122
     14 C           3.6635   74.8344   20.4824 C.3     1  UNL1        0.1123
     15 N           3.0379   76.0888   20.9362 N.pl3   1  UNL1       -0.3034
     16 C           2.7200   77.0827   19.9013 C.3     1  UNL1        0.1123
     17 C           4.0003   77.4798   19.1339 C.3     1  UNL1        0.1122
     18 C           3.1678   76.4885   22.3171 C.ar    1  UNL1        0.0592
     19 C           4.2659   76.0496   23.0782 C.ar    1  UNL1        0.0221
     20 C           4.3554   76.3381   24.4426 C.ar    1  UNL1        0.0334
     21 S           5.7487   75.6930   25.3724 S.3     1  UNL1       -0.1405
     22 C           3.3549   77.1065   25.0589 C.ar    1  UNL1        0.0640
     23 CL          3.4234   77.4937   26.7738 Cl      1  UNL1       -0.0817
     24 C           2.2776   77.5783   24.3011 C.ar    1  UNL1        0.0245
     25 C           2.1766   77.2731   22.9386 C.ar    1  UNL1        0.0718
     26 CL          0.8197   77.9227   22.0270 Cl      1  UNL1       -0.0809
     27 H           5.0578   74.5117   25.7017 H       1  UNL1        0.1072
     28 C          10.1741   78.3479   25.3072 C.3     1  UNL1        0.1535
     29 C           9.5473   78.8108   26.6013 C.2     1  UNL1        0.2443
     30 O           8.4488   79.4309   26.5866 O.2     1  UNL1       -0.2730
     31 N          10.2606   78.6313   27.8348 N.am    1  UNL1       -0.2825
     32 H          11.2777   78.3967   27.7781 H       1  UNL1        0.1549
     33 C           9.6947   78.8747   29.1338 C.ar    1  UNL1        0.0535
     34 C           8.7019   78.0162   29.6256 C.ar    1  UNL1        0.0353
     35 C           8.1396   78.2561   30.8814 C.ar    1  UNL1        0.1002
     36 N           8.5394   79.3291   31.6136 N.ar    1  UNL1       -0.2422
     37 C           9.4832   80.1926   31.1541 C.ar    1  UNL1        0.1002
     38 C          10.0731   79.9876   29.9042 C.ar    1  UNL1        0.0353
     39 C          11.0906   77.1183   25.4714 C.3     1  UNL1        0.0569
     40 C          12.2142   77.1358   24.4743 C.ar    1  UNL1       -0.0017
     41 C          12.2962   76.3909   23.3012 C.ar    1  UNL1        0.0681
     42 N          13.4836   76.6030   22.6893 N.ar    1  UNL1       -0.3523
     43 C          14.1551   77.4671   23.4703 C.ar    1  UNL1        0.0563
     44 C          15.4380   77.9722   23.2632 C.ar    1  UNL1        0.0170
     45 C          15.9595   78.8568   24.2252 C.ar    1  UNL1        0.0015
     46 C          15.1969   79.2100   25.3608 C.ar    1  UNL1        0.0001
     47 C          13.9057   78.6829   25.5446 C.ar    1  UNL1        0.0012
     48 C          13.4144   77.8121   24.5716 C.ar    1  UNL1        0.0131
     49 H          13.8135   76.1702   21.7980 H       1  UNL1        0.1660
@<TRIPOS>BOND
     1     1     2    2
     2     2     3   am
     3     3    28    1
     4    28    39    1
     5    39    40    1
     6    40    41   ar
     7    41    42   ar
     8    42    43   ar
     9    43    44   ar
    10    44    45   ar
    11    45    46   ar
    12    46    47   ar
    13    47    48   ar
    14    28    29    1
    15    29    30    2
    16    29    31   am
    17    31    33    1
    18    33    34   ar
    19    34    35   ar
    20    35    36   ar
    21    36    37   ar
    22    37    38   ar
    23     2     5    1
    24     5     6   ar
    25     6     7   ar
    26     7     8   ar
    27     8    12    1
    28    12    13    1
    29    13    14    1
    30    14    15    1
    31    15    18    1
    32    18    19   ar
    33    19    20   ar
    34    20    21    1
    35    20    22   ar
    36    22    23    1
    37    22    24   ar
    38    24    25   ar
    39    25    26    1
    40    15    16    1
    41    16    17    1
    42     8     9   ar
    43     9    10   ar
    44    10    11    1
    45    48    40   ar
    46    38    33   ar
    47    10     5   ar
    48    48    43   ar
    49    17    12    1
    50    25    18   ar
    51     3     4    1
    52    42    49    1
    53    31    32    1
    54    21    27    1
@<TRIPOS>MOLECULE
*****
 49 54 0 0 0
SMALL
GASTEIGER

@<TRIPOS>ATOM
      1 O           6.0550   74.0080   23.1189 O.2     1  UNL1       -0.2701
      2 C           5.8597   75.1649   23.5800 C.2     1  UNL1        0.2483
      3 N           6.1090   76.3243   22.7645 N.am    1  UNL1       -0.2945
      4 H           5.9755   77.2694   23.1895 H       1  UNL1        0.1501
      5 C           5.4497   75.3165   24.9899 C.ar    1  UNL1        0.0808
      6 C           5.8307   74.3422   25.9227 C.ar    1  UNL1        0.0080
      7 C           5.5556   74.5150   27.2793 C.ar    1  UNL1        0.0148
      8 C           4.8839   75.6658   27.7337 C.ar    1  UNL1        0.0502
      9 C           4.4364   76.6029   26.7866 C.ar    1  UNL1        0.0443
     10 C           4.7206   76.4365   25.4272 C.ar    1  UNL1        0.1457
     11 F           4.2696   77.3619   24.5427 F       1  UNL1       -0.2040
     12 N           4.7383   75.9343   29.1484 N.pl3   1  UNL1       -0.3040
     13 C           5.2098   74.9738   30.1558 C.3     1  UNL1        0.1122
     14 C           6.6160   75.3809   30.6453 C.3     1  UNL1        0.1123
     15 N           6.9168   76.7680   30.2504 N.pl3   1  UNL1       -0.3034
     16 C           5.8403   77.7538   30.4213 C.3     1  UNL1        0.1123
     17 C           4.5940   77.3254   29.6156 C.3     1  UNL1        0.1122
     18 C           8.0062   77.0270   29.3394 C.ar    1  UNL1        0.0592
     19 C           8.0451   76.3886   28.0869 C.ar    1  UNL1        0.0221
     20 C           9.1421   76.5442   27.2354 C.ar    1  UNL1        0.0334
     21 S           9.1611   75.6503   25.6789 S.3     1  UNL1       -0.1405
     22 C          10.2068   77.3766   27.6162 C.ar    1  UNL1        0.0640
     23 CL         11.6096   77.6021   26.5786 Cl      1  UNL1       -0.0817
     24 C          10.1594   78.0445   28.8447 C.ar    1  UNL1        0.0245
     25 C           9.0701   77.8737   29.7073 C.ar    1  UNL1        0.0718
     26 CL          9.0466   78.7660   31.2231 Cl      1  UNL1       -0.0809
     27 H           9.8088   74.5416   26.2558 H       1  UNL1        0.1072
     28 C           6.7264   76.2783   21.4349 C.3     1  UNL1        0.1535
     29 C           7.6131   75.0615   21.3130 C.2     1  UNL1        0.2443
     30 O           7.3564   74.1743   20.4537 O.2     1  UNL1       -0.2730
     31 N           8.6857   74.8732   22.2494 N.am    1  UNL1       -0.2825
     32 H           8.6815   75.4567   23.1167 H       1  UNL1        0.1549
     33 C           9.6899   73.8516   22.1272 C.ar    1  UNL1        0.0535
     34 C           9.3464   72.5144   22.3687 C.ar    1  UNL1        0.0353
     35 C          10.3213   71.5198   22.2642 C.ar    1  UNL1        0.1002
     36 N          11.6016   71.8505   21.9497 N.ar    1  UNL1       -0.2422
     37 C          11.9706   73.1406   21.7325 C.ar    1  UNL1        0.1002
     38 C          11.0258   74.1658   21.8242 C.ar    1  UNL1        0.0353
     39 C           5.6591   76.3768   20.3258 C.3     1  UNL1        0.0569
     40 C           4.2706   76.2857   20.8923 C.ar    1  UNL1       -0.0017
     41 C           3.4743   75.1460   20.9616 C.ar    1  UNL1        0.0681
     42 N           2.2556   75.4513   21.4626 N.ar    1  UNL1       -0.3523
     43 C           2.2726   76.7743   21.7010 C.ar    1  UNL1        0.0563
     44 C           1.2336   77.5556   22.2049 C.ar    1  UNL1        0.0170
     45 C           1.4634   78.9353   22.3586 C.ar    1  UNL1        0.0015
     46 C           2.7110   79.4968   22.0064 C.ar    1  UNL1        0.0001
     47 C           3.7406   78.6840   21.4983 C.ar    1  UNL1        0.0012
     48 C           3.4843   77.3195   21.3615 C.ar    1  UNL1        0.0131
     49 H           1.4608   74.7921   21.6180 H       1  UNL1        0.1660
@<TRIPOS>BOND
     1     1     2    2
     2     2     3   am
     3     3    28    1
     4    28    39    1
     5    39    40    1
     6    40    41   ar
     7    41    42   ar
     8    42    43   ar
     9    43    44   ar
    10    44    45   ar
    11    45    46   ar
    12    46    47   ar
    13    47    48   ar
    14    28    29    1
    15    29    30    2
    16    29    31   am
    17    31    33    1
    18    33    34   ar
    19    34    35   ar
    20    35    36   ar
    21    36    37   ar
    22    37    38   ar
    23     2     5    1
    24     5     6   ar
    25     6     7   ar
    26     7     8   ar
    27     8    12    1
    28    12    13    1
    29    13    14    1
    30    14    15    1
    31    15    18    1
    32    18    19   ar
    33    19    20   ar
    34    20    21    1
    35    20    22   ar
    36    22    23    1
    37    22    24   ar
    38    24    25   ar
    39    25    26    1
    40    15    16    1
    41    16    17    1
    42     8     9   ar
    43     9    10   ar
    44    10    11    1
    45    48    40   ar
    46    38    33   ar
    47    10     5   ar
    48    48    43   ar
    49    17    12    1
    50    25    18   ar
    51     3     4    1
    52    42    49    1
    53    31    32    1
    54    21    27    1
@<TRIPOS>MOLECULE
*****
 49 54 0 0 0
SMALL
GASTEIGER

@<TRIPOS>ATOM
      1 O          10.1123   79.6605   22.6590 O.2     1  UNL1       -0.2701
      2 C           9.3169   78.7443   23.0012 C.2     1  UNL1        0.2483
      3 N           9.4136   78.1478   24.3075 N.am    1  UNL1       -0.2945
      4 H           8.7655   77.3637   24.5454 H       1  UNL1        0.1501
      5 C           8.3395   78.2373   22.0182 C.ar    1  UNL1        0.0808
      6 C           8.1432   76.8546   21.8977 C.ar    1  UNL1        0.0080
      7 C           7.1478   76.3512   21.0601 C.ar    1  UNL1        0.0148
      8 C           6.3294   77.2218   20.3155 C.ar    1  UNL1        0.0502
      9 C           6.5801   78.6031   20.3809 C.ar    1  UNL1        0.0443
     10 C           7.5707   79.1103   21.2283 C.ar    1  UNL1        0.1457
     11 F           7.7846   80.4501   21.2623 F       1  UNL1       -0.2040
     12 N           5.1917   76.7228   19.5730 N.pl3   1  UNL1       -0.3040
     13 C           4.8987   75.2841   19.5091 C.3     1  UNL1        0.1122
     14 C           3.8397   74.9207   20.5716 C.3     1  UNL1        0.1123
     15 N           3.1789   76.1369   21.0766 N.pl3   1  UNL1       -0.3034
     16 C           2.8029   77.1491   20.0796 C.3     1  UNL1        0.1123
     17 C           4.0511   77.6161   19.2988 C.3     1  UNL1        0.1122
     18 C           3.3240   76.4994   22.4663 C.ar    1  UNL1        0.0592
     19 C           4.4432   76.0611   23.1964 C.ar    1  UNL1        0.0221
     20 C           4.5497   76.3120   24.5670 C.ar    1  UNL1        0.0334
     21 S           5.9709   75.6689   25.4550 S.3     1  UNL1       -0.1405
     22 C           3.5448   77.0422   25.2215 C.ar    1  UNL1        0.0640
     23 CL          3.6343   77.3814   26.9455 Cl      1  UNL1       -0.0817
     24 C           2.4458   77.5137   24.4952 C.ar    1  UNL1        0.0245
     25 C           2.3281   77.2457   23.1262 C.ar    1  UNL1        0.0718
     26 CL          0.9435   77.8937   22.2559 Cl      1  UNL1       -0.0809
     27 H           5.3090   74.4649   25.7611 H       1  UNL1        0.1072
     28 C          10.4889   78.4306   25.2640 C.3     1  UNL1        0.1535
     29 C           9.9097   78.9164   26.5718 C.2     1  UNL1        0.2443
     30 O           9.2372   79.9831   26.6090 O.2     1  UNL1       -0.2730
     31 N          10.2174   78.2120   27.7850 N.am    1  UNL1       -0.2825
     32 H          11.0075   77.5279   27.7625 H       1  UNL1        0.1549
     33 C           9.5906   78.4790   29.0510 C.ar    1  UNL1        0.0535
     34 C           8.4471   77.7575   29.4203 C.ar    1  UNL1        0.0353
     35 C           7.8268   78.0224   30.6433 C.ar    1  UNL1        0.1002
     36 N           8.3186   78.9897   31.4617 N.ar    1  UNL1       -0.2422
     37 C           9.4119   79.7220   31.1212 C.ar    1  UNL1        0.1002
     38 C          10.0640   79.4872   29.9080 C.ar    1  UNL1        0.0353
     39 C          11.4255   77.2150   25.4184 C.3     1  UNL1        0.0569
     40 C          11.5874   76.4797   24.1183 C.ar    1  UNL1       -0.0017
     41 C          12.4696   76.7957   23.0889 C.ar    1  UNL1        0.0681
     42 N          12.2876   75.9629   22.0388 N.ar    1  UNL1       -0.3523
     43 C          11.2926   75.1309   22.3925 C.ar    1  UNL1        0.0563
     44 C          10.7358   74.1064   21.6281 C.ar    1  UNL1        0.0170
     45 C           9.6809   73.3647   22.1913 C.ar    1  UNL1        0.0015
     46 C           9.2099   73.6625   23.4895 C.ar    1  UNL1        0.0001
     47 C           9.7898   74.7036   24.2370 C.ar    1  UNL1        0.0012
     48 C          10.8365   75.4179   23.6535 C.ar    1  UNL1        0.0131
     49 H          12.8074   75.9762   21.1333 H       1  UNL1        0.1660
@<TRIPOS>BOND
     1     1     2    2
     2     2     3   am
     3     3    28    1
     4    28    39    1
     5    39    40    1
     6    40    41   ar
     7    41    42   ar
     8    42    43   ar
     9    43    44   ar
    10    44    45   ar
    11    45    46   ar
    12    46    47   ar
    13    47    48   ar
    14    28    29    1
    15    29    30    2
    16    29    31   am
    17    31    33    1
    18    33    34   ar
    19    34    35   ar
    20    35    36   ar
    21    36    37   ar
    22    37    38   ar
    23     2     5    1
    24     5     6   ar
    25     6     7   ar
    26     7     8   ar
    27     8    12    1
    28    12    13    1
    29    13    14    1
    30    14    15    1
    31    15    18    1
    32    18    19   ar
    33    19    20   ar
    34    20    21    1
    35    20    22   ar
    36    22    23    1
    37    22    24   ar
    38    24    25   ar
    39    25    26    1
    40    15    16    1
    41    16    17    1
    42     8     9   ar
    43     9    10   ar
    44    10    11    1
    45    48    40   ar
    46    38    33   ar
    47    10     5   ar
    48    48    43   ar
    49    17    12    1
    50    25    18   ar
    51     3     4    1
    52    42    49    1
    53    31    32    1
    54    21    27    1
@<TRIPOS>MOLECULE
*****
 49 54 0 0 0
SMALL
GASTEIGER

@<TRIPOS>ATOM
      1 O          10.3221   74.5165   24.1706 O.2     1  UNL1       -0.2701
      2 C           9.5750   75.5213   24.0244 C.2     1  UNL1        0.2483
      3 N           9.5955   76.5892   24.9890 N.am    1  UNL1       -0.2945
      4 H           8.9355   77.3888   24.8600 H       1  UNL1        0.1501
      5 C           8.6234   75.5507   22.8964 C.ar    1  UNL1        0.0808
      6 C           7.9599   74.3720   22.5289 C.ar    1  UNL1        0.0080
      7 C           6.9732   74.3930   21.5429 C.ar    1  UNL1        0.0148
      8 C           6.6329   75.5954   20.8947 C.ar    1  UNL1        0.0502
      9 C           7.3537   76.7595   21.2122 C.ar    1  UNL1        0.0443
     10 C           8.3359   76.7426   22.2079 C.ar    1  UNL1        0.1457
     11 F           9.0120   77.8864   22.4846 F       1  UNL1       -0.2040
     12 N           5.5037   75.6620   19.9919 N.pl3   1  UNL1       -0.3040
     13 C           4.5591   74.5423   19.8739 C.3     1  UNL1        0.1122
     14 C           3.3292   74.8021   20.7699 C.3     1  UNL1        0.1123
     15 N           3.2843   76.2149   21.1851 N.pl3   1  UNL1       -0.3034
     16 C           3.5811   77.2185   20.1533 C.3     1  UNL1        0.1123
     17 C           4.9882   76.9756   19.5643 C.3     1  UNL1        0.1122
     18 C           3.4054   76.5485   22.5843 C.ar    1  UNL1        0.0592
     19 C           4.4884   76.0575   23.3352 C.ar    1  UNL1        0.0221
     20 C           4.5676   76.2813   24.7123 C.ar    1  UNL1        0.0334
     21 S           5.9408   75.5722   25.6252 S.3     1  UNL1       -0.1405
     22 C           3.5725   77.0363   25.3535 C.ar    1  UNL1        0.0640
     23 CL          3.6284   77.3429   27.0850 Cl      1  UNL1       -0.0817
     24 C           2.5107   77.5596   24.6076 C.ar    1  UNL1        0.0245
     25 C           2.4197   77.3192   23.2314 C.ar    1  UNL1        0.0718
     26 CL          1.0828   78.0315   22.3373 Cl      1  UNL1       -0.0809
     27 H           5.2283   74.3880   25.8926 H       1  UNL1        0.1072
     28 C          10.3414   76.5443   26.2512 C.3     1  UNL1        0.1535
     29 C          11.6938   77.1953   26.0816 C.2     1  UNL1        0.2443
     30 O          12.4136   77.4319   27.0902 O.2     1  UNL1       -0.2730
     31 N          12.1068   77.6354   24.7783 N.am    1  UNL1       -0.2825
     32 H          11.3763   77.7001   24.0334 H       1  UNL1        0.1549
     33 C          13.4294   78.1077   24.4707 C.ar    1  UNL1        0.0535
     34 C          14.3100   77.2795   23.7615 C.ar    1  UNL1        0.0353
     35 C          15.6003   77.7286   23.4717 C.ar    1  UNL1        0.1002
     36 N          16.0061   78.9552   23.8937 N.ar    1  UNL1       -0.2422
     37 C          15.1832   79.7719   24.6032 C.ar    1  UNL1        0.1002
     38 C          13.8835   79.3624   24.9120 C.ar    1  UNL1        0.0353
     39 C           9.5107   77.1404   27.4059 C.3     1  UNL1        0.0569
     40 C           9.0965   76.0803   28.3867 C.ar    1  UNL1       -0.0017
     41 C           9.8006   74.9227   28.7061 C.ar    1  UNL1        0.0681
     42 N           9.0913   74.1622   29.5709 N.ar    1  UNL1       -0.3523
     43 C           7.9425   74.8245   29.7924 C.ar    1  UNL1        0.0563
     44 C           6.8801   74.4263   30.6028 C.ar    1  UNL1        0.0170
     45 C           5.7568   75.2704   30.6761 C.ar    1  UNL1        0.0015
     46 C           5.7198   76.4780   29.9437 C.ar    1  UNL1        0.0001
     47 C           6.8060   76.8533   29.1323 C.ar    1  UNL1        0.0012
     48 C           7.9071   75.9980   29.0836 C.ar    1  UNL1        0.0131
     49 H           9.3761   73.2410   29.9718 H       1  UNL1        0.1660
@<TRIPOS>BOND
     1     1     2    2
     2     2     3   am
     3     3    28    1
     4    28    39    1
     5    39    40    1
     6    40    41   ar
     7    41    42   ar
     8    42    43   ar
     9    43    44   ar
    10    44    45   ar
    11    45    46   ar
    12    46    47   ar
    13    47    48   ar
    14    28    29    1
    15    29    30    2
    16    29    31   am
    17    31    33    1
    18    33    34   ar
    19    34    35   ar
    20    35    36   ar
    21    36    37   ar
    22    37    38   ar
    23     2     5    1
    24     5     6   ar
    25     6     7   ar
    26     7     8   ar
    27     8    12    1
    28    12    13    1
    29    13    14    1
    30    14    15    1
    31    15    18    1
    32    18    19   ar
    33    19    20   ar
    34    20    21    1
    35    20    22   ar
    36    22    23    1
    37    22    24   ar
    38    24    25   ar
    39    25    26    1
    40    15    16    1
    41    16    17    1
    42     8     9   ar
    43     9    10   ar
    44    10    11    1
    45    48    40   ar
    46    38    33   ar
    47    10     5   ar
    48    48    43   ar
    49    17    12    1
    50    25    18   ar
    51     3     4    1
    52    42    49    1
    53    31    32    1
    54    21    27    1
@<TRIPOS>MOLECULE
*****
 49 54 0 0 0
SMALL
GASTEIGER

@<TRIPOS>ATOM
      1 O           9.1662   74.4297   24.5836 O.2     1  UNL1       -0.2701
      2 C           8.6165   75.5619   24.6545 C.2     1  UNL1        0.2483
      3 N           9.3427   76.6917   25.1716 N.am    1  UNL1       -0.2945
      4 H           8.8456   77.6070   25.2545 H       1  UNL1        0.1501
      5 C           7.1959   75.6956   24.2763 C.ar    1  UNL1        0.0808
      6 C           6.3767   76.5795   24.9919 C.ar    1  UNL1        0.0080
      7 C           5.0619   76.8111   24.5872 C.ar    1  UNL1        0.0148
      8 C           4.5330   76.1555   23.4592 C.ar    1  UNL1        0.0502
      9 C           5.3331   75.2132   22.7907 C.ar    1  UNL1        0.0443
     10 C           6.6550   74.9874   23.1886 C.ar    1  UNL1        0.1457
     11 F           7.3956   74.0678   22.5194 F       1  UNL1       -0.2040
     12 N           3.2312   76.5083   22.9341 N.pl3   1  UNL1       -0.3040
     13 C           2.6349   77.8241   23.2041 C.3     1  UNL1        0.1122
     14 C           2.9113   78.7740   22.0193 C.3     1  UNL1        0.1123
     15 N           3.3566   78.0104   20.8406 N.pl3   1  UNL1       -0.3034
     16 C           2.6304   76.7678   20.5432 C.3     1  UNL1        0.1123
     17 C           2.7079   75.8049   21.7485 C.3     1  UNL1        0.1122
     18 C           4.6843   78.2236   20.3159 C.ar    1  UNL1        0.0592
     19 C           5.8005   78.1435   21.1677 C.ar    1  UNL1        0.0221
     20 C           7.0822   78.4496   20.7025 C.ar    1  UNL1        0.0334
     21 S           8.4563   78.3924   21.8560 S.3     1  UNL1       -0.1405
     22 C           7.2678   78.8083   19.3578 C.ar    1  UNL1        0.0640
     23 CL          8.8619   79.2038   18.7270 Cl      1  UNL1       -0.0817
     24 C           6.1678   78.8548   18.4945 C.ar    1  UNL1        0.0245
     25 C           4.8806   78.5678   18.9641 C.ar    1  UNL1        0.0718
     26 CL          3.5395   78.6067   17.8264 Cl      1  UNL1       -0.0809
     27 H           8.2962   79.7466   22.2053 H       1  UNL1        0.1072
     28 C          10.6768   76.6067   25.7752 C.3     1  UNL1        0.1535
     29 C          11.6833   77.3422   24.9222 C.2     1  UNL1        0.2443
     30 O          11.3229   77.8807   23.8398 O.2     1  UNL1       -0.2730
     31 N          13.0688   77.3340   25.3003 N.am    1  UNL1       -0.2825
     32 H          13.3722   76.6380   26.0188 H       1  UNL1        0.1549
     33 C          14.0804   78.1345   24.6655 C.ar    1  UNL1        0.0535
     34 C          14.8701   77.5726   23.6530 C.ar    1  UNL1        0.0353
     35 C          15.8629   78.3421   23.0425 C.ar    1  UNL1        0.1002
     36 N          16.0752   79.6235   23.4431 N.ar    1  UNL1       -0.2422
     37 C          15.3415   80.1889   24.4379 C.ar    1  UNL1        0.1002
     38 C          14.3365   79.4549   25.0731 C.ar    1  UNL1        0.0353
     39 C          10.6507   77.0789   27.2433 C.3     1  UNL1        0.0569
     40 C          10.2191   75.9748   28.1662 C.ar    1  UNL1       -0.0017
     41 C          11.0045   74.9219   28.6270 C.ar    1  UNL1        0.0681
     42 N          10.2650   74.0751   29.3788 N.ar    1  UNL1       -0.3523
     43 C           9.0185   74.5787   29.3886 C.ar    1  UNL1        0.0563
     44 C           7.8958   74.0437   30.0188 C.ar    1  UNL1        0.0170
     45 C           6.6754   74.7306   29.8824 C.ar    1  UNL1        0.0015
     46 C           6.6049   75.9213   29.1251 C.ar    1  UNL1        0.0001
     47 C           7.7541   76.4366   28.4984 C.ar    1  UNL1        0.0012
     48 C           8.9500   75.7357   28.6556 C.ar    1  UNL1        0.0131
     49 H          10.5961   73.2008   29.8439 H       1  UNL1        0.1660
@<TRIPOS>BOND
     1     1     2    2
     2     2     3   am
     3     3    28    1
     4    28    39    1
     5    39    40    1
     6    40    41   ar
     7    41    42   ar
     8    42    43   ar
     9    43    44   ar
    10    44    45   ar
    11    45    46   ar
    12    46    47   ar
    13    47    48   ar
    14    28    29    1
    15    29    30    2
    16    29    31   am
    17    31    33    1
    18    33    34   ar
    19    34    35   ar
    20    35    36   ar
    21    36    37   ar
    22    37    38   ar
    23     2     5    1
    24     5     6   ar
    25     6     7   ar
    26     7     8   ar
    27     8    12    1
    28    12    13    1
    29    13    14    1
    30    14    15    1
    31    15    18    1
    32    18    19   ar
    33    19    20   ar
    34    20    21    1
    35    20    22   ar
    36    22    23    1
    37    22    24   ar
    38    24    25   ar
    39    25    26    1
    40    15    16    1
    41    16    17    1
    42     8     9   ar
    43     9    10   ar
    44    10    11    1
    45    48    40   ar
    46    38    33   ar
    47    10     5   ar
    48    48    43   ar
    49    17    12    1
    50    25    18   ar
    51     3     4    1
    52    42    49    1
    53    31    32    1
    54    21    27    1
@<TRIPOS>MOLECULE
*****
 49 54 0 0 0
SMALL
GASTEIGER

@<TRIPOS>ATOM
      1 O           9.0578   73.2214   22.6335 O.2     1  UNL1       -0.2701
      2 C           8.9856   74.3839   22.1513 C.2     1  UNL1        0.2483
      3 N           9.9725   75.3748   22.4912 N.am    1  UNL1       -0.2945
      4 H           9.8616   76.3397   22.1064 H       1  UNL1        0.1501
      5 C           7.8333   74.7378   21.2993 C.ar    1  UNL1        0.0808
      6 C           7.0079   73.7183   20.8053 C.ar    1  UNL1        0.0080
      7 C           5.8493   74.0283   20.0929 C.ar    1  UNL1        0.0148
      8 C           5.4936   75.3688   19.8508 C.ar    1  UNL1        0.0502
      9 C           6.3636   76.3851   20.2815 C.ar    1  UNL1        0.0443
     10 C           7.5203   76.0767   21.0050 C.ar    1  UNL1        0.1457
     11 F           8.3367   77.0856   21.4019 F       1  UNL1       -0.2040
     12 N           4.2166   75.7060   19.2591 N.pl3   1  UNL1       -0.3040
     13 C           3.0730   74.7872   19.3468 C.3     1  UNL1        0.1122
     14 C           2.1662   75.1958   20.5272 C.3     1  UNL1        0.1123
     15 N           2.4956   76.5581   20.9817 N.pl3   1  UNL1       -0.3034
     16 C           2.7263   77.5669   19.9382 C.3     1  UNL1        0.1123
     17 C           3.8782   77.1197   19.0113 C.3     1  UNL1        0.1122
     18 C           3.0088   76.7573   22.3160 C.ar    1  UNL1        0.0592
     19 C           4.1426   76.0468   22.7490 C.ar    1  UNL1        0.0221
     20 C           4.5918   76.1462   24.0685 C.ar    1  UNL1        0.0334
     21 S           6.0051   75.1631   24.5763 S.3     1  UNL1       -0.1405
     22 C           3.9260   76.9932   24.9689 C.ar    1  UNL1        0.0640
     23 CL          4.4533   77.1498   26.6400 Cl      1  UNL1       -0.0817
     24 C           2.8191   77.7318   24.5366 C.ar    1  UNL1        0.0245
     25 C           2.3561   77.6178   23.2203 C.ar    1  UNL1        0.0718
     26 CL          0.9825   78.5969   22.7216 Cl      1  UNL1       -0.0809
     27 H           5.1890   74.0862   24.9707 H       1  UNL1        0.1072
     28 C          11.0207   75.1809   23.4987 C.3     1  UNL1        0.1535
     29 C          12.1476   76.1615   23.2747 C.2     1  UNL1        0.2443
     30 O          12.5574   76.3989   22.1054 O.2     1  UNL1       -0.2730
     31 N          12.8153   76.7401   24.4070 N.am    1  UNL1       -0.2825
     32 H          12.6579   76.2988   25.3415 H       1  UNL1        0.1549
     33 C          13.7773   77.8046   24.3158 C.ar    1  UNL1        0.0535
     34 C          14.9598   77.6054   23.5902 C.ar    1  UNL1        0.0353
     35 C          15.9034   78.6319   23.5097 C.ar    1  UNL1        0.1002
     36 N          15.6844   79.8110   24.1493 N.ar    1  UNL1       -0.2422
     37 C          14.5584   80.0260   24.8797 C.ar    1  UNL1        0.1002
     38 C          13.5877   79.0265   24.9838 C.ar    1  UNL1        0.0353
     39 C          10.4338   75.2314   24.9241 C.3     1  UNL1        0.0569
     40 C           9.8195   76.5710   25.2163 C.ar    1  UNL1       -0.0017
     41 C           9.1734   77.4050   24.3082 C.ar    1  UNL1        0.0681
     42 N           8.8144   78.5646   24.9048 N.ar    1  UNL1       -0.3523
     43 C           9.2365   78.4737   26.1780 C.ar    1  UNL1        0.0563
     44 C           9.1115   79.4345   27.1805 C.ar    1  UNL1        0.0170
     45 C           9.6461   79.1363   28.4474 C.ar    1  UNL1        0.0015
     46 C          10.2890   77.9000   28.6801 C.ar    1  UNL1        0.0001
     47 C          10.4023   76.9501   27.6487 C.ar    1  UNL1        0.0012
     48 C           9.8586   77.2728   26.4051 C.ar    1  UNL1        0.0131
     49 H           8.3219   79.3703   24.4592 H       1  UNL1        0.1660
@<TRIPOS>BOND
     1     1     2    2
     2     2     3   am
     3     3    28    1
     4    28    39    1
     5    39    40    1
     6    40    41   ar
     7    41    42   ar
     8    42    43   ar
     9    43    44   ar
    10    44    45   ar
    11    45    46   ar
    12    46    47   ar
    13    47    48   ar
    14    28    29    1
    15    29    30    2
    16    29    31   am
    17    31    33    1
    18    33    34   ar
    19    34    35   ar
    20    35    36   ar
    21    36    37   ar
    22    37    38   ar
    23     2     5    1
    24     5     6   ar
    25     6     7   ar
    26     7     8   ar
    27     8    12    1
    28    12    13    1
    29    13    14    1
    30    14    15    1
    31    15    18    1
    32    18    19   ar
    33    19    20   ar
    34    20    21    1
    35    20    22   ar
    36    22    23    1
    37    22    24   ar
    38    24    25   ar
    39    25    26    1
    40    15    16    1
    41    16    17    1
    42     8     9   ar
    43     9    10   ar
    44    10    11    1
    45    48    40   ar
    46    38    33   ar
    47    10     5   ar
    48    48    43   ar
    49    17    12    1
    50    25    18   ar
    51     3     4    1
    52    42    49    1
    53    31    32    1
    54    21    27    1
@<TRIPOS>MOLECULE
*****
 49 54 0 0 0
SMALL
GASTEIGER

@<TRIPOS>ATOM
      1 O           7.1358   73.3074   23.5858 O.2     1  UNL1       -0.2701
      2 C           6.4471   74.3510   23.7466 C.2     1  UNL1        0.2483
      3 N           6.2541   75.2699   22.6559 N.am    1  UNL1       -0.2945
      4 H           5.7116   76.1451   22.8330 H       1  UNL1        0.1501
      5 C           5.9098   74.6576   25.0867 C.ar    1  UNL1        0.0808
      6 C           6.1198   73.7492   26.1334 C.ar    1  UNL1        0.0080
      7 C           5.7233   74.0631   27.4334 C.ar    1  UNL1        0.0148
      8 C           5.0984   75.2928   27.7152 C.ar    1  UNL1        0.0502
      9 C           4.8210   76.1673   26.6505 C.ar    1  UNL1        0.0443
     10 C           5.2273   75.8589   25.3480 C.ar    1  UNL1        0.1457
     11 F           4.9394   76.7277   24.3459 F       1  UNL1       -0.2040
     12 N           4.8317   75.6984   29.0786 N.pl3   1  UNL1       -0.3040
     13 C           5.2985   74.8924   30.2155 C.3     1  UNL1        0.1122
     14 C           6.6319   75.4620   30.7448 C.3     1  UNL1        0.1123
     15 N           6.8578   76.8187   30.2167 N.pl3   1  UNL1       -0.3034
     16 C           5.7022   77.7267   30.2069 C.3     1  UNL1        0.1123
     17 C           4.5522   77.1152   29.3767 C.3     1  UNL1        0.1122
     18 C           7.9881   77.0661   29.3536 C.ar    1  UNL1        0.0592
     19 C           8.0869   76.4079   28.1147 C.ar    1  UNL1        0.0221
     20 C           9.2223   76.5529   27.3131 C.ar    1  UNL1        0.0334
     21 S           9.3160   75.6343   25.7738 S.3     1  UNL1       -0.1405
     22 C          10.2663   77.3941   27.7299 C.ar    1  UNL1        0.0640
     23 CL         11.7158   77.6068   26.7556 Cl      1  UNL1       -0.0817
     24 C          10.1601   78.0814   28.9440 C.ar    1  UNL1        0.0245
     25 C           9.0320   77.9215   29.7573 C.ar    1  UNL1        0.0718
     26 CL          8.9358   78.8377   31.2558 Cl      1  UNL1       -0.0809
     27 H           9.9381   74.5368   26.3981 H       1  UNL1        0.1072
     28 C           6.9303   75.1619   21.3588 C.3     1  UNL1        0.1535
     29 C           8.4235   75.0487   21.5566 C.2     1  UNL1        0.2443
     30 O           9.1493   76.0791   21.5031 O.2     1  UNL1       -0.2730
     31 N           9.0198   73.7502   21.7019 N.am    1  UNL1       -0.2825
     32 H           8.4425   72.9186   21.4411 H       1  UNL1        0.1549
     33 C          10.3941   73.5323   22.0634 C.ar    1  UNL1        0.0535
     34 C          11.0663   74.4933   22.8308 C.ar    1  UNL1        0.0353
     35 C          12.4053   74.2925   23.1734 C.ar    1  UNL1        0.1002
     36 N          13.0585   73.1795   22.7468 N.ar    1  UNL1       -0.2422
     37 C          12.4407   72.2409   21.9820 C.ar    1  UNL1        0.1002
     38 C          11.1011   72.4017   21.6192 C.ar    1  UNL1        0.0353
     39 C           6.3314   74.0169   20.5166 C.3     1  UNL1        0.0569
     40 C           4.8486   74.1835   20.3415 C.ar    1  UNL1       -0.0017
     41 C           3.8513   73.3891   20.9001 C.ar    1  UNL1        0.0681
     42 N           2.6333   73.7853   20.4653 N.ar    1  UNL1       -0.3523
     43 C           2.8538   74.8157   19.6304 C.ar    1  UNL1        0.0563
     44 C           1.9024   75.5453   18.9188 C.ar    1  UNL1        0.0170
     45 C           2.3587   76.5792   18.0806 C.ar    1  UNL1        0.0015
     46 C           3.7399   76.8552   17.9714 C.ar    1  UNL1        0.0001
     47 C           4.6775   76.1009   18.7001 C.ar    1  UNL1        0.0012
     48 C           4.1942   75.0856   19.5259 C.ar    1  UNL1        0.0131
     49 H           1.7119   73.3641   20.7186 H       1  UNL1        0.1660
@<TRIPOS>BOND
     1     1     2    2
     2     2     3   am
     3     3    28    1
     4    28    39    1
     5    39    40    1
     6    40    41   ar
     7    41    42   ar
     8    42    43   ar
     9    43    44   ar
    10    44    45   ar
    11    45    46   ar
    12    46    47   ar
    13    47    48   ar
    14    28    29    1
    15    29    30    2
    16    29    31   am
    17    31    33    1
    18    33    34   ar
    19    34    35   ar
    20    35    36   ar
    21    36    37   ar
    22    37    38   ar
    23     2     5    1
    24     5     6   ar
    25     6     7   ar
    26     7     8   ar
    27     8    12    1
    28    12    13    1
    29    13    14    1
    30    14    15    1
    31    15    18    1
    32    18    19   ar
    33    19    20   ar
    34    20    21    1
    35    20    22   ar
    36    22    23    1
    37    22    24   ar
    38    24    25   ar
    39    25    26    1
    40    15    16    1
    41    16    17    1
    42     8     9   ar
    43     9    10   ar
    44    10    11    1
    45    48    40   ar
    46    38    33   ar
    47    10     5   ar
    48    48    43   ar
    49    17    12    1
    50    25    18   ar
    51     3     4    1
    52    42    49    1
    53    31    32    1
    54    21    27    1
@<TRIPOS>MOLECULE
*****
 49 54 0 0 0
SMALL
GASTEIGER

@<TRIPOS>ATOM
      1 O           6.1723   73.2712   23.4926 O.2     1  UNL1       -0.2701
      2 C           6.2193   74.4592   23.9115 C.2     1  UNL1        0.2483
      3 N           6.7839   75.4978   23.0907 N.am    1  UNL1       -0.2945
      4 H           6.8444   76.4643   23.4830 H       1  UNL1        0.1501
      5 C           5.7621   74.7558   25.2833 C.ar    1  UNL1        0.0808
      6 C           6.0402   73.8434   26.3104 C.ar    1  UNL1        0.0080
      7 C           5.7211   74.1483   27.6337 C.ar    1  UNL1        0.0148
      8 C           5.1073   75.3727   27.9594 C.ar    1  UNL1        0.0502
      9 C           4.7612   76.2509   26.9181 C.ar    1  UNL1        0.0443
     10 C           5.0899   75.9517   25.5918 C.ar    1  UNL1        0.1457
     11 F           4.7369   76.8238   24.6137 F       1  UNL1       -0.2040
     12 N           4.9212   75.7698   29.3386 N.pl3   1  UNL1       -0.3040
     13 C           5.4408   74.9493   30.4416 C.3     1  UNL1        0.1122
     14 C           6.8079   75.4996   30.9006 C.3     1  UNL1        0.1123
     15 N           7.0198   76.8582   30.3713 N.pl3   1  UNL1       -0.3034
     16 C           5.8760   77.7789   30.4326 C.3     1  UNL1        0.1123
     17 C           4.6749   77.1871   29.6627 C.3     1  UNL1        0.1122
     18 C           8.1034   77.1003   29.4489 C.ar    1  UNL1        0.0592
     19 C           8.1545   76.4109   28.2242 C.ar    1  UNL1        0.0221
     20 C           9.2478   76.5524   27.3655 C.ar    1  UNL1        0.0334
     21 S           9.2839   75.5947   25.8478 S.3     1  UNL1       -0.1405
     22 C          10.2959   77.4209   27.7098 C.ar    1  UNL1        0.0640
     23 CL         11.6936   77.6305   26.6619 Cl      1  UNL1       -0.0817
     24 C          10.2358   78.1386   28.9093 C.ar    1  UNL1        0.0245
     25 C           9.1505   77.9826   29.7797 C.ar    1  UNL1        0.0718
     26 CL          9.1100   78.9368   31.2568 Cl      1  UNL1       -0.0809
     27 H           9.9537   74.5242   26.4697 H       1  UNL1        0.1072
     28 C           7.4615   75.2596   21.8118 C.3     1  UNL1        0.1535
     29 C           6.4617   75.2802   20.6797 C.2     1  UNL1        0.2443
     30 O           6.5206   74.4114   19.7669 O.2     1  UNL1       -0.2730
     31 N           5.5121   76.3544   20.5962 N.am    1  UNL1       -0.2825
     32 H           5.6848   77.2021   21.1830 H       1  UNL1        0.1549
     33 C           4.4137   76.3866   19.6692 C.ar    1  UNL1        0.0535
     34 C           3.2588   75.6407   19.9419 C.ar    1  UNL1        0.0353
     35 C           2.1942   75.6582   19.0380 C.ar    1  UNL1        0.1002
     36 N           2.2868   76.3793   17.8897 N.ar    1  UNL1       -0.2422
     37 C           3.4023   77.0940   17.5860 C.ar    1  UNL1        0.1002
     38 C           4.4890   77.1060   18.4642 C.ar    1  UNL1        0.0353
     39 C           8.6347   76.2415   21.6161 C.3     1  UNL1        0.0569
     40 C           9.9433   75.6163   22.0082 C.ar    1  UNL1       -0.0017
     41 C          11.1621   76.2698   22.1672 C.ar    1  UNL1        0.0681
     42 N          12.1413   75.3806   22.4499 N.ar    1  UNL1       -0.3523
     43 C          11.5534   74.1716   22.4611 C.ar    1  UNL1        0.0563
     44 C          12.1620   72.9380   22.6889 C.ar    1  UNL1        0.0170
     45 C          11.3548   71.7868   22.6350 C.ar    1  UNL1        0.0015
     46 C           9.9742   71.8929   22.3547 C.ar    1  UNL1        0.0001
     47 C           9.3877   73.1512   22.1270 C.ar    1  UNL1        0.0012
     48 C          10.2127   74.2743   22.1915 C.ar    1  UNL1        0.0131
     49 H          13.1507   75.5931   22.6119 H       1  UNL1        0.1660
@<TRIPOS>BOND
     1     1     2    2
     2     2     3   am
     3     3    28    1
     4    28    39    1
     5    39    40    1
     6    40    41   ar
     7    41    42   ar
     8    42    43   ar
     9    43    44   ar
    10    44    45   ar
    11    45    46   ar
    12    46    47   ar
    13    47    48   ar
    14    28    29    1
    15    29    30    2
    16    29    31   am
    17    31    33    1
    18    33    34   ar
    19    34    35   ar
    20    35    36   ar
    21    36    37   ar
    22    37    38   ar
    23     2     5    1
    24     5     6   ar
    25     6     7   ar
    26     7     8   ar
    27     8    12    1
    28    12    13    1
    29    13    14    1
    30    14    15    1
    31    15    18    1
    32    18    19   ar
    33    19    20   ar
    34    20    21    1
    35    20    22   ar
    36    22    23    1
    37    22    24   ar
    38    24    25   ar
    39    25    26    1
    40    15    16    1
    41    16    17    1
    42     8     9   ar
    43     9    10   ar
    44    10    11    1
    45    48    40   ar
    46    38    33   ar
    47    10     5   ar
    48    48    43   ar
    49    17    12    1
    50    25    18   ar
    51     3     4    1
    52    42    49    1
    53    31    32    1
    54    21    27    1
@<TRIPOS>MOLECULE
*****
 49 54 0 0 0
SMALL
GASTEIGER

@<TRIPOS>ATOM
      1 O          10.7842   76.1730   22.9700 O.2     1  UNL1       -0.2701
      2 C           9.5896   76.3784   23.3164 C.2     1  UNL1        0.2483
      3 N           9.2443   76.4834   24.7096 N.am    1  UNL1       -0.2945
      4 H           8.2396   76.6138   24.9645 H       1  UNL1        0.1501
      5 C           8.5398   76.4294   22.2799 C.ar    1  UNL1        0.0808
      6 C           8.0039   75.2312   21.7881 C.ar    1  UNL1        0.0080
      7 C           6.9341   75.2490   20.8929 C.ar    1  UNL1        0.0148
      8 C           6.3802   76.4694   20.4620 C.ar    1  UNL1        0.0502
      9 C           6.9698   77.6683   20.8980 C.ar    1  UNL1        0.0443
     10 C           8.0356   77.6526   21.8037 C.ar    1  UNL1        0.1457
     11 F           8.5800   78.8310   22.1998 F       1  UNL1       -0.2040
     12 N           5.1716   76.4998   19.6663 N.pl3   1  UNL1       -0.3040
     13 C           4.3469   75.2960   19.4921 C.3     1  UNL1        0.1122
     14 C           3.1845   75.3098   20.5077 C.3     1  UNL1        0.1123
     15 N           3.0255   76.6539   21.0897 N.pl3   1  UNL1       -0.3034
     16 C           3.1152   77.7916   20.1637 C.3     1  UNL1        0.1123
     17 C           4.4796   77.7821   19.4398 C.3     1  UNL1        0.1122
     18 C           3.2390   76.8454   22.5044 C.ar    1  UNL1        0.0592
     19 C           4.2853   76.1698   23.1576 C.ar    1  UNL1        0.0221
     20 C           4.4434   76.2594   24.5432 C.ar    1  UNL1        0.0334
     21 S           5.7584   75.3206   25.3251 S.3     1  UNL1       -0.1405
     22 C           3.5692   77.0621   25.2934 C.ar    1  UNL1        0.0640
     23 CL          3.7277   77.2046   27.0398 Cl      1  UNL1       -0.0817
     24 C           2.5479   77.7667   24.6468 C.ar    1  UNL1        0.0245
     25 C           2.3762   77.6620   23.2614 C.ar    1  UNL1        0.0718
     26 CL          1.0983   78.5981   22.4967 Cl      1  UNL1       -0.0809
     27 H           4.9230   74.2057   25.5262 H       1  UNL1        0.1072
     28 C          10.1780   76.2252   25.8109 C.3     1  UNL1        0.1535
     29 C          11.1536   77.3703   25.9472 C.2     1  UNL1        0.2443
     30 O          11.9495   77.4111   26.9252 O.2     1  UNL1       -0.2730
     31 N          11.0966   78.4610   25.0145 N.am    1  UNL1       -0.2825
     32 H          10.2449   78.5425   24.4139 H       1  UNL1        0.1549
     33 C          12.0762   79.5109   24.9440 C.ar    1  UNL1        0.0535
     34 C          13.4384   79.1823   24.9118 C.ar    1  UNL1        0.0353
     35 C          14.3943   80.1990   24.8566 C.ar    1  UNL1        0.1002
     36 N          14.0051   81.5013   24.8548 N.ar    1  UNL1       -0.2422
     37 C          12.6930   81.8521   24.9086 C.ar    1  UNL1        0.1002
     38 C          11.7044   80.8661   24.9619 C.ar    1  UNL1        0.0353
     39 C           9.4198   75.9027   27.1147 C.3     1  UNL1        0.0569
     40 C           8.5537   77.0530   27.5434 C.ar    1  UNL1       -0.0017
     41 C           7.3971   77.5029   26.9126 C.ar    1  UNL1        0.0681
     42 N           6.9208   78.6072   27.5316 N.ar    1  UNL1       -0.3523
     43 C           7.7713   78.8635   28.5408 C.ar    1  UNL1        0.0563
     44 C           7.7079   79.9162   29.4527 C.ar    1  UNL1        0.0170
     45 C           8.7215   80.0064   30.4244 C.ar    1  UNL1        0.0015
     46 C           9.7653   79.0550   30.4603 C.ar    1  UNL1        0.0001
     47 C           9.8047   78.0043   29.5258 C.ar    1  UNL1        0.0012
     48 C           8.7835   77.9389   28.5776 C.ar    1  UNL1        0.0131
     49 H           6.0719   79.1547   27.2672 H       1  UNL1        0.1660
@<TRIPOS>BOND
     1     1     2    2
     2     2     3   am
     3     3    28    1
     4    28    39    1
     5    39    40    1
     6    40    41   ar
     7    41    42   ar
     8    42    43   ar
     9    43    44   ar
    10    44    45   ar
    11    45    46   ar
    12    46    47   ar
    13    47    48   ar
    14    28    29    1
    15    29    30    2
    16    29    31   am
    17    31    33    1
    18    33    34   ar
    19    34    35   ar
    20    35    36   ar
    21    36    37   ar
    22    37    38   ar
    23     2     5    1
    24     5     6   ar
    25     6     7   ar
    26     7     8   ar
    27     8    12    1
    28    12    13    1
    29    13    14    1
    30    14    15    1
    31    15    18    1
    32    18    19   ar
    33    19    20   ar
    34    20    21    1
    35    20    22   ar
    36    22    23    1
    37    22    24   ar
    38    24    25   ar
    39    25    26    1
    40    15    16    1
    41    16    17    1
    42     8     9   ar
    43     9    10   ar
    44    10    11    1
    45    48    40   ar
    46    38    33   ar
    47    10     5   ar
    48    48    43   ar
    49    17    12    1
    50    25    18   ar
    51     3     4    1
    52    42    49    1
    53    31    32    1
    54    21    27    1
