@<TRIPOS>MOLECULE
*****
 45 50 0 0 0
SMALL
GASTEIGER

@<TRIPOS>ATOM
      1 C          59.4315   91.0108    5.8003 C.ar    1  UNL1        0.0702
      2 C          60.6101   91.0862    5.0501 C.ar    1  UNL1        0.0191
      3 C          60.6171   91.7271    3.8104 C.ar    1  UNL1        0.0356
      4 C          59.4272   92.2843    3.3070 C.ar    1  UNL1        0.1318
      5 N          58.2877   92.1729    4.0467 N.ar    1  UNL1       -0.2279
      6 C          58.2582   91.5568    5.2577 C.ar    1  UNL1        0.1149
      7 N          59.3936   92.9664    2.0307 N.pl3   1  UNL1       -0.2932
      8 C          58.9616   92.2595    0.8113 C.3     1  UNL1        0.0923
      9 C          59.3237   93.0393   -0.4615 C.3     1  UNL1        0.0252
     10 C          60.7477   93.6096   -0.3427 C.3     1  UNL1        0.0472
     11 C          60.8764   94.5772    0.8652 C.3     1  UNL1        0.0252
     12 C          59.7803   94.3827    1.9264 C.3     1  UNL1        0.0923
     13 C          61.1680   94.2925   -1.6581 C.3     1  UNL1        0.2054
     14 O          62.5774   94.1834   -1.8664 O.3     1  UNL1       -0.4755
     15 C          63.5508   94.1202   -0.8559 C.ar    1  UNL1        0.1388
     16 C          64.7342   94.8822   -0.8890 C.ar    1  UNL1        0.0369
     17 C          65.6668   94.7761    0.1446 C.ar    1  UNL1        0.0033
     18 C          65.4317   93.9169    1.2199 C.ar    1  UNL1        0.0066
     19 C          64.2534   93.1525    1.2738 C.ar    1  UNL1        0.0785
     20 C          63.3189   93.2650    0.2291 C.ar    1  UNL1        0.0433
     21 C          63.9966   92.2412    2.4110 C.2     1  UNL1        0.3381
     22 O          63.3492   92.6412    3.4164 O.2     1  UNL1       -0.2451
     23 O          64.4683   90.9313    2.3816 O.3     1  UNL1       -0.4771
     24 H          64.2980   90.2995    3.1549 H       1  UNL1        0.2954
     25 C          59.5391   88.9013    7.2090 C.2     1  UNL1        0.2839
     26 O          59.3547   88.1536    6.2123 O.2     1  UNL1       -0.2665
     27 N          59.4353   90.3277    7.0659 N.am    1  UNL1       -0.2766
     28 H          59.2779   90.8992    7.9266 H       1  UNL1        0.1553
     29 C          61.4428   90.0502    9.5685 C.3     1  UNL1        0.0345
     30 C          60.6286   88.7880    9.5593 C.ar    1  UNL1        0.0207
     31 C          59.7800   88.3170    8.5448 C.ar    1  UNL1        0.1946
     32 O          59.1861   87.2080    8.9377 O.2     1  UNL1       -0.4492
     33 C          59.6143   86.9178   10.1392 C.ar    1  UNL1        0.1457
     34 C          59.2340   85.8271   10.9097 C.ar    1  UNL1        0.0375
     35 C          59.8140   85.6794   12.1758 C.ar    1  UNL1        0.0036
     36 C          60.7709   86.6092   12.6486 C.ar    1  UNL1        0.0064
     37 C          61.1358   87.7255   11.8459 C.ar    1  UNL1        0.0373
     38 BR         62.4027   89.0218   12.4953 Br      1  UNL1       -0.0489
     39 C          60.5231   87.8483   10.5821 C.ar    1  UNL1        0.0399
     40 C          61.3715   86.3842   13.9803 C.ar    1  UNL1        0.0005
     41 C          60.7359   86.8616   15.1388 C.ar    1  UNL1        0.0000
     42 C          61.3196   86.6640   16.3940 C.ar    1  UNL1        0.0000
     43 C          62.5441   85.9986   16.5002 C.ar    1  UNL1        0.0000
     44 C          63.1890   85.5334   15.3507 C.ar    1  UNL1        0.0000
     45 C          62.6086   85.7288   14.0936 C.ar    1  UNL1        0.0000
@<TRIPOS>BOND
     1    29    30    1
     2    30    31   ar
     3    31    25    1
     4    25    26    2
     5    25    27   am
     6    27     1    1
     7     1     2   ar
     8     2     3   ar
     9     3     4   ar
    10     4     7    1
    11     7     8    1
    12     8     9    1
    13     9    10    1
    14    10    13    1
    15    13    14    1
    16    14    15    1
    17    15    16   ar
    18    16    17   ar
    19    17    18   ar
    20    18    19   ar
    21    19    21    1
    22    21    22    2
    23    21    23    1
    24    19    20   ar
    25    10    11    1
    26    11    12    1
    27     4     5   ar
    28     5     6   ar
    29    31    32   ar
    30    32    33   ar
    31    33    34   ar
    32    34    35   ar
    33    35    36   ar
    34    36    40    1
    35    40    41   ar
    36    41    42   ar
    37    42    43   ar
    38    43    44   ar
    39    44    45   ar
    40    36    37   ar
    41    37    38    1
    42    37    39   ar
    43    39    30   ar
    44     6     1   ar
    45    39    33   ar
    46    12     7    1
    47    45    40   ar
    48    20    15   ar
    49    27    28    1
    50    23    24    1
@<TRIPOS>MOLECULE
*****
 45 50 0 0 0
SMALL
GASTEIGER

@<TRIPOS>ATOM
      1 C          59.5404   87.7327    7.7108 C.ar    1  UNL1        0.0702
      2 C          58.6125   86.6910    7.6043 C.ar    1  UNL1        0.0191
      3 C          58.3345   85.8790    8.7048 C.ar    1  UNL1        0.0356
      4 C          59.0052   86.1006    9.9217 C.ar    1  UNL1        0.1318
      5 N          59.9237   87.1054    9.9896 N.ar    1  UNL1       -0.2279
      6 C          60.2076   87.9107    8.9324 C.ar    1  UNL1        0.1149
      7 N          58.7386   85.2882   11.0897 N.pl3   1  UNL1       -0.2932
      8 C          59.6651   85.2929   12.2364 C.3     1  UNL1        0.0923
      9 C          59.3903   84.1283   13.1995 C.3     1  UNL1        0.0252
     10 C          59.1259   82.8382   12.4041 C.3     1  UNL1        0.0472
     11 C          57.8956   82.9865   11.4681 C.3     1  UNL1        0.0252
     12 C          57.5317   84.4489   11.1604 C.3     1  UNL1        0.0923
     13 C          58.9664   81.6385   13.3574 C.3     1  UNL1        0.2054
     14 O          59.9477   80.6351   13.0895 O.3     1  UNL1       -0.4755
     15 C          60.9621   80.7211   12.1219 C.ar    1  UNL1        0.1388
     16 C          61.0229   79.8679   11.0037 C.ar    1  UNL1        0.0369
     17 C          62.0571   80.0000   10.0750 C.ar    1  UNL1        0.0033
     18 C          63.0361   80.9809   10.2460 C.ar    1  UNL1        0.0066
     19 C          62.9890   81.8460   11.3528 C.ar    1  UNL1        0.0785
     20 C          61.9442   81.7067   12.2836 C.ar    1  UNL1        0.0433
     21 C          64.0220   82.8890   11.5396 C.2     1  UNL1        0.3381
     22 O          63.6914   84.0702   11.8319 O.2     1  UNL1       -0.2451
     23 O          65.3709   82.5753   11.3939 O.3     1  UNL1       -0.4771
     24 H          66.0859   83.2819   11.5195 H       1  UNL1        0.2954
     25 C          60.0508   89.9661    6.6166 C.2     1  UNL1        0.2839
     26 O          59.7233   90.6140    7.6459 O.2     1  UNL1       -0.2665
     27 N          59.8324   88.5466    6.5616 N.am    1  UNL1       -0.2766
     28 H          59.8099   88.0874    5.6230 H       1  UNL1        0.1553
     29 C          58.4075   91.7257    4.4452 C.3     1  UNL1        0.0345
     30 C          59.8746   91.4044    4.4661 C.ar    1  UNL1        0.0207
     31 C          60.5824   90.6697    5.4308 C.ar    1  UNL1        0.1946
     32 O          61.8669   90.6652    5.1355 O.2     1  UNL1       -0.4492
     33 C          62.0340   91.3350    4.0245 C.ar    1  UNL1        0.1457
     34 C          63.2383   91.5653    3.3729 C.ar    1  UNL1        0.0375
     35 C          63.2137   92.3009    2.1815 C.ar    1  UNL1        0.0036
     36 C          61.9930   92.7831    1.6514 C.ar    1  UNL1        0.0064
     37 C          60.7731   92.5448    2.3432 C.ar    1  UNL1        0.0373
     38 BR         59.1112   93.2332    1.6564 Br      1  UNL1       -0.0489
     39 C          60.8373   91.8107    3.5452 C.ar    1  UNL1        0.0399
     40 C          62.0260   93.5268    0.3744 C.ar    1  UNL1        0.0005
     41 C          60.8366   93.9955   -0.2083 C.ar    1  UNL1        0.0000
     42 C          60.8722   94.6802   -1.4270 C.ar    1  UNL1        0.0000
     43 C          62.0917   94.8925   -2.0759 C.ar    1  UNL1        0.0000
     44 C          63.2774   94.4167   -1.5089 C.ar    1  UNL1        0.0000
     45 C          63.2462   93.7317   -0.2903 C.ar    1  UNL1        0.0000
@<TRIPOS>BOND
     1    29    30    1
     2    30    31   ar
     3    31    25    1
     4    25    26    2
     5    25    27   am
     6    27     1    1
     7     1     2   ar
     8     2     3   ar
     9     3     4   ar
    10     4     7    1
    11     7     8    1
    12     8     9    1
    13     9    10    1
    14    10    13    1
    15    13    14    1
    16    14    15    1
    17    15    16   ar
    18    16    17   ar
    19    17    18   ar
    20    18    19   ar
    21    19    21    1
    22    21    22    2
    23    21    23    1
    24    19    20   ar
    25    10    11    1
    26    11    12    1
    27     4     5   ar
    28     5     6   ar
    29    31    32   ar
    30    32    33   ar
    31    33    34   ar
    32    34    35   ar
    33    35    36   ar
    34    36    40    1
    35    40    41   ar
    36    41    42   ar
    37    42    43   ar
    38    43    44   ar
    39    44    45   ar
    40    36    37   ar
    41    37    38    1
    42    37    39   ar
    43    39    30   ar
    44     6     1   ar
    45    39    33   ar
    46    12     7    1
    47    45    40   ar
    48    20    15   ar
    49    27    28    1
    50    23    24    1
@<TRIPOS>MOLECULE
*****
 45 50 0 0 0
SMALL
GASTEIGER

@<TRIPOS>ATOM
      1 C          59.9505   90.8143    5.8532 C.ar    1  UNL1        0.0702
      2 C          61.0343   91.0378    4.9971 C.ar    1  UNL1        0.0191
      3 C          60.8553   91.7308    3.7990 C.ar    1  UNL1        0.0356
      4 C          59.5736   92.1907    3.4446 C.ar    1  UNL1        0.1318
      5 N          58.5309   91.9357    4.2846 N.ar    1  UNL1       -0.2279
      6 C          58.6824   91.2665    5.4576 C.ar    1  UNL1        0.1149
      7 N          59.3468   92.9224    2.2163 N.pl3   1  UNL1       -0.2932
      8 C          58.7763   92.2500    1.0349 C.3     1  UNL1        0.0923
      9 C          58.9388   93.0936   -0.2384 C.3     1  UNL1        0.0252
     10 C          60.3474   93.7108   -0.2852 C.3     1  UNL1        0.0472
     11 C          60.6077   94.6328    0.9371 C.3     1  UNL1        0.0252
     12 C          59.6715   94.3550    2.1253 C.3     1  UNL1        0.0923
     13 C          60.5647   94.4615   -1.6128 C.3     1  UNL1        0.2054
     14 O          61.9076   94.3079   -2.0763 O.3     1  UNL1       -0.4755
     15 C          63.0526   94.2612   -1.2641 C.ar    1  UNL1        0.1388
     16 C          64.2627   94.8886   -1.6162 C.ar    1  UNL1        0.0369
     17 C          65.3690   94.8063   -0.7684 C.ar    1  UNL1        0.0033
     18 C          65.2827   94.1048    0.4358 C.ar    1  UNL1        0.0066
     19 C          64.0814   93.4769    0.8076 C.ar    1  UNL1        0.0785
     20 C          62.9716   93.5645   -0.0516 C.ar    1  UNL1        0.0433
     21 C          63.9820   92.7333    2.0831 C.2     1  UNL1        0.3381
     22 O          63.8879   91.4759    2.0837 O.2     1  UNL1       -0.2451
     23 O          63.9912   93.4164    3.2966 O.3     1  UNL1       -0.4771
     24 H          63.9236   92.9169    4.1753 H       1  UNL1        0.2954
     25 C          59.5472   88.8021    7.3481 C.2     1  UNL1        0.2839
     26 O          58.5932   88.3888    6.6370 O.2     1  UNL1       -0.2665
     27 N          60.1468   90.0792    7.0737 N.am    1  UNL1       -0.2766
     28 H          60.6985   90.5381    7.8335 H       1  UNL1        0.1553
     29 C          60.9006   85.8561    7.3634 C.3     1  UNL1        0.0345
     30 C          60.5548   86.7290    8.5358 C.ar    1  UNL1        0.0207
     31 C          60.0001   88.0186    8.5163 C.ar    1  UNL1        0.1946
     32 O          59.9095   88.4850    9.7457 O.2     1  UNL1       -0.4492
     33 C          60.3521   87.5668   10.5655 C.ar    1  UNL1        0.1457
     34 C          60.4262   87.6619   11.9488 C.ar    1  UNL1        0.0375
     35 C          60.9226   86.5625   12.6601 C.ar    1  UNL1        0.0036
     36 C          61.3239   85.3838   11.9869 C.ar    1  UNL1        0.0064
     37 C          61.2500   85.3142   10.5680 C.ar    1  UNL1        0.0373
     38 BR         61.8343   83.7335    9.6367 Br      1  UNL1       -0.0489
     39 C          60.7562   86.4440    9.8843 C.ar    1  UNL1        0.0399
     40 C          61.8107   84.2446   12.7933 C.ar    1  UNL1        0.0005
     41 C          63.1310   84.2237   13.2731 C.ar    1  UNL1        0.0000
     42 C          63.5920   83.1336   14.0176 C.ar    1  UNL1        0.0000
     43 C          62.7430   82.0546   14.2793 C.ar    1  UNL1        0.0000
     44 C          61.4325   82.0623   13.7930 C.ar    1  UNL1        0.0000
     45 C          60.9675   83.1506   13.0483 C.ar    1  UNL1        0.0000
@<TRIPOS>BOND
     1    29    30    1
     2    30    31   ar
     3    31    25    1
     4    25    26    2
     5    25    27   am
     6    27     1    1
     7     1     2   ar
     8     2     3   ar
     9     3     4   ar
    10     4     7    1
    11     7     8    1
    12     8     9    1
    13     9    10    1
    14    10    13    1
    15    13    14    1
    16    14    15    1
    17    15    16   ar
    18    16    17   ar
    19    17    18   ar
    20    18    19   ar
    21    19    21    1
    22    21    22    2
    23    21    23    1
    24    19    20   ar
    25    10    11    1
    26    11    12    1
    27     4     5   ar
    28     5     6   ar
    29    31    32   ar
    30    32    33   ar
    31    33    34   ar
    32    34    35   ar
    33    35    36   ar
    34    36    40    1
    35    40    41   ar
    36    41    42   ar
    37    42    43   ar
    38    43    44   ar
    39    44    45   ar
    40    36    37   ar
    41    37    38    1
    42    37    39   ar
    43    39    30   ar
    44     6     1   ar
    45    39    33   ar
    46    12     7    1
    47    45    40   ar
    48    20    15   ar
    49    27    28    1
    50    23    24    1
@<TRIPOS>MOLECULE
*****
 45 50 0 0 0
SMALL
GASTEIGER

@<TRIPOS>ATOM
      1 C          60.0953   88.9071    8.0097 C.ar    1  UNL1        0.0702
      2 C          59.7058   87.5692    8.1354 C.ar    1  UNL1        0.0191
      3 C          59.5380   86.9994    9.3983 C.ar    1  UNL1        0.0356
      4 C          59.7792   87.7719   10.5493 C.ar    1  UNL1        0.1318
      5 N          60.1835   89.0647   10.3973 N.ar    1  UNL1       -0.2279
      6 C          60.3497   89.6414    9.1781 C.ar    1  UNL1        0.1149
      7 N          59.6069   87.2224   11.8774 N.pl3   1  UNL1       -0.2932
      8 C          58.8041   87.9353   12.8877 C.3     1  UNL1        0.0923
      9 C          59.0304   87.3737   14.2994 C.3     1  UNL1        0.0252
     10 C          60.5287   87.1074   14.5264 C.3     1  UNL1        0.0472
     11 C          61.0867   86.0781   13.5060 C.3     1  UNL1        0.0252
     12 C          60.2211   85.9358   12.2427 C.3     1  UNL1        0.0923
     13 C          60.7838   86.6565   15.9773 C.3     1  UNL1        0.2054
     14 O          61.9131   87.3317   16.5343 O.3     1  UNL1       -0.4755
     15 C          62.7919   88.1723   15.8313 C.ar    1  UNL1        0.1388
     16 C          63.4857   87.7566   14.6791 C.ar    1  UNL1        0.0369
     17 C          64.3480   88.6370   14.0228 C.ar    1  UNL1        0.0033
     18 C          64.5259   89.9365   14.5017 C.ar    1  UNL1        0.0066
     19 C          63.8375   90.3718   15.6471 C.ar    1  UNL1        0.0785
     20 C          62.9707   89.4793   16.3024 C.ar    1  UNL1        0.0433
     21 C          64.0197   91.7481   16.1593 C.2     1  UNL1        0.3381
     22 O          63.1144   92.3009   16.8412 O.2     1  UNL1       -0.2451
     23 O          65.1944   92.4468   15.8926 O.3     1  UNL1       -0.4771
     24 H          65.3291   93.3894   16.2385 H       1  UNL1        0.2954
     25 C          59.4430   90.4914    6.1360 C.2     1  UNL1        0.2839
     26 O          58.3239   90.7431    6.6565 O.2     1  UNL1       -0.2665
     27 N          60.2855   89.4735    6.7015 N.am    1  UNL1       -0.2766
     28 H          61.0367   89.0654    6.1003 H       1  UNL1        0.1553
     29 C          62.3888   90.5391    4.7830 C.3     1  UNL1        0.0345
     30 C          61.1399   91.2346    4.3217 C.ar    1  UNL1        0.0207
     31 C          59.8601   91.1792    4.8965 C.ar    1  UNL1        0.1946
     32 O          59.0101   91.8685    4.1621 O.2     1  UNL1       -0.4492
     33 C          59.6652   92.3869    3.1555 C.ar    1  UNL1        0.1457
     34 C          59.1358   93.1828    2.1485 C.ar    1  UNL1        0.0375
     35 C          60.0034   93.6551    1.1559 C.ar    1  UNL1        0.0036
     36 C          61.3831   93.3401    1.1882 C.ar    1  UNL1        0.0064
     37 C          61.9003   92.5129    2.2235 C.ar    1  UNL1        0.0373
     38 BR         63.7665   92.0402    2.2544 Br      1  UNL1       -0.0489
     39 C          60.9956   92.0462    3.1990 C.ar    1  UNL1        0.0399
     40 C          62.2554   93.8928    0.1306 C.ar    1  UNL1        0.0005
     41 C          61.7045   94.3700   -1.0705 C.ar    1  UNL1        0.0000
     42 C          62.5367   94.8723   -2.0758 C.ar    1  UNL1        0.0000
     43 C          63.9222   94.8924   -1.8932 C.ar    1  UNL1        0.0000
     44 C          64.4782   94.4063   -0.7065 C.ar    1  UNL1        0.0000
     45 C          63.6495   93.9033    0.3014 C.ar    1  UNL1        0.0000
@<TRIPOS>BOND
     1    29    30    1
     2    30    31   ar
     3    31    25    1
     4    25    26    2
     5    25    27   am
     6    27     1    1
     7     1     2   ar
     8     2     3   ar
     9     3     4   ar
    10     4     7    1
    11     7     8    1
    12     8     9    1
    13     9    10    1
    14    10    13    1
    15    13    14    1
    16    14    15    1
    17    15    16   ar
    18    16    17   ar
    19    17    18   ar
    20    18    19   ar
    21    19    21    1
    22    21    22    2
    23    21    23    1
    24    19    20   ar
    25    10    11    1
    26    11    12    1
    27     4     5   ar
    28     5     6   ar
    29    31    32   ar
    30    32    33   ar
    31    33    34   ar
    32    34    35   ar
    33    35    36   ar
    34    36    40    1
    35    40    41   ar
    36    41    42   ar
    37    42    43   ar
    38    43    44   ar
    39    44    45   ar
    40    36    37   ar
    41    37    38    1
    42    37    39   ar
    43    39    30   ar
    44     6     1   ar
    45    39    33   ar
    46    12     7    1
    47    45    40   ar
    48    20    15   ar
    49    27    28    1
    50    23    24    1
@<TRIPOS>MOLECULE
*****
 45 50 0 0 0
SMALL
GASTEIGER

@<TRIPOS>ATOM
      1 C          59.5431   87.6181    7.6730 C.ar    1  UNL1        0.0702
      2 C          58.6199   86.5734    7.5556 C.ar    1  UNL1        0.0191
      3 C          58.3454   85.7488    8.6477 C.ar    1  UNL1        0.0356
      4 C          59.0149   85.9608    9.8669 C.ar    1  UNL1        0.1318
      5 N          59.9289   86.9689    9.9454 N.ar    1  UNL1       -0.2279
      6 C          60.2094   87.7864    8.8965 C.ar    1  UNL1        0.1149
      7 N          58.7518   85.1352   11.0264 N.pl3   1  UNL1       -0.2932
      8 C          59.4231   85.4064   12.3106 C.3     1  UNL1        0.0923
      9 C          59.2775   84.2336   13.2919 C.3     1  UNL1        0.0252
     10 C          59.4932   82.9004   12.5549 C.3     1  UNL1        0.0472
     11 C          58.4564   82.7035   11.4156 C.3     1  UNL1        0.0252
     12 C          57.8009   84.0145   10.9495 C.3     1  UNL1        0.0923
     13 C          59.4678   81.7233   13.5485 C.3     1  UNL1        0.2054
     14 O          60.7915   81.2847   13.8598 O.3     1  UNL1       -0.4755
     15 C          61.9756   81.8073   13.3141 C.ar    1  UNL1        0.1388
     16 C          62.5383   81.3288   12.1156 C.ar    1  UNL1        0.0369
     17 C          63.7192   81.8871   11.6224 C.ar    1  UNL1        0.0033
     18 C          64.3486   82.9258   12.3114 C.ar    1  UNL1        0.0066
     19 C          63.7988   83.4210   13.5064 C.ar    1  UNL1        0.0785
     20 C          62.6092   82.8536   13.9966 C.ar    1  UNL1        0.0433
     21 C          64.4593   84.5227   14.2411 C.2     1  UNL1        0.3381
     22 O          63.9277   85.6649   14.2925 O.2     1  UNL1       -0.2451
     23 O          65.6761   84.3080   14.8835 O.3     1  UNL1       -0.4771
     24 H          66.1365   85.0555   15.3890 H       1  UNL1        0.2954
     25 C          60.0666   89.8612    6.6052 C.2     1  UNL1        0.2839
     26 O          59.7579   90.4977    7.6472 O.2     1  UNL1       -0.2665
     27 N          59.8316   88.4451    6.5324 N.am    1  UNL1       -0.2766
     28 H          59.7935   87.9997    5.5876 H       1  UNL1        0.1553
     29 C          58.4184   91.6643    4.4738 C.3     1  UNL1        0.0345
     30 C          59.8826   91.3296    4.4759 C.ar    1  UNL1        0.0207
     31 C          60.5931   90.5757    5.4236 C.ar    1  UNL1        0.1946
     32 O          61.8745   90.5636    5.1157 O.2     1  UNL1       -0.4492
     33 C          62.0369   91.2468    4.0120 C.ar    1  UNL1        0.1457
     34 C          63.2367   91.4749    3.3517 C.ar    1  UNL1        0.0375
     35 C          63.2073   92.2266    2.1705 C.ar    1  UNL1        0.0036
     36 C          61.9859   92.7268    1.6589 C.ar    1  UNL1        0.0064
     37 C          60.7707   92.4903    2.3596 C.ar    1  UNL1        0.0373
     38 BR         59.1085   93.2027    1.6985 Br      1  UNL1       -0.0489
     39 C          60.8399   91.7396    3.5510 C.ar    1  UNL1        0.0399
     40 C          62.0132   93.4872    0.3918 C.ar    1  UNL1        0.0005
     41 C          60.9024   93.4790   -0.4685 C.ar    1  UNL1        0.0000
     42 C          60.9420   94.1833   -1.6758 C.ar    1  UNL1        0.0000
     43 C          62.0920   94.8910   -2.0365 C.ar    1  UNL1        0.0000
     44 C          63.2059   94.8921   -1.1922 C.ar    1  UNL1        0.0000
     45 C          63.1703   94.1892    0.0161 C.ar    1  UNL1        0.0000
@<TRIPOS>BOND
     1    29    30    1
     2    30    31   ar
     3    31    25    1
     4    25    26    2
     5    25    27   am
     6    27     1    1
     7     1     2   ar
     8     2     3   ar
     9     3     4   ar
    10     4     7    1
    11     7     8    1
    12     8     9    1
    13     9    10    1
    14    10    13    1
    15    13    14    1
    16    14    15    1
    17    15    16   ar
    18    16    17   ar
    19    17    18   ar
    20    18    19   ar
    21    19    21    1
    22    21    22    2
    23    21    23    1
    24    19    20   ar
    25    10    11    1
    26    11    12    1
    27     4     5   ar
    28     5     6   ar
    29    31    32   ar
    30    32    33   ar
    31    33    34   ar
    32    34    35   ar
    33    35    36   ar
    34    36    40    1
    35    40    41   ar
    36    41    42   ar
    37    42    43   ar
    38    43    44   ar
    39    44    45   ar
    40    36    37   ar
    41    37    38    1
    42    37    39   ar
    43    39    30   ar
    44     6     1   ar
    45    39    33   ar
    46    12     7    1
    47    45    40   ar
    48    20    15   ar
    49    27    28    1
    50    23    24    1
@<TRIPOS>MOLECULE
*****
 45 50 0 0 0
SMALL
GASTEIGER

@<TRIPOS>ATOM
      1 C          61.5964   87.8828   10.8018 C.ar    1  UNL1        0.0702
      2 C          61.2784   88.1310    9.4621 C.ar    1  UNL1        0.0191
      3 C          60.4865   87.2314    8.7470 C.ar    1  UNL1        0.0356
      4 C          60.0214   86.0609    9.3742 C.ar    1  UNL1        0.1318
      5 N          60.3686   85.8312   10.6721 N.ar    1  UNL1       -0.2279
      6 C          61.1351   86.6947   11.3889 C.ar    1  UNL1        0.1149
      7 N          59.1892   85.1074    8.6715 N.pl3   1  UNL1       -0.2932
      8 C          57.8104   84.8393    9.1190 C.3     1  UNL1        0.0923
      9 C          57.2335   83.5726    8.4696 C.3     1  UNL1        0.0252
     10 C          58.2918   82.4558    8.4620 C.3     1  UNL1        0.0472
     11 C          59.5555   82.8720    7.6611 C.3     1  UNL1        0.0252
     12 C          59.6995   84.3937    7.4898 C.3     1  UNL1        0.0923
     13 C          57.6900   81.1444    7.9221 C.3     1  UNL1        0.2054
     14 O          57.3586   80.2534    8.9888 O.3     1  UNL1       -0.4755
     15 C          57.9189   80.2755   10.2766 C.ar    1  UNL1        0.1388
     16 C          58.1560   79.1067   11.0246 C.ar    1  UNL1        0.0369
     17 C          58.7145   79.1914   12.3015 C.ar    1  UNL1        0.0033
     18 C          59.0452   80.4346   12.8444 C.ar    1  UNL1        0.0066
     19 C          58.8214   81.6124   12.1107 C.ar    1  UNL1        0.0785
     20 C          58.2588   81.5188   10.8254 C.ar    1  UNL1        0.0433
     21 C          59.1710   82.9332   12.6788 C.2     1  UNL1        0.3381
     22 O          58.5022   83.9574   12.3728 O.2     1  UNL1       -0.2451
     23 O          60.2438   83.0577   13.5581 O.3     1  UNL1       -0.4771
     24 H          60.4914   83.9573   13.9526 H       1  UNL1        0.2954
     25 C          62.1200   89.3297   12.8213 C.2     1  UNL1        0.2839
     26 O          60.9548   89.2110   13.2845 O.2     1  UNL1       -0.2665
     27 N          62.4318   88.8083   11.5187 N.am    1  UNL1       -0.2766
     28 H          63.2775   89.1789   11.0290 H       1  UNL1        0.1553
     29 C          64.9310   90.5075   11.7157 C.3     1  UNL1        0.0345
     30 C          64.3842   90.5593   13.1137 C.ar    1  UNL1        0.0207
     31 C          63.1492   90.0761   13.5747 C.ar    1  UNL1        0.1946
     32 O          63.0013   90.3720   14.8504 O.2     1  UNL1       -0.4492
     33 C          64.0761   91.0001   15.2523 C.ar    1  UNL1        0.1457
     34 C          64.3198   91.4837   16.5308 C.ar    1  UNL1        0.0375
     35 C          65.5418   92.1238   16.7723 C.ar    1  UNL1        0.0036
     36 C          66.5051   92.2602   15.7442 C.ar    1  UNL1        0.0064
     37 C          66.2279   91.7672   14.4390 C.ar    1  UNL1        0.0373
     38 BR         67.5112   91.9858   13.0203 Br      1  UNL1       -0.0489
     39 C          64.9832   91.1390   14.2296 C.ar    1  UNL1        0.0399
     40 C          67.7892   92.9176   16.0666 C.ar    1  UNL1        0.0005
     41 C          67.9818   94.2810   15.7872 C.ar    1  UNL1        0.0000
     42 C          69.2060   94.8923   16.0752 C.ar    1  UNL1        0.0000
     43 C          70.2474   94.1460   16.6337 C.ar    1  UNL1        0.0000
     44 C          70.0675   92.7859   16.9013 C.ar    1  UNL1        0.0000
     45 C          68.8448   92.1708   16.6150 C.ar    1  UNL1        0.0000
@<TRIPOS>BOND
     1    29    30    1
     2    30    31   ar
     3    31    25    1
     4    25    26    2
     5    25    27   am
     6    27     1    1
     7     1     2   ar
     8     2     3   ar
     9     3     4   ar
    10     4     7    1
    11     7     8    1
    12     8     9    1
    13     9    10    1
    14    10    13    1
    15    13    14    1
    16    14    15    1
    17    15    16   ar
    18    16    17   ar
    19    17    18   ar
    20    18    19   ar
    21    19    21    1
    22    21    22    2
    23    21    23    1
    24    19    20   ar
    25    10    11    1
    26    11    12    1
    27     4     5   ar
    28     5     6   ar
    29    31    32   ar
    30    32    33   ar
    31    33    34   ar
    32    34    35   ar
    33    35    36   ar
    34    36    40    1
    35    40    41   ar
    36    41    42   ar
    37    42    43   ar
    38    43    44   ar
    39    44    45   ar
    40    36    37   ar
    41    37    38    1
    42    37    39   ar
    43    39    30   ar
    44     6     1   ar
    45    39    33   ar
    46    12     7    1
    47    45    40   ar
    48    20    15   ar
    49    27    28    1
    50    23    24    1
@<TRIPOS>MOLECULE
*****
 45 50 0 0 0
SMALL
GASTEIGER

@<TRIPOS>ATOM
      1 C          60.2562   89.3563    8.3820 C.ar    1  UNL1        0.0702
      2 C          59.8495   88.0312    8.5722 C.ar    1  UNL1        0.0191
      3 C          59.6419   87.5352    9.8600 C.ar    1  UNL1        0.0356
      4 C          59.8603   88.3693   10.9719 C.ar    1  UNL1        0.1318
      5 N          60.2820   89.6478   10.7586 N.ar    1  UNL1       -0.2279
      6 C          60.4869   90.1532    9.5138 C.ar    1  UNL1        0.1149
      7 N          59.6466   87.8973   12.3236 N.pl3   1  UNL1       -0.2932
      8 C          59.5539   88.8483   13.4463 C.3     1  UNL1        0.0923
      9 C          59.6743   88.1431   14.8056 C.3     1  UNL1        0.0252
     10 C          60.7939   87.0890   14.7547 C.3     1  UNL1        0.0472
     11 C          60.5111   86.0072   13.6770 C.3     1  UNL1        0.0252
     12 C          59.5072   86.4591   12.6030 C.3     1  UNL1        0.0923
     13 C          61.0053   86.4575   16.1440 C.3     1  UNL1        0.2054
     14 O          62.3961   86.2966   16.4292 O.3     1  UNL1       -0.4755
     15 C          63.3044   85.5407   15.6698 C.ar    1  UNL1        0.1388
     16 C          64.4834   86.0862   15.1274 C.ar    1  UNL1        0.0369
     17 C          65.3481   85.2853   14.3790 C.ar    1  UNL1        0.0033
     18 C          65.0524   83.9374   14.1660 C.ar    1  UNL1        0.0066
     19 C          63.8831   83.3731   14.7044 C.ar    1  UNL1        0.0785
     20 C          63.0173   84.1862   15.4571 C.ar    1  UNL1        0.0433
     21 C          63.5640   81.9450   14.4843 C.2     1  UNL1        0.3381
     22 O          63.6155   81.4502   13.3256 O.2     1  UNL1       -0.2451
     23 O          63.2032   81.1328   15.5564 O.3     1  UNL1       -0.4771
     24 H          62.9828   80.1540   15.4166 H       1  UNL1        0.2954
     25 C          59.4652   90.4122    6.2129 C.2     1  UNL1        0.2839
     26 O          58.2510   90.2539    6.5078 O.2     1  UNL1       -0.2665
     27 N          60.4874   89.8461    7.0498 N.am    1  UNL1       -0.2766
     28 H          61.4404   89.7125    6.6419 H       1  UNL1        0.1553
     29 C          62.3832   90.5172    4.8037 C.3     1  UNL1        0.0345
     30 C          61.1120   91.1869    4.3657 C.ar    1  UNL1        0.0207
     31 C          59.8448   91.1066    4.9649 C.ar    1  UNL1        0.1946
     32 O          58.9672   91.7776    4.2462 O.2     1  UNL1       -0.4492
     33 C          59.5924   92.3077    3.2268 C.ar    1  UNL1        0.1457
     34 C          59.0281   93.0915    2.2292 C.ar    1  UNL1        0.0375
     35 C          59.8670   93.5798    1.2198 C.ar    1  UNL1        0.0036
     36 C          61.2530   93.2926    1.2261 C.ar    1  UNL1        0.0064
     37 C          61.8064   92.4773    2.2521 C.ar    1  UNL1        0.0373
     38 BR         63.6820   92.0422    2.2478 Br      1  UNL1       -0.0489
     39 C          60.9301   91.9939    3.2452 C.ar    1  UNL1        0.0399
     40 C          62.0938   93.8611    0.1515 C.ar    1  UNL1        0.0005
     41 C          61.5151   94.2891   -1.0552 C.ar    1  UNL1        0.0000
     42 C          62.3183   94.8066   -2.0761 C.ar    1  UNL1        0.0000
     43 C          63.7027   94.8912   -1.9037 C.ar    1  UNL1        0.0000
     44 C          64.2867   94.4543   -0.7113 C.ar    1  UNL1        0.0000
     45 C          63.4871   93.9362    0.3122 C.ar    1  UNL1        0.0000
@<TRIPOS>BOND
     1    29    30    1
     2    30    31   ar
     3    31    25    1
     4    25    26    2
     5    25    27   am
     6    27     1    1
     7     1     2   ar
     8     2     3   ar
     9     3     4   ar
    10     4     7    1
    11     7     8    1
    12     8     9    1
    13     9    10    1
    14    10    13    1
    15    13    14    1
    16    14    15    1
    17    15    16   ar
    18    16    17   ar
    19    17    18   ar
    20    18    19   ar
    21    19    21    1
    22    21    22    2
    23    21    23    1
    24    19    20   ar
    25    10    11    1
    26    11    12    1
    27     4     5   ar
    28     5     6   ar
    29    31    32   ar
    30    32    33   ar
    31    33    34   ar
    32    34    35   ar
    33    35    36   ar
    34    36    40    1
    35    40    41   ar
    36    41    42   ar
    37    42    43   ar
    38    43    44   ar
    39    44    45   ar
    40    36    37   ar
    41    37    38    1
    42    37    39   ar
    43    39    30   ar
    44     6     1   ar
    45    39    33   ar
    46    12     7    1
    47    45    40   ar
    48    20    15   ar
    49    27    28    1
    50    23    24    1
@<TRIPOS>MOLECULE
*****
 45 50 0 0 0
SMALL
GASTEIGER

@<TRIPOS>ATOM
      1 C          59.5677   88.1979    7.3556 C.ar    1  UNL1        0.0702
      2 C          58.8542   86.9960    7.2939 C.ar    1  UNL1        0.0191
      3 C          58.6555   86.2339    8.4460 C.ar    1  UNL1        0.0356
      4 C          59.1916   86.6704    9.6715 C.ar    1  UNL1        0.1318
      5 N          59.9052   87.8314    9.6977 N.ar    1  UNL1       -0.2279
      6 C          60.1080   88.5914    8.5894 C.ar    1  UNL1        0.1149
      7 N          58.9997   85.9152   10.8915 N.pl3   1  UNL1       -0.2932
      8 C          60.0858   85.7970   11.8814 C.3     1  UNL1        0.0923
      9 C          59.8043   84.6926   12.9112 C.3     1  UNL1        0.0252
     10 C          59.2398   83.4468   12.2066 C.3     1  UNL1        0.0472
     11 C          57.9113   83.7620   11.4667 C.3     1  UNL1        0.0252
     12 C          57.7130   85.2587   11.1731 C.3     1  UNL1        0.0923
     13 C          59.0645   82.2911   13.2101 C.3     1  UNL1        0.2054
     14 O          60.2070   81.4331   13.2106 O.3     1  UNL1       -0.4755
     15 C          61.0599   81.2063   12.1179 C.ar    1  UNL1        0.1388
     16 C          60.8337   80.1872   11.1734 C.ar    1  UNL1        0.0369
     17 C          61.7180   80.0085   10.1078 C.ar    1  UNL1        0.0033
     18 C          62.8304   80.8409    9.9687 C.ar    1  UNL1        0.0066
     19 C          63.0698   81.8678   10.8981 C.ar    1  UNL1        0.0785
     20 C          62.1746   82.0414   11.9684 C.ar    1  UNL1        0.0433
     21 C          64.2456   82.7549   10.7561 C.2     1  UNL1        0.3381
     22 O          64.2766   83.6348    9.8534 O.2     1  UNL1       -0.2451
     23 O          65.3308   82.6260   11.6193 O.3     1  UNL1       -0.4771
     24 H          66.1406   83.2282   11.5305 H       1  UNL1        0.2954
     25 C          59.5306   90.3713    6.0437 C.2     1  UNL1        0.2839
     26 O          58.8430   90.9592    6.9201 O.2     1  UNL1       -0.2665
     27 N          59.7830   88.9607    6.1556 N.am    1  UNL1       -0.2766
     28 H          60.0689   88.4414    5.2948 H       1  UNL1        0.1553
     29 C          62.4509   90.2027    4.6456 C.3     1  UNL1        0.0345
     30 C          61.2833   91.0671    4.2638 C.ar    1  UNL1        0.0207
     31 C          60.0106   91.1070    4.8554 C.ar    1  UNL1        0.1946
     32 O          59.2361   91.9432    4.1937 O.2     1  UNL1       -0.4492
     33 C          59.9357   92.4660    3.2198 C.ar    1  UNL1        0.1457
     34 C          59.4893   93.3945    2.2890 C.ar    1  UNL1        0.0375
     35 C          60.3951   93.8470    1.3216 C.ar    1  UNL1        0.0036
     36 C          61.7313   93.3799    1.3038 C.ar    1  UNL1        0.0064
     37 C          62.1623   92.4194    2.2605 C.ar    1  UNL1        0.0373
     38 BR         63.9644   91.7424    2.2199 Br      1  UNL1       -0.0489
     39 C          61.2202   91.9780    3.2120 C.ar    1  UNL1        0.0399
     40 C          62.6501   93.9166    0.2780 C.ar    1  UNL1        0.0005
     41 C          62.2838   93.9140   -1.0784 C.ar    1  UNL1        0.0000
     42 C          63.1659   94.4039   -2.0465 C.ar    1  UNL1        0.0000
     43 C          64.4209   94.8895   -1.6691 C.ar    1  UNL1        0.0000
     44 C          64.7976   94.8821   -0.3231 C.ar    1  UNL1        0.0000
     45 C          63.9184   94.3933    0.6482 C.ar    1  UNL1        0.0000
@<TRIPOS>BOND
     1    29    30    1
     2    30    31   ar
     3    31    25    1
     4    25    26    2
     5    25    27   am
     6    27     1    1
     7     1     2   ar
     8     2     3   ar
     9     3     4   ar
    10     4     7    1
    11     7     8    1
    12     8     9    1
    13     9    10    1
    14    10    13    1
    15    13    14    1
    16    14    15    1
    17    15    16   ar
    18    16    17   ar
    19    17    18   ar
    20    18    19   ar
    21    19    21    1
    22    21    22    2
    23    21    23    1
    24    19    20   ar
    25    10    11    1
    26    11    12    1
    27     4     5   ar
    28     5     6   ar
    29    31    32   ar
    30    32    33   ar
    31    33    34   ar
    32    34    35   ar
    33    35    36   ar
    34    36    40    1
    35    40    41   ar
    36    41    42   ar
    37    42    43   ar
    38    43    44   ar
    39    44    45   ar
    40    36    37   ar
    41    37    38    1
    42    37    39   ar
    43    39    30   ar
    44     6     1   ar
    45    39    33   ar
    46    12     7    1
    47    45    40   ar
    48    20    15   ar
    49    27    28    1
    50    23    24    1
@<TRIPOS>MOLECULE
*****
 45 50 0 0 0
SMALL
GASTEIGER

@<TRIPOS>ATOM
      1 C          61.8388   87.3202    9.6724 C.ar    1  UNL1        0.0702
      2 C          60.7715   87.6418    8.8268 C.ar    1  UNL1        0.0191
      3 C          59.9052   86.6454    8.3746 C.ar    1  UNL1        0.0356
      4 C          60.1190   85.3088    8.7586 C.ar    1  UNL1        0.1318
      5 N          61.1822   85.0202    9.5613 N.ar    1  UNL1       -0.2279
      6 C          62.0362   85.9743   10.0167 C.ar    1  UNL1        0.1149
      7 N          59.2382   84.2470    8.3203 N.pl3   1  UNL1       -0.2932
      8 C          57.8623   84.1486    8.8403 C.3     1  UNL1        0.0923
      9 C          57.2271   82.7860    8.5255 C.3     1  UNL1        0.0252
     10 C          58.2462   81.6601    8.7723 C.3     1  UNL1        0.0472
     11 C          59.5037   81.8214    7.8754 C.3     1  UNL1        0.0252
     12 C          59.6952   83.2501    7.3388 C.3     1  UNL1        0.0923
     13 C          57.5873   80.2816    8.5750 C.3     1  UNL1        0.2054
     14 O          57.4013   79.6169    9.8260 O.3     1  UNL1       -0.4755
     15 C          58.0442   79.9465   11.0306 C.ar    1  UNL1        0.1388
     16 C          58.4938   78.9751   11.9450 C.ar    1  UNL1        0.0369
     17 C          59.1255   79.3635   13.1280 C.ar    1  UNL1        0.0033
     18 C          59.3192   80.7169   13.4114 C.ar    1  UNL1        0.0066
     19 C          58.8826   81.7013   12.5082 C.ar    1  UNL1        0.0785
     20 C          58.2474   81.3022   11.3188 C.ar    1  UNL1        0.0433
     21 C          59.0861   83.1375   12.8009 C.2     1  UNL1        0.3381
     22 O          60.2100   83.5573   13.1887 O.2     1  UNL1       -0.2451
     23 O          58.0364   84.0403   12.6507 O.3     1  UNL1       -0.4771
     24 H          58.1652   85.0255   12.8485 H       1  UNL1        0.2954
     25 C          62.4538   89.2563   11.1953 C.2     1  UNL1        0.2839
     26 O          61.2792   89.3605   11.6380 O.2     1  UNL1       -0.2665
     27 N          62.7358   88.3548   10.1120 N.am    1  UNL1       -0.2766
     28 H          63.6109   88.5053    9.5607 H       1  UNL1        0.1553
     29 C          64.1689   88.8433   13.9154 C.3     1  UNL1        0.0345
     30 C          64.2541   89.9660   12.9213 C.ar    1  UNL1        0.0207
     31 C          63.5302   90.1174   11.7278 C.ar    1  UNL1        0.1946
     32 O          63.9370   91.1979   11.0922 O.2     1  UNL1       -0.4492
     33 C          64.8674   91.7704   11.8118 C.ar    1  UNL1        0.1457
     34 C          65.5556   92.9343   11.4962 C.ar    1  UNL1        0.0375
     35 C          66.5152   93.4001   12.4035 C.ar    1  UNL1        0.0036
     36 C          66.7649   92.7097   13.6138 C.ar    1  UNL1        0.0064
     37 C          66.0557   91.5126   13.9098 C.ar    1  UNL1        0.0373
     38 BR         66.4173   90.5397   15.5315 Br      1  UNL1       -0.0489
     39 C          65.1056   91.0674   12.9681 C.ar    1  UNL1        0.0399
     40 C          67.7674   93.2661   14.5466 C.ar    1  UNL1        0.0005
     41 C          69.0963   92.8107   14.5194 C.ar    1  UNL1        0.0000
     42 C          70.0353   93.3257   15.4185 C.ar    1  UNL1        0.0000
     43 C          69.6526   94.2896   16.3555 C.ar    1  UNL1        0.0000
     44 C          68.3291   94.7370   16.3976 C.ar    1  UNL1        0.0000
     45 C          67.3870   94.2247   15.5001 C.ar    1  UNL1        0.0000
@<TRIPOS>BOND
     1    29    30    1
     2    30    31   ar
     3    31    25    1
     4    25    26    2
     5    25    27   am
     6    27     1    1
     7     1     2   ar
     8     2     3   ar
     9     3     4   ar
    10     4     7    1
    11     7     8    1
    12     8     9    1
    13     9    10    1
    14    10    13    1
    15    13    14    1
    16    14    15    1
    17    15    16   ar
    18    16    17   ar
    19    17    18   ar
    20    18    19   ar
    21    19    21    1
    22    21    22    2
    23    21    23    1
    24    19    20   ar
    25    10    11    1
    26    11    12    1
    27     4     5   ar
    28     5     6   ar
    29    31    32   ar
    30    32    33   ar
    31    33    34   ar
    32    34    35   ar
    33    35    36   ar
    34    36    40    1
    35    40    41   ar
    36    41    42   ar
    37    42    43   ar
    38    43    44   ar
    39    44    45   ar
    40    36    37   ar
    41    37    38    1
    42    37    39   ar
    43    39    30   ar
    44     6     1   ar
    45    39    33   ar
    46    12     7    1
    47    45    40   ar
    48    20    15   ar
    49    27    28    1
    50    23    24    1
