@<TRIPOS>MOLECULE
*****
 36 40 0 0 0
SMALL
GASTEIGER

@<TRIPOS>ATOM
      1 C          50.2101    9.7500  -27.1238 C.2     1  UNL1        0.2492
      2 O          48.9974   10.0934  -27.1791 O.2     1  UNL1       -0.2699
      3 N          50.9687   10.0114  -25.9260 N.am    1  UNL1       -0.2760
      4 C          52.3674   10.4597  -26.0185 C.3     1  UNL1        0.0954
      5 C          52.7366   11.3851  -24.8451 C.3     1  UNL1        0.0399
      6 C          51.5703   12.3372  -24.4668 C.3     1  UNL1        0.0645
      7 C          50.3002   11.5094  -24.0769 C.3     1  UNL1        0.0399
      8 C          50.2962   10.0712  -24.6241 C.3     1  UNL1        0.0954
      9 C          51.2484   13.2733  -25.6901 C.3     1  UNL1        0.0477
     10 C          50.4599   14.4716  -25.2581 C.ar    1  UNL1        0.0220
     11 C          49.7015   15.3590  -25.9852 C.ar    1  UNL1        0.0923
     12 N          49.3409   16.3724  -25.1581 N.ar    1  UNL1       -0.2534
     13 N          49.8714   16.1763  -23.9539 N.ar    1  UNL1       -0.1651
     14 C          50.5518   15.0190  -24.0166 C.ar    1  UNL1        0.1515
     15 C          51.3594   14.3961  -22.9809 C.2     1  UNL1        0.2650
     16 O          51.5250   14.9449  -21.8596 O.2     1  UNL1       -0.2684
     17 N          51.9845   13.1407  -23.2900 N.am    1  UNL1       -0.3023
     18 H          52.6032   12.7099  -22.5656 H       1  UNL1        0.1497
     19 C          50.3326    6.4864  -32.3066 C.ar    1  UNL1        0.2249
     20 C          51.7036    6.5540  -32.5643 C.ar    1  UNL1        0.0578
     21 C          52.5383    7.2465  -31.6855 C.ar    1  UNL1        0.0093
     22 C          52.0000    7.8717  -30.5484 C.ar    1  UNL1        0.0519
     23 C          52.8119    8.5757  -29.6371 C.ar    1  UNL1        0.1402
     24 C          52.2148    9.1832  -28.5145 C.ar    1  UNL1        0.0415
     25 C          50.8286    9.1076  -28.3048 C.ar    1  UNL1        0.0581
     26 C          50.0330    8.3891  -29.2085 C.ar    1  UNL1        0.0239
     27 C          50.6074    7.7789  -30.3257 C.ar    1  UNL1        0.0874
     28 N          49.8215    7.0964  -31.2013 N.ar    1  UNL1       -0.2116
     29 C          48.0843    5.9163  -33.1718 C.3     1  UNL1        0.2542
     30 O          49.5013    5.7915  -33.1899 O.3     1  UNL1       -0.4561
     31 O          54.1963    8.6523  -29.8688 O.3     1  UNL1       -0.4714
     32 C          55.1199    7.5997  -29.6104 C.3     1  UNL1        0.2525
     33 C          48.5505   17.5605  -25.5377 C.3     1  UNL1        0.0867
     34 C          47.4879   17.8427  -24.4577 C.3     1  UNL1        0.0244
     35 C          49.4619   18.8001  -25.6680 C.3     1  UNL1        0.0244
     36 C          47.8616   17.3037  -26.8903 C.3     1  UNL1        0.0244
@<TRIPOS>BOND
     1    29    30    1
     2    30    19    1
     3    19    20   ar
     4    20    21   ar
     5    21    22   ar
     6    22    23   ar
     7    23    31    1
     8    31    32    1
     9    23    24   ar
    10    24    25   ar
    11    25     1    1
    12     1     2    2
    13     1     3   am
    14     3     4    1
    15     4     5    1
    16     5     6    1
    17     6     7    1
    18     7     8    1
    19     6     9    1
    20     9    10    1
    21    10    11   ar
    22    11    12   ar
    23    12    33    1
    24    33    34    1
    25    33    35    1
    26    33    36    1
    27    12    13   ar
    28    13    14   ar
    29    14    15    1
    30    15    16    2
    31    15    17   am
    32    25    26   ar
    33    26    27   ar
    34    27    28   ar
    35    28    19   ar
    36    27    22   ar
    37     8     3    1
    38    14    10   ar
    39    17     6    1
    40    17    18    1
@<TRIPOS>MOLECULE
*****
 36 40 0 0 0
SMALL
GASTEIGER

@<TRIPOS>ATOM
      1 C          50.0876    9.1511  -27.7925 C.2     1  UNL1        0.2492
      2 O          48.9733    9.7224  -27.9464 O.2     1  UNL1       -0.2699
      3 N          50.7303    9.1830  -26.5024 N.am    1  UNL1       -0.2760
      4 C          52.1878    9.3615  -26.4055 C.3     1  UNL1        0.0954
      5 C          52.5742   10.1195  -25.1227 C.3     1  UNL1        0.0399
      6 C          51.5633   11.2494  -24.7887 C.3     1  UNL1        0.0645
      7 C          50.1261   10.6550  -24.6107 C.3     1  UNL1        0.0399
      8 C          49.9271    9.2834  -25.2794 C.3     1  UNL1        0.0954
      9 C          51.5676   12.3088  -25.9524 C.3     1  UNL1        0.0477
     10 C          50.9637   13.6040  -25.5033 C.ar    1  UNL1        0.0220
     11 C          50.4731   14.6660  -26.2263 C.ar    1  UNL1        0.0923
     12 N          50.2052   15.6724  -25.3566 N.ar    1  UNL1       -0.2534
     13 N          50.5413   15.2993  -24.1245 N.ar    1  UNL1       -0.1651
     14 C          51.0025   14.0402  -24.2158 C.ar    1  UNL1        0.1515
     15 C          51.5518   13.2075  -23.1586 C.2     1  UNL1        0.2650
     16 O          51.6773   13.6390  -21.9823 O.2     1  UNL1       -0.2684
     17 N          51.9710   11.8792  -23.5084 N.am    1  UNL1       -0.3023
     18 H          52.4087   11.2912  -22.7628 H       1  UNL1        0.1497
     19 C          54.6862    6.8150  -31.0976 C.ar    1  UNL1        0.2249
     20 C          53.9512    6.3860  -32.2050 C.ar    1  UNL1        0.0578
     21 C          52.5705    6.5888  -32.2385 C.ar    1  UNL1        0.0093
     22 C          51.9254    7.2212  -31.1626 C.ar    1  UNL1        0.0519
     23 C          50.5346    7.4467  -31.1630 C.ar    1  UNL1        0.1402
     24 C          49.9433    8.0855  -30.0548 C.ar    1  UNL1        0.0415
     25 C          50.7174    8.4823  -28.9527 C.ar    1  UNL1        0.0581
     26 C          52.1031    8.2691  -28.9711 C.ar    1  UNL1        0.0239
     27 C          52.7069    7.6394  -30.0617 C.ar    1  UNL1        0.0874
     28 N          54.0504    7.4269  -30.0601 N.ar    1  UNL1       -0.2116
     29 C          56.9173    7.2196  -30.1043 C.3     1  UNL1        0.2542
     30 O          56.0686    6.6095  -31.0693 O.3     1  UNL1       -0.4561
     31 O          49.7726    7.0318  -32.2690 O.3     1  UNL1       -0.4714
     32 C          48.7251    6.0686  -32.2151 C.3     1  UNL1        0.2525
     33 C          49.6959   17.0120  -25.7124 C.3     1  UNL1        0.0867
     34 C          50.8465   18.0359  -25.6551 C.3     1  UNL1        0.0244
     35 C          49.1103   17.0084  -27.1411 C.3     1  UNL1        0.0244
     36 C          48.5899   17.4169  -24.7210 C.3     1  UNL1        0.0244
@<TRIPOS>BOND
     1    29    30    1
     2    30    19    1
     3    19    20   ar
     4    20    21   ar
     5    21    22   ar
     6    22    23   ar
     7    23    31    1
     8    31    32    1
     9    23    24   ar
    10    24    25   ar
    11    25     1    1
    12     1     2    2
    13     1     3   am
    14     3     4    1
    15     4     5    1
    16     5     6    1
    17     6     7    1
    18     7     8    1
    19     6     9    1
    20     9    10    1
    21    10    11   ar
    22    11    12   ar
    23    12    33    1
    24    33    34    1
    25    33    35    1
    26    33    36    1
    27    12    13   ar
    28    13    14   ar
    29    14    15    1
    30    15    16    2
    31    15    17   am
    32    25    26   ar
    33    26    27   ar
    34    27    28   ar
    35    28    19   ar
    36    27    22   ar
    37     8     3    1
    38    14    10   ar
    39    17     6    1
    40    17    18    1
@<TRIPOS>MOLECULE
*****
 36 40 0 0 0
SMALL
GASTEIGER

@<TRIPOS>ATOM
      1 C          47.2053   13.7856  -23.3187 C.2     1  UNL1        0.2492
      2 O          46.3133   13.9843  -22.4490 O.2     1  UNL1       -0.2699
      3 N          47.8876   12.5162  -23.3596 N.am    1  UNL1       -0.2760
      4 C          49.3328   12.4608  -23.6318 C.3     1  UNL1        0.0954
      5 C          49.9931   11.2740  -22.9073 C.3     1  UNL1        0.0399
      6 C          49.3934   11.0501  -21.4931 C.3     1  UNL1        0.0645
      7 C          47.8535   10.7873  -21.5932 C.3     1  UNL1        0.0399
      8 C          47.2129   11.2997  -22.8951 C.3     1  UNL1        0.0954
      9 C          49.6662   12.3221  -20.6076 C.3     1  UNL1        0.0477
     10 C          49.5095   12.0078  -19.1513 C.ar    1  UNL1        0.0220
     11 C          49.3334   12.8348  -18.0667 C.ar    1  UNL1        0.0923
     12 N          49.4280   12.0760  -16.9459 N.ar    1  UNL1       -0.2534
     13 N          49.6921   10.8157  -17.2808 N.ar    1  UNL1       -0.1651
     14 C          49.7411   10.7762  -18.6233 C.ar    1  UNL1        0.1515
     15 C          50.0590    9.6428  -19.4761 C.2     1  UNL1        0.2650
     16 O          50.3663    8.5224  -18.9903 O.2     1  UNL1       -0.2684
     17 N          50.0347    9.8522  -20.8966 N.am    1  UNL1       -0.3023
     18 H          50.3065    9.0535  -21.5143 H       1  UNL1        0.1497
     19 C          50.7098   18.1437  -25.8193 C.ar    1  UNL1        0.2249
     20 C          49.8226   18.5874  -26.8024 C.ar    1  UNL1        0.0578
     21 C          48.5635   17.9952  -26.9148 C.ar    1  UNL1        0.0093
     22 C          48.1928   16.9582  -26.0425 C.ar    1  UNL1        0.0519
     23 C          46.9293   16.3398  -26.1232 C.ar    1  UNL1        0.1402
     24 C          46.6142   15.3039  -25.2212 C.ar    1  UNL1        0.0415
     25 C          47.5445   14.8752  -24.2609 C.ar    1  UNL1        0.0581
     26 C          48.7919   15.5100  -24.1780 C.ar    1  UNL1        0.0239
     27 C          49.1210   16.5398  -25.0623 C.ar    1  UNL1        0.0874
     28 N          50.3399   17.1376  -24.9791 N.ar    1  UNL1       -0.2116
     29 C          52.7288   18.7213  -24.5083 C.3     1  UNL1        0.2542
     30 O          51.9693   18.7404  -25.7111 O.3     1  UNL1       -0.4561
     31 O          46.0144   16.7728  -27.0987 O.3     1  UNL1       -0.4714
     32 C          45.3945   15.9250  -28.0604 C.3     1  UNL1        0.2525
     33 C          49.3365   12.5680  -15.5566 C.3     1  UNL1        0.0867
     34 C          48.4787   13.8477  -15.5155 C.3     1  UNL1        0.0244
     35 C          48.6816   11.5064  -14.6466 C.3     1  UNL1        0.0244
     36 C          50.7506   12.8729  -15.0296 C.3     1  UNL1        0.0244
@<TRIPOS>BOND
     1    29    30    1
     2    30    19    1
     3    19    20   ar
     4    20    21   ar
     5    21    22   ar
     6    22    23   ar
     7    23    31    1
     8    31    32    1
     9    23    24   ar
    10    24    25   ar
    11    25     1    1
    12     1     2    2
    13     1     3   am
    14     3     4    1
    15     4     5    1
    16     5     6    1
    17     6     7    1
    18     7     8    1
    19     6     9    1
    20     9    10    1
    21    10    11   ar
    22    11    12   ar
    23    12    33    1
    24    33    34    1
    25    33    35    1
    26    33    36    1
    27    12    13   ar
    28    13    14   ar
    29    14    15    1
    30    15    16    2
    31    15    17   am
    32    25    26   ar
    33    26    27   ar
    34    27    28   ar
    35    28    19   ar
    36    27    22   ar
    37     8     3    1
    38    14    10   ar
    39    17     6    1
    40    17    18    1
@<TRIPOS>MOLECULE
*****
 36 40 0 0 0
SMALL
GASTEIGER

@<TRIPOS>ATOM
      1 C          49.4117   12.0827  -19.1799 C.2     1  UNL1        0.2492
      2 O          50.4810   12.3501  -19.7938 O.2     1  UNL1       -0.2699
      3 N          48.3433   11.4083  -19.8744 N.am    1  UNL1       -0.2760
      4 C          46.9442   11.7984  -19.6377 C.3     1  UNL1        0.0954
      5 C          46.0869   11.5990  -20.9005 C.3     1  UNL1        0.0399
      6 C          46.8594   11.9769  -22.1929 C.3     1  UNL1        0.0645
      7 C          48.1568   11.1106  -22.3212 C.3     1  UNL1        0.0399
      8 C          48.6420   10.5066  -20.9917 C.3     1  UNL1        0.0954
      9 C          47.2344   13.5045  -22.1439 C.3     1  UNL1        0.0477
     10 C          47.5796   14.0180  -23.5082 C.ar    1  UNL1        0.0220
     11 C          48.2549   15.1506  -23.8986 C.ar    1  UNL1        0.0923
     12 N          48.1463   15.2551  -25.2470 N.ar    1  UNL1       -0.2534
     13 N          47.4011   14.2567  -25.7138 N.ar    1  UNL1       -0.1651
     14 C          47.0573   13.5048  -24.6542 C.ar    1  UNL1        0.1515
     15 C          46.1964   12.3339  -24.6269 C.2     1  UNL1        0.2650
     16 O          45.6341   11.9089  -25.6704 O.2     1  UNL1       -0.2684
     17 N          45.9884   11.6909  -23.3598 N.am    1  UNL1       -0.3023
     18 H          45.3345   10.8758  -23.3254 H       1  UNL1        0.1497
     19 C          47.0668   15.1823  -14.4449 C.ar    1  UNL1        0.2249
     20 C          47.8703   14.6555  -13.4312 C.ar    1  UNL1        0.0578
     21 C          48.8460   13.7079  -13.7453 C.ar    1  UNL1        0.0093
     22 C          49.0169   13.2873  -15.0747 C.ar    1  UNL1        0.0519
     23 C          49.9938   12.3361  -15.4300 C.ar    1  UNL1        0.1402
     24 C          50.1180   11.9524  -16.7803 C.ar    1  UNL1        0.0415
     25 C          49.2750   12.4926  -17.7646 C.ar    1  UNL1        0.0581
     26 C          48.3186   13.4518  -17.4023 C.ar    1  UNL1        0.0239
     27 C          48.1824   13.8457  -16.0694 C.ar    1  UNL1        0.0874
     28 N          47.2412   14.7673  -15.7303 N.ar    1  UNL1       -0.2116
     29 C          45.0949   16.5516  -15.0488 C.3     1  UNL1        0.2542
     30 O          46.0915   16.1312  -14.1248 O.3     1  UNL1       -0.4561
     31 O          50.8212   11.7959  -14.4301 O.3     1  UNL1       -0.4714
     32 C          50.4780   10.6850  -13.6079 C.3     1  UNL1        0.2525
     33 C          48.6941   16.3459  -26.0780 C.3     1  UNL1        0.0867
     34 C          47.8156   16.5348  -27.3302 C.3     1  UNL1        0.0244
     35 C          48.7166   17.6720  -25.2874 C.3     1  UNL1        0.0244
     36 C          50.1318   15.9926  -26.5002 C.3     1  UNL1        0.0244
@<TRIPOS>BOND
     1    29    30    1
     2    30    19    1
     3    19    20   ar
     4    20    21   ar
     5    21    22   ar
     6    22    23   ar
     7    23    31    1
     8    31    32    1
     9    23    24   ar
    10    24    25   ar
    11    25     1    1
    12     1     2    2
    13     1     3   am
    14     3     4    1
    15     4     5    1
    16     5     6    1
    17     6     7    1
    18     7     8    1
    19     6     9    1
    20     9    10    1
    21    10    11   ar
    22    11    12   ar
    23    12    33    1
    24    33    34    1
    25    33    35    1
    26    33    36    1
    27    12    13   ar
    28    13    14   ar
    29    14    15    1
    30    15    16    2
    31    15    17   am
    32    25    26   ar
    33    26    27   ar
    34    27    28   ar
    35    28    19   ar
    36    27    22   ar
    37     8     3    1
    38    14    10   ar
    39    17     6    1
    40    17    18    1
