@<TRIPOS>MOLECULE
*****
 51 56 0 0 0
SMALL
GASTEIGER

@<TRIPOS>ATOM
      1 C         -29.5205   50.4830  -11.8221 C.2     1  UNL1        0.2483
      2 O         -30.5275   51.0764  -11.3480 O.2     1  UNL1       -0.2701
      3 N         -29.6966   49.3128  -12.6392 N.am    1  UNL1       -0.2945
      4 H         -28.8551   48.8750  -13.0756 H       1  UNL1        0.1501
      5 C         -25.5630   51.6805  -10.6568 C.ar    1  UNL1        0.0518
      6 C         -26.5678   51.4869   -9.6979 C.ar    1  UNL1        0.0149
      7 C         -27.8597   51.1325  -10.0906 C.ar    1  UNL1        0.0080
      8 C         -28.1682   50.9495  -11.4484 C.ar    1  UNL1        0.0808
      9 C         -27.1681   51.1741  -12.4136 C.ar    1  UNL1        0.1457
     10 F         -27.4416   51.0846  -13.7396 F       1  UNL1       -0.2040
     11 C         -25.8758   51.5309  -12.0163 C.ar    1  UNL1        0.0443
     12 C         -23.2084   52.4166  -11.2380 C.3     1  UNL1        0.2125
     13 C         -21.9476   51.5802  -11.0085 C.3     1  UNL1        0.1422
     14 N         -21.5647   51.6284   -9.5909 N.pl3   1  UNL1       -0.3021
     15 C         -22.5774   51.2663   -8.5906 C.3     1  UNL1        0.1124
     16 C         -23.8630   52.0621   -8.8274 C.3     1  UNL1        0.1143
     17 N         -24.2235   52.0166  -10.2498 N.pl3   1  UNL1       -0.2829
     18 C         -20.1771   51.7374   -9.2215 C.ar    1  UNL1        0.0480
     19 C         -19.8224   52.0880   -7.9101 C.ar    1  UNL1        0.0145
     20 C         -18.4777   52.1906   -7.5432 C.ar    1  UNL1        0.0051
     21 C         -17.4620   51.9615   -8.4870 C.ar    1  UNL1        0.0715
     22 C         -17.8185   51.5818   -9.7924 C.ar    1  UNL1        0.0051
     23 C         -19.1636   51.4786  -10.1583 C.ar    1  UNL1        0.0145
     24 C         -16.0116   52.0237   -8.0788 C.3     1  UNL1        0.4186
     25 F         -15.7411   53.2075   -7.4143 F       1  UNL1       -0.1659
     26 F         -15.2176   51.9492   -9.2078 F       1  UNL1       -0.1659
     27 F         -15.6959   50.9726   -7.2351 F       1  UNL1       -0.1659
     28 C         -21.6509   54.0725  -11.7028 C.3     1  UNL1        0.1761
     29 O         -22.8797   53.7847  -11.0721 O.3     1  UNL1       -0.3335
     30 C         -30.9097   48.4900  -12.5676 C.3     1  UNL1        0.1535
     31 C         -30.9778   47.5682  -13.7559 C.2     1  UNL1        0.2443
     32 O         -31.5840   46.4661  -13.6574 O.2     1  UNL1       -0.2730
     33 N         -30.4392   47.9894  -15.0194 N.am    1  UNL1       -0.2825
     34 H         -30.2461   49.0084  -15.1511 H       1  UNL1        0.1549
     35 C         -30.2552   47.1172  -16.1476 C.ar    1  UNL1        0.0535
     36 C         -29.8718   47.6120  -17.4059 C.ar    1  UNL1        0.0353
     37 C         -29.7296   46.7288  -18.4793 C.ar    1  UNL1        0.1002
     38 N         -29.9745   45.4027  -18.3095 N.ar    1  UNL1       -0.2422
     39 C         -30.3644   44.8990  -17.1088 C.ar    1  UNL1        0.1002
     40 C         -30.5198   45.7475  -16.0100 C.ar    1  UNL1        0.0353
     41 C         -30.9225   47.6708  -11.2647 C.3     1  UNL1        0.0569
     42 C         -29.5689   47.0887  -10.9695 C.ar    1  UNL1       -0.0017
     43 C         -28.9632   46.0309  -11.6408 C.ar    1  UNL1        0.0681
     44 N         -27.8086   45.6816  -11.0290 N.ar    1  UNL1       -0.3523
     45 C         -27.6866   46.4994   -9.9691 C.ar    1  UNL1        0.0563
     46 C         -26.6780   46.4882   -9.0064 C.ar    1  UNL1        0.0170
     47 C         -26.7719   47.4058   -7.9443 C.ar    1  UNL1        0.0015
     48 C         -27.8624   48.2995   -7.8651 C.ar    1  UNL1        0.0001
     49 C         -28.8654   48.2890   -8.8514 C.ar    1  UNL1        0.0012
     50 C         -28.7427   47.3716   -9.8968 C.ar    1  UNL1        0.0131
     51 H         -27.1618   44.9111  -11.3089 H       1  UNL1        0.1660
@<TRIPOS>BOND
     1    28    29    1
     2    29    12    1
     3    12    13    1
     4    13    14    1
     5    14    18    1
     6    18    19   ar
     7    19    20   ar
     8    20    21   ar
     9    21    24    1
    10    24    25    1
    11    24    26    1
    12    24    27    1
    13    21    22   ar
    14    22    23   ar
    15    14    15    1
    16    15    16    1
    17    16    17    1
    18    17     5    1
    19     5     6   ar
    20     6     7   ar
    21     7     8   ar
    22     8     1    1
    23     1     2    2
    24     1     3   am
    25     3    30    1
    26    30    41    1
    27    41    42    1
    28    42    43   ar
    29    43    44   ar
    30    44    45   ar
    31    45    46   ar
    32    46    47   ar
    33    47    48   ar
    34    48    49   ar
    35    49    50   ar
    36    30    31    1
    37    31    32    2
    38    31    33   am
    39    33    35    1
    40    35    36   ar
    41    36    37   ar
    42    37    38   ar
    43    38    39   ar
    44    39    40   ar
    45     8     9   ar
    46     9    10    1
    47     9    11   ar
    48    17    12    1
    49    11     5   ar
    50    23    18   ar
    51    50    42   ar
    52    40    35   ar
    53    50    45   ar
    54     3     4    1
    55    44    51    1
    56    33    34    1
@<TRIPOS>MOLECULE
*****
 51 56 0 0 0
SMALL
GASTEIGER

@<TRIPOS>ATOM
      1 C         -20.6004   55.0426   -9.9714 C.2     1  UNL1        0.2483
      2 O         -19.6530   54.8232  -10.7746 O.2     1  UNL1       -0.2701
      3 N         -20.4948   56.1085   -9.0119 N.am    1  UNL1       -0.2945
      4 H         -21.3155   56.3157   -8.4005 H       1  UNL1        0.1501
      5 C         -23.9612   52.3729   -9.7920 C.ar    1  UNL1        0.0518
      6 C         -22.6516   51.8915   -9.6517 C.ar    1  UNL1        0.0149
      7 C         -21.5649   52.7627   -9.7473 C.ar    1  UNL1        0.0080
      8 C         -21.7674   54.1346   -9.9695 C.ar    1  UNL1        0.0808
      9 C         -23.0800   54.6136  -10.1415 C.ar    1  UNL1        0.1457
     10 F         -23.3173   55.9169  -10.4348 F       1  UNL1       -0.2040
     11 C         -24.1656   53.7373  -10.0470 C.ar    1  UNL1        0.0443
     12 C         -25.7904   51.3299   -8.3813 C.3     1  UNL1        0.2125
     13 C         -25.9036   49.8385   -8.0575 C.3     1  UNL1        0.1422
     14 N         -26.4447   49.1134   -9.2150 N.pl3   1  UNL1       -0.3021
     15 C         -25.7709   49.2802  -10.5093 C.3     1  UNL1        0.1124
     16 C         -25.6097   50.7671  -10.8341 C.3     1  UNL1        0.1143
     17 N         -25.0828   51.4794   -9.6635 N.pl3   1  UNL1       -0.2829
     18 C         -27.4071   48.0599   -9.0211 C.ar    1  UNL1        0.0480
     19 C         -28.3215   48.1273   -7.9590 C.ar    1  UNL1        0.0145
     20 C         -29.2617   47.1110   -7.7679 C.ar    1  UNL1        0.0051
     21 C         -29.2930   45.9986   -8.6261 C.ar    1  UNL1        0.0715
     22 C         -28.3959   45.9468   -9.7067 C.ar    1  UNL1        0.0051
     23 C         -27.4565   46.9640   -9.8976 C.ar    1  UNL1        0.0145
     24 C         -30.3392   44.9269   -8.4498 C.3     1  UNL1        0.4186
     25 F         -31.5819   45.4904   -8.2172 F       1  UNL1       -0.1659
     26 F         -29.9973   44.1300   -7.3733 F       1  UNL1       -0.1659
     27 F         -30.4276   44.1387   -9.5843 F       1  UNL1       -0.1659
     28 C         -27.6986   51.9288   -7.2051 C.3     1  UNL1        0.1761
     29 O         -27.0958   51.8716   -8.4794 O.3     1  UNL1       -0.3335
     30 C         -19.1967   56.6413   -8.5817 C.3     1  UNL1        0.1535
     31 C         -19.3116   58.1168   -8.3054 C.2     1  UNL1        0.2443
     32 O         -19.3046   58.9345   -9.2663 O.2     1  UNL1       -0.2730
     33 N         -19.5268   58.5781   -6.9620 N.am    1  UNL1       -0.2825
     34 H         -19.8507   57.8808   -6.2537 H       1  UNL1        0.1549
     35 C         -19.4328   59.9550   -6.5584 C.ar    1  UNL1        0.0535
     36 C         -19.8566   60.3802   -5.2877 C.ar    1  UNL1        0.0353
     37 C         -19.7689   61.7331   -4.9493 C.ar    1  UNL1        0.1002
     38 N         -19.2901   62.6324   -5.8490 N.ar    1  UNL1       -0.2422
     39 C         -18.8904   62.2523   -7.0912 C.ar    1  UNL1        0.1002
     40 C         -18.9625   60.9098   -7.4706 C.ar    1  UNL1        0.0353
     41 C         -18.7098   55.9061   -7.3204 C.3     1  UNL1        0.0569
     42 C         -19.2080   54.4887   -7.2850 C.ar    1  UNL1       -0.0017
     43 C         -20.2771   54.0102   -6.5336 C.ar    1  UNL1        0.0681
     44 N         -20.3637   52.6645   -6.6382 N.ar    1  UNL1       -0.3523
     45 C         -19.3506   52.2870   -7.4370 C.ar    1  UNL1        0.0563
     46 C         -19.0007   50.9866   -7.7987 C.ar    1  UNL1        0.0170
     47 C         -17.8643   50.8122   -8.6093 C.ar    1  UNL1        0.0015
     48 C         -17.1075   51.9278   -9.0301 C.ar    1  UNL1        0.0001
     49 C         -17.4846   53.2288   -8.6504 C.ar    1  UNL1        0.0012
     50 C         -18.6202   53.3717   -7.8507 C.ar    1  UNL1        0.0131
     51 H         -21.0597   52.0450   -6.1668 H       1  UNL1        0.1660
@<TRIPOS>BOND
     1    28    29    1
     2    29    12    1
     3    12    13    1
     4    13    14    1
     5    14    18    1
     6    18    19   ar
     7    19    20   ar
     8    20    21   ar
     9    21    24    1
    10    24    25    1
    11    24    26    1
    12    24    27    1
    13    21    22   ar
    14    22    23   ar
    15    14    15    1
    16    15    16    1
    17    16    17    1
    18    17     5    1
    19     5     6   ar
    20     6     7   ar
    21     7     8   ar
    22     8     1    1
    23     1     2    2
    24     1     3   am
    25     3    30    1
    26    30    41    1
    27    41    42    1
    28    42    43   ar
    29    43    44   ar
    30    44    45   ar
    31    45    46   ar
    32    46    47   ar
    33    47    48   ar
    34    48    49   ar
    35    49    50   ar
    36    30    31    1
    37    31    32    2
    38    31    33   am
    39    33    35    1
    40    35    36   ar
    41    36    37   ar
    42    37    38   ar
    43    38    39   ar
    44    39    40   ar
    45     8     9   ar
    46     9    10    1
    47     9    11   ar
    48    17    12    1
    49    11     5   ar
    50    23    18   ar
    51    50    42   ar
    52    40    35   ar
    53    50    45   ar
    54     3     4    1
    55    44    51    1
    56    33    34    1
