@<TRIPOS>MOLECULE
*****
 59 63 0 0 0
SMALL
GASTEIGER

@<TRIPOS>ATOM
      1 O          49.7453   10.6072  -26.7728 O.3     1  UNL1       -0.4513
      2 C          49.6047   10.4577  -25.3888 C.ar    1  UNL1        0.1584
      3 C          50.4265    9.5466  -24.7277 C.ar    1  UNL1        0.0677
      4 C          50.1814    9.2140  -23.3974 C.ar    1  UNL1        0.1402
      5 F          50.9272    8.2367  -22.8215 F       1  UNL1       -0.2044
      6 C          49.1346    9.8326  -22.6884 C.ar    1  UNL1        0.0228
      7 C          48.3730   10.8474  -23.3211 C.ar    1  UNL1        0.0423
      8 I          46.7982   11.8591  -22.2853 I       1  UNL1       -0.0418
      9 C          48.6219   11.1648  -24.6720 C.ar    1  UNL1        0.0973
     10 CL         47.6897   12.4193  -25.4907 Cl      1  UNL1       -0.0786
     11 C          48.7531    9.2919  -21.3294 C.3     1  UNL1        0.1386
     12 C          49.7507    9.7338  -20.2987 C.2     1  UNL1        0.3234
     13 O          50.0137    8.9820  -19.3211 O.2     1  UNL1       -0.2497
     14 O          50.4102   10.9610  -20.4539 O.3     1  UNL1       -0.4215
     15 C          50.3077   12.0475  -19.5352 C.3     1  UNL1        0.3207
     16 O          50.6527   11.5539  -18.2474 O.3     1  UNL1       -0.3070
     17 C          50.3239   12.4930  -17.2414 C.3     1  UNL1        0.2456
     18 C          48.7884   12.5525  -17.0475 C.3     1  UNL1        0.1781
     19 O          48.4328   13.8435  -16.6209 O.3     1  UNL1       -0.3790
     20 C          48.0469   12.2012  -18.3608 C.3     1  UNL1        0.1733
     21 O          47.8313   10.8126  -18.4110 O.3     1  UNL1       -0.3793
     22 C          48.8648   12.6433  -19.5885 C.3     1  UNL1        0.2106
     23 O          48.9221   14.0468  -19.6206 O.3     1  UNL1       -0.3766
     24 H          47.5291   13.7752  -16.2150 H       1  UNL1        0.2106
     25 H          47.1334   10.6529  -19.0990 H       1  UNL1        0.2105
     26 H          49.2077   14.3006  -20.5371 H       1  UNL1        0.2107
     27 C          50.9952   12.1021  -15.9569 C.2     1  UNL1        0.3439
     28 O          50.4033   11.3418  -15.1448 O.2     1  UNL1       -0.2475
     29 O          52.2894   12.5340  -15.6824 O.3     1  UNL1       -0.4785
     30 H          52.7557   12.2613  -14.8254 H       1  UNL1        0.2951
     31 C          52.7561    8.7028  -29.0557 C.ar    1  UNL1        0.0548
     32 C          51.4860    8.1278  -28.8933 C.ar    1  UNL1        0.0077
     33 C          50.5039    8.7814  -28.1430 C.ar    1  UNL1        0.0390
     34 C          50.7708   10.0112  -27.5299 C.ar    1  UNL1        0.1598
     35 C          52.0472   10.6012  -27.7035 C.ar    1  UNL1        0.0993
     36 C          53.0307    9.9302  -28.4362 C.ar    1  UNL1        0.0235
     37 N          55.1561    8.4889  -29.8362 N.am    1  UNL1       -0.3040
     38 C          53.7904    8.0316  -29.8743 C.2     1  UNL1        0.2458
     39 O          53.4617    7.0692  -30.6187 O.2     1  UNL1       -0.2701
     40 H          55.3216    9.4537  -29.4707 H       1  UNL1        0.1496
     41 C          56.3594    7.5039  -31.7589 C.3     1  UNL1        0.0196
     42 C          56.3290    7.6859  -30.2291 C.3     1  UNL1        0.0572
     43 C          57.6244    8.3631  -29.7438 C.3     1  UNL1        0.0196
     44 C          56.2244    6.2939  -29.5716 C.3     1  UNL1        0.0196
     45 N          52.3531   11.8962  -27.1859 N.pl3   1  UNL1       -0.2120
     46 H          51.9944   12.7320  -27.6978 H       1  UNL1        0.1738
     47 S          52.7784   12.0899  -25.5200 S.O2    1  UNL1        0.0745
     48 O          54.1847   12.6137  -25.4352 O.2     1  UNL1       -0.1499
     49 O          52.7383   10.7606  -24.8203 O.2     1  UNL1       -0.1499
     50 C          51.6676   13.2406  -24.7643 C.ar    1  UNL1        0.1356
     51 C          50.7395   13.9040  -25.5766 C.ar    1  UNL1        0.0207
     52 C          49.7862   14.7591  -25.0214 C.ar    1  UNL1       -0.0028
     53 C          49.7396   14.9712  -23.6292 C.ar    1  UNL1       -0.0216
     54 C          50.6794   14.3168  -22.8194 C.ar    1  UNL1        0.0085
     55 C          51.6370   13.4570  -23.3701 C.ar    1  UNL1        0.0762
     56 CL         52.7520   12.6623  -22.2631 Cl      1  UNL1       -0.0809
     57 C          48.7138   15.8583  -22.9439 C.3     1  UNL1        0.0224
     58 C          47.2593   15.6483  -23.3418 C.3     1  UNL1        0.0047
     59 C          47.9973   16.9054  -23.7857 C.3     1  UNL1        0.0047
@<TRIPOS>BOND
     1    41    42    1
     2    42    43    1
     3    42    44    1
     4    42    37    1
     5    37    38   am
     6    38    39    2
     7    38    31    1
     8    31    32   ar
     9    32    33   ar
    10    33    34   ar
    11    34     1    1
    12     1     2    1
    13     2     3   ar
    14     3     4   ar
    15     4     5    1
    16     4     6   ar
    17     6    11    1
    18    11    12    1
    19    12    13    2
    20    12    14    1
    21    14    15    1
    22    15    16    1
    23    16    17    1
    24    17    27    1
    25    27    28    2
    26    27    29    1
    27    17    18    1
    28    18    19    1
    29    18    20    1
    30    20    21    1
    31    20    22    1
    32    22    23    1
    33     6     7   ar
    34     7     8    1
    35     7     9   ar
    36     9    10    1
    37    34    35   ar
    38    35    45    1
    39    45    47    1
    40    47    48    2
    41    47    49    2
    42    47    50    1
    43    50    51   ar
    44    51    52   ar
    45    52    53   ar
    46    53    57    1
    47    57    58    1
    48    58    59    1
    49    53    54   ar
    50    54    55   ar
    51    55    56    1
    52    35    36   ar
    53    36    31   ar
    54     9     2   ar
    55    55    50   ar
    56    22    15    1
    57    59    57    1
    58    37    40    1
    59    29    30    1
    60    19    24    1
    61    21    25    1
    62    23    26    1
    63    45    46    1
@<TRIPOS>MOLECULE
*****
 59 63 0 0 0
SMALL
GASTEIGER

@<TRIPOS>ATOM
      1 O          47.9146   11.1194  -24.8011 O.3     1  UNL1       -0.4513
      2 C          47.4330   12.2256  -25.5096 C.ar    1  UNL1        0.1584
      3 C          47.1947   13.4114  -24.8170 C.ar    1  UNL1        0.0677
      4 C          46.5229   14.4642  -25.4339 C.ar    1  UNL1        0.1402
      5 F          46.2038   15.5570  -24.6942 F       1  UNL1       -0.2044
      6 C          46.1235   14.3647  -26.7799 C.ar    1  UNL1        0.0228
      7 C          46.4705   13.2080  -27.5228 C.ar    1  UNL1        0.0423
      8 I          45.9339   13.0133  -29.5845 I       1  UNL1       -0.0418
      9 C          47.1380   12.1438  -26.8829 C.ar    1  UNL1        0.0973
     10 CL         47.5806   10.6885  -27.7770 Cl      1  UNL1       -0.0786
     11 C          45.2058   15.4219  -27.3498 C.3     1  UNL1        0.1386
     12 C          46.0085   16.4834  -28.0440 C.2     1  UNL1        0.3234
     13 O          45.9273   16.6095  -29.2960 O.2     1  UNL1       -0.2497
     14 O          46.8108   17.3504  -27.2891 O.3     1  UNL1       -0.4215
     15 C          48.2371   17.3462  -27.3122 C.3     1  UNL1        0.3207
     16 O          48.6780   16.3723  -26.3750 O.3     1  UNL1       -0.3070
     17 C          50.0690   16.4876  -26.1430 C.3     1  UNL1        0.2456
     18 C          50.3669   17.7519  -25.2993 C.3     1  UNL1        0.1781
     19 O          51.6466   18.2293  -25.6301 O.3     1  UNL1       -0.3790
     20 C          49.3058   18.8516  -25.5499 C.3     1  UNL1        0.1733
     21 O          48.2454   18.6843  -24.6418 O.3     1  UNL1       -0.3793
     22 C          48.7696   18.7792  -26.9917 C.3     1  UNL1        0.2106
     23 O          49.8006   19.1224  -27.8825 O.3     1  UNL1       -0.3766
     24 H          51.9347   18.8227  -24.8878 H       1  UNL1        0.2106
     25 H          47.7333   19.5350  -24.6349 H       1  UNL1        0.2105
     26 H          49.3697   19.3291  -28.7528 H       1  UNL1        0.2107
     27 C          50.5583   15.2603  -25.4305 C.2     1  UNL1        0.3439
     28 O          50.7359   15.2868  -24.1832 O.2     1  UNL1       -0.2475
     29 O          50.7673   14.0778  -26.1338 O.3     1  UNL1       -0.4785
     30 H          51.0817   13.2405  -25.6579 H       1  UNL1        0.2951
     31 C          49.0799   11.2146  -20.7347 C.ar    1  UNL1        0.0548
     32 C          47.8979   10.5776  -21.1432 C.ar    1  UNL1        0.0077
     33 C          47.5392   10.5502  -22.4943 C.ar    1  UNL1        0.0390
     34 C          48.3419   11.1667  -23.4612 C.ar    1  UNL1        0.1598
     35 C          49.5430   11.7984  -23.0541 C.ar    1  UNL1        0.0993
     36 C          49.8825   11.8410  -21.6986 C.ar    1  UNL1        0.0235
     37 N          49.3071   12.4071  -18.5117 N.am    1  UNL1       -0.3040
     38 C          49.4816   11.2206  -19.3102 C.2     1  UNL1        0.2458
     39 O          49.9947   10.1849  -18.8079 O.2     1  UNL1       -0.2701
     40 H          49.1839   13.3087  -19.0253 H       1  UNL1        0.1496
     41 C          50.6661   12.3696  -16.4462 C.3     1  UNL1        0.0196
     42 C          49.2452   12.4345  -17.0385 C.3     1  UNL1        0.0572
     43 C          48.5222   13.7075  -16.5599 C.3     1  UNL1        0.0196
     44 C          48.4530   11.2042  -16.5489 C.3     1  UNL1        0.0196
     45 N          50.4534   12.3619  -23.9987 N.pl3   1  UNL1       -0.2120
     46 H          50.5435   13.4008  -24.0411 H       1  UNL1        0.1738
     47 S          51.7555   11.4114  -24.6269 S.O2    1  UNL1        0.0745
     48 O          52.3553   10.6082  -23.5069 O.2     1  UNL1       -0.1499
     49 O          52.8284   12.3079  -25.1777 O.2     1  UNL1       -0.1499
     50 C          51.1338   10.3222  -25.8744 C.ar    1  UNL1        0.1356
     51 C          51.2984   10.6829  -27.2176 C.ar    1  UNL1        0.0207
     52 C          50.9013    9.8227  -28.2425 C.ar    1  UNL1       -0.0028
     53 C          50.3259    8.5716  -27.9440 C.ar    1  UNL1       -0.0216
     54 C          50.1489    8.2190  -26.5980 C.ar    1  UNL1        0.0085
     55 C          50.5464    9.0768  -25.5657 C.ar    1  UNL1        0.0762
     56 CL         50.3066    8.5264  -23.9104 Cl      1  UNL1       -0.0809
     57 C          49.8987    7.5651  -28.9991 C.3     1  UNL1        0.0224
     58 C          50.5363    7.7095  -30.3741 C.3     1  UNL1        0.0047
     59 C          49.0690    8.0677  -30.1727 C.3     1  UNL1        0.0047
@<TRIPOS>BOND
     1    41    42    1
     2    42    43    1
     3    42    44    1
     4    42    37    1
     5    37    38   am
     6    38    39    2
     7    38    31    1
     8    31    32   ar
     9    32    33   ar
    10    33    34   ar
    11    34     1    1
    12     1     2    1
    13     2     3   ar
    14     3     4   ar
    15     4     5    1
    16     4     6   ar
    17     6    11    1
    18    11    12    1
    19    12    13    2
    20    12    14    1
    21    14    15    1
    22    15    16    1
    23    16    17    1
    24    17    27    1
    25    27    28    2
    26    27    29    1
    27    17    18    1
    28    18    19    1
    29    18    20    1
    30    20    21    1
    31    20    22    1
    32    22    23    1
    33     6     7   ar
    34     7     8    1
    35     7     9   ar
    36     9    10    1
    37    34    35   ar
    38    35    45    1
    39    45    47    1
    40    47    48    2
    41    47    49    2
    42    47    50    1
    43    50    51   ar
    44    51    52   ar
    45    52    53   ar
    46    53    57    1
    47    57    58    1
    48    58    59    1
    49    53    54   ar
    50    54    55   ar
    51    55    56    1
    52    35    36   ar
    53    36    31   ar
    54     9     2   ar
    55    55    50   ar
    56    22    15    1
    57    59    57    1
    58    37    40    1
    59    29    30    1
    60    19    24    1
    61    21    25    1
    62    23    26    1
    63    45    46    1
@<TRIPOS>MOLECULE
*****
 59 63 0 0 0
SMALL
GASTEIGER

@<TRIPOS>ATOM
      1 O          49.7883   13.3111  -22.2027 O.3     1  UNL1       -0.4513
      2 C          49.3163   14.4897  -22.7907 C.ar    1  UNL1        0.1584
      3 C          47.9459   14.7431  -22.7740 C.ar    1  UNL1        0.0677
      4 C          47.4143   15.7895  -23.5242 C.ar    1  UNL1        0.1402
      5 F          46.0654   15.9336  -23.5784 F       1  UNL1       -0.2044
      6 C          48.2589   16.6367  -24.2659 C.ar    1  UNL1        0.0228
      7 C          49.6631   16.4564  -24.1893 C.ar    1  UNL1        0.0423
      8 I          51.0042   17.7377  -25.2552 I       1  UNL1       -0.0418
      9 C          50.1876   15.3851  -23.4378 C.ar    1  UNL1        0.0973
     10 CL         51.9298   15.1299  -23.3250 Cl      1  UNL1       -0.0786
     11 C          47.6412   17.6130  -25.2407 C.3     1  UNL1        0.1386
     12 C          47.4337   16.9522  -26.5723 C.2     1  UNL1        0.3234
     13 O          47.9205   17.4747  -27.6116 O.2     1  UNL1       -0.2497
     14 O          46.7344   15.7393  -26.6427 O.3     1  UNL1       -0.4215
     15 C          47.2522   14.5489  -27.2340 C.3     1  UNL1        0.3207
     16 O          46.3709   14.1738  -28.2846 O.3     1  UNL1       -0.3070
     17 C          46.6628   12.8690  -28.7476 C.3     1  UNL1        0.2456
     18 C          46.2144   11.8183  -27.7017 C.3     1  UNL1        0.1781
     19 O          47.0497   10.6924  -27.8000 O.3     1  UNL1       -0.3790
     20 C          46.2698   12.4005  -26.2679 C.3     1  UNL1        0.1733
     21 O          45.0347   13.0009  -25.9662 O.3     1  UNL1       -0.3793
     22 C          47.3969   13.4422  -26.1413 C.3     1  UNL1        0.2106
     23 O          48.6371   12.7945  -26.2703 O.3     1  UNL1       -0.3766
     24 H          46.5722    9.9390  -27.3634 H       1  UNL1        0.2106
     25 H          45.0006   13.1129  -24.9801 H       1  UNL1        0.2105
     26 H          49.3245   13.4205  -25.9216 H       1  UNL1        0.2107
     27 C          45.9602   12.6353  -30.0533 C.2     1  UNL1        0.3439
     28 O          45.6140   13.6160  -30.7649 O.2     1  UNL1       -0.2475
     29 O          45.7356   11.3387  -30.5063 O.3     1  UNL1       -0.4785
     30 H          45.2768   11.1722  -31.3941 H       1  UNL1        0.2951
     31 C          50.6049   12.8256  -18.0795 C.ar    1  UNL1        0.0548
     32 C          51.6372   12.9883  -19.0166 C.ar    1  UNL1        0.0077
     33 C          51.3419   13.1577  -20.3726 C.ar    1  UNL1        0.0390
     34 C          50.0166   13.1551  -20.8230 C.ar    1  UNL1        0.1598
     35 C          48.9715   13.0052  -19.8781 C.ar    1  UNL1        0.0993
     36 C          49.2763   12.8135  -18.5273 C.ar    1  UNL1        0.0235
     37 N          49.9395   13.0705  -15.6480 N.am    1  UNL1       -0.3040
     38 C          50.9088   12.6770  -16.6387 C.2     1  UNL1        0.2458
     39 O          52.0298   12.2211  -16.2868 O.2     1  UNL1       -0.2701
     40 H          49.1813   13.7184  -15.9595 H       1  UNL1        0.1496
     41 C          48.6653   13.1345  -13.5297 C.3     1  UNL1        0.0196
     42 C          49.9142   12.5942  -14.2525 C.3     1  UNL1        0.0572
     43 C          49.9313   11.0545  -14.2153 C.3     1  UNL1        0.0196
     44 C          51.1685   13.1187  -13.5228 C.3     1  UNL1        0.0196
     45 N          47.5976   13.0890  -20.2574 N.pl3   1  UNL1       -0.2120
     46 H          47.1958   14.0308  -20.4591 H       1  UNL1        0.1738
     47 S          46.7905   11.7079  -20.9167 S.O2    1  UNL1        0.0745
     48 O          45.6339   12.1753  -21.7552 O.2     1  UNL1       -0.1499
     49 O          46.2416   10.8544  -19.8084 O.2     1  UNL1       -0.1499
     50 C          47.9240   10.7944  -21.9217 C.ar    1  UNL1        0.1356
     51 C          47.9598   11.0590  -23.2964 C.ar    1  UNL1        0.0207
     52 C          48.8912   10.4274  -24.1219 C.ar    1  UNL1       -0.0028
     53 C          49.8158    9.5091  -23.5859 C.ar    1  UNL1       -0.0216
     54 C          49.7684    9.2350  -22.2111 C.ar    1  UNL1        0.0085
     55 C          48.8374    9.8663  -21.3778 C.ar    1  UNL1        0.0762
     56 CL         48.8810    9.4738  -19.6620 Cl      1  UNL1       -0.0809
     57 C          50.8817    8.8056  -24.4092 C.3     1  UNL1        0.0224
     58 C          52.1561    9.5914  -24.6855 C.3     1  UNL1        0.0047
     59 C          51.1634    9.3283  -25.8112 C.3     1  UNL1        0.0047
@<TRIPOS>BOND
     1    41    42    1
     2    42    43    1
     3    42    44    1
     4    42    37    1
     5    37    38   am
     6    38    39    2
     7    38    31    1
     8    31    32   ar
     9    32    33   ar
    10    33    34   ar
    11    34     1    1
    12     1     2    1
    13     2     3   ar
    14     3     4   ar
    15     4     5    1
    16     4     6   ar
    17     6    11    1
    18    11    12    1
    19    12    13    2
    20    12    14    1
    21    14    15    1
    22    15    16    1
    23    16    17    1
    24    17    27    1
    25    27    28    2
    26    27    29    1
    27    17    18    1
    28    18    19    1
    29    18    20    1
    30    20    21    1
    31    20    22    1
    32    22    23    1
    33     6     7   ar
    34     7     8    1
    35     7     9   ar
    36     9    10    1
    37    34    35   ar
    38    35    45    1
    39    45    47    1
    40    47    48    2
    41    47    49    2
    42    47    50    1
    43    50    51   ar
    44    51    52   ar
    45    52    53   ar
    46    53    57    1
    47    57    58    1
    48    58    59    1
    49    53    54   ar
    50    54    55   ar
    51    55    56    1
    52    35    36   ar
    53    36    31   ar
    54     9     2   ar
    55    55    50   ar
    56    22    15    1
    57    59    57    1
    58    37    40    1
    59    29    30    1
    60    19    24    1
    61    21    25    1
    62    23    26    1
    63    45    46    1
@<TRIPOS>MOLECULE
*****
 59 63 0 0 0
SMALL
GASTEIGER

@<TRIPOS>ATOM
      1 O          49.5056   13.7106  -22.5787 O.3     1  UNL1       -0.4513
      2 C          49.2219   15.0035  -23.0318 C.ar    1  UNL1        0.1584
      3 C          48.1249   15.6747  -22.4947 C.ar    1  UNL1        0.0677
      4 C          47.6838   16.8686  -23.0609 C.ar    1  UNL1        0.1402
      5 F          46.5433   17.4327  -22.5875 F       1  UNL1       -0.2044
      6 C          48.3715   17.4396  -24.1482 C.ar    1  UNL1        0.0228
      7 C          49.5578   16.8228  -24.6199 C.ar    1  UNL1        0.0423
      8 I          50.6754   17.6637  -26.2386 I       1  UNL1       -0.0418
      9 C          49.9856   15.6075  -24.0475 C.ar    1  UNL1        0.0973
     10 CL         51.4548   14.8114  -24.6138 Cl      1  UNL1       -0.0786
     11 C          47.7441   18.6044  -24.8792 C.3     1  UNL1        0.1386
     12 C          46.5757   18.1335  -25.6953 C.2     1  UNL1        0.3234
     13 O          45.4196   18.5674  -25.4396 O.2     1  UNL1       -0.2497
     14 O          46.7865   17.2459  -26.7596 O.3     1  UNL1       -0.4215
     15 C          46.0245   16.0597  -26.9767 C.3     1  UNL1        0.3207
     16 O          45.8792   15.4079  -25.7216 O.3     1  UNL1       -0.3070
     17 C          45.3682   14.0990  -25.8880 C.3     1  UNL1        0.2456
     18 C          46.4549   13.1736  -26.4893 C.3     1  UNL1        0.1781
     19 O          45.8296   12.1711  -27.2502 O.3     1  UNL1       -0.3790
     20 C          47.4432   13.9751  -27.3719 C.3     1  UNL1        0.1733
     21 O          48.5018   14.4408  -26.5722 O.3     1  UNL1       -0.3793
     22 C          46.7372   15.1679  -28.0429 C.3     1  UNL1        0.2106
     23 O          45.8010   14.6837  -28.9720 O.3     1  UNL1       -0.3766
     24 H          46.4896   11.4372  -27.3599 H       1  UNL1        0.2106
     25 H          49.2369   14.7001  -27.1873 H       1  UNL1        0.2105
     26 H          45.5671   15.4445  -29.5656 H       1  UNL1        0.2107
     27 C          44.9122   13.5700  -24.5593 C.2     1  UNL1        0.3439
     28 O          43.7841   13.0180  -24.4565 O.2     1  UNL1       -0.2475
     29 O          45.7514   13.6400  -23.4513 O.3     1  UNL1       -0.4785
     30 H          45.4579   13.2706  -22.5549 H       1  UNL1        0.2951
     31 C          49.3313   12.5301  -18.5192 C.ar    1  UNL1        0.0548
     32 C          50.4264   13.2458  -19.0276 C.ar    1  UNL1        0.0077
     33 C          50.4564   13.6342  -20.3704 C.ar    1  UNL1        0.0390
     34 C          49.4050   13.3066  -21.2344 C.ar    1  UNL1        0.1598
     35 C          48.2915   12.5965  -20.7213 C.ar    1  UNL1        0.0993
     36 C          48.2800   12.1922  -19.3831 C.ar    1  UNL1        0.0235
     37 N          50.3419   12.5227  -16.1967 N.am    1  UNL1       -0.3040
     38 C          49.2786   12.1429  -17.0917 C.2     1  UNL1        0.2458
     39 O          48.3049   11.4622  -16.6711 O.2     1  UNL1       -0.2701
     40 H          51.2514   12.7962  -16.6322 H       1  UNL1        0.1496
     41 C          49.0687   13.5324  -14.3327 C.3     1  UNL1        0.0196
     42 C          50.2267   12.5960  -14.7283 C.3     1  UNL1        0.0572
     43 C          50.0038   11.1897  -14.1410 C.3     1  UNL1        0.0196
     44 C          51.5388   13.1683  -14.1522 C.3     1  UNL1        0.0196
     45 N          47.1450   12.3146  -21.5242 N.pl3   1  UNL1       -0.2120
     46 H          46.5032   13.1016  -21.7652 H       1  UNL1        0.1738
     47 S          47.1107   10.9069  -22.5295 S.O2    1  UNL1        0.0745
     48 O          45.9905   11.0458  -23.5221 O.2     1  UNL1       -0.1499
     49 O          46.8403    9.6857  -21.6966 O.2     1  UNL1       -0.1499
     50 C          48.6516   10.7643  -23.3865 C.ar    1  UNL1        0.1356
     51 C          48.7873   11.4017  -24.6260 C.ar    1  UNL1        0.0207
     52 C          50.0063   11.3909  -25.3057 C.ar    1  UNL1       -0.0028
     53 C          51.1266   10.7368  -24.7555 C.ar    1  UNL1       -0.0216
     54 C          50.9841   10.0868  -23.5208 C.ar    1  UNL1        0.0085
     55 C          49.7645   10.0953  -22.8337 C.ar    1  UNL1        0.0762
     56 CL         49.6997    9.2745  -21.2773 Cl      1  UNL1       -0.0809
     57 C          52.4954   10.7075  -25.4144 C.3     1  UNL1        0.0224
     58 C          53.4447   11.8441  -25.0608 C.3     1  UNL1        0.0047
     59 C          52.8153   11.7798  -26.4470 C.3     1  UNL1        0.0047
@<TRIPOS>BOND
     1    41    42    1
     2    42    43    1
     3    42    44    1
     4    42    37    1
     5    37    38   am
     6    38    39    2
     7    38    31    1
     8    31    32   ar
     9    32    33   ar
    10    33    34   ar
    11    34     1    1
    12     1     2    1
    13     2     3   ar
    14     3     4   ar
    15     4     5    1
    16     4     6   ar
    17     6    11    1
    18    11    12    1
    19    12    13    2
    20    12    14    1
    21    14    15    1
    22    15    16    1
    23    16    17    1
    24    17    27    1
    25    27    28    2
    26    27    29    1
    27    17    18    1
    28    18    19    1
    29    18    20    1
    30    20    21    1
    31    20    22    1
    32    22    23    1
    33     6     7   ar
    34     7     8    1
    35     7     9   ar
    36     9    10    1
    37    34    35   ar
    38    35    45    1
    39    45    47    1
    40    47    48    2
    41    47    49    2
    42    47    50    1
    43    50    51   ar
    44    51    52   ar
    45    52    53   ar
    46    53    57    1
    47    57    58    1
    48    58    59    1
    49    53    54   ar
    50    54    55   ar
    51    55    56    1
    52    35    36   ar
    53    36    31   ar
    54     9     2   ar
    55    55    50   ar
    56    22    15    1
    57    59    57    1
    58    37    40    1
    59    29    30    1
    60    19    24    1
    61    21    25    1
    62    23    26    1
    63    45    46    1
@<TRIPOS>MOLECULE
*****
 59 63 0 0 0
SMALL
GASTEIGER

@<TRIPOS>ATOM
      1 O          50.0851   14.3945  -23.1811 O.3     1  UNL1       -0.4513
      2 C          49.0911   15.2032  -23.7427 C.ar    1  UNL1        0.1584
      3 C          47.7571   14.8342  -23.5791 C.ar    1  UNL1        0.0677
      4 C          46.7538   15.4866  -24.2919 C.ar    1  UNL1        0.1402
      5 F          45.4809   15.0239  -24.1983 F       1  UNL1       -0.2044
      6 C          47.0679   16.5610  -25.1453 C.ar    1  UNL1        0.0228
      7 C          48.4082   17.0170  -25.2219 C.ar    1  UNL1        0.0423
      8 I          48.9453   18.6736  -26.4643 I       1  UNL1       -0.0418
      9 C          49.4163   16.3393  -24.5064 C.ar    1  UNL1        0.0973
     10 CL         51.0947   16.8780  -24.5831 Cl      1  UNL1       -0.0786
     11 C          45.9986   17.0966  -26.0697 C.3     1  UNL1        0.1386
     12 C          45.8821   16.2241  -27.2855 C.2     1  UNL1        0.3234
     13 O          45.9386   16.7420  -28.4339 O.2     1  UNL1       -0.2497
     14 O          45.7513   14.8368  -27.1330 O.3     1  UNL1       -0.4215
     15 C          46.6515   13.8809  -27.6905 C.3     1  UNL1        0.3207
     16 O          45.9952   13.2649  -28.7909 O.3     1  UNL1       -0.3070
     17 C          46.7103   12.1271  -29.2334 C.3     1  UNL1        0.2456
     18 C          46.5583   10.9707  -28.2142 C.3     1  UNL1        0.1781
     19 O          47.7108   10.1679  -28.2607 O.3     1  UNL1       -0.3790
     20 C          46.3453   11.5161  -26.7806 C.3     1  UNL1        0.1733
     21 O          44.9686   11.6907  -26.5538 O.3     1  UNL1       -0.3793
     22 C          47.0762   12.8580  -26.5892 C.3     1  UNL1        0.2106
     23 O          48.4628   12.6371  -26.6433 O.3     1  UNL1       -0.3766
     24 H          47.4719    9.2950  -27.8519 H       1  UNL1        0.2106
     25 H          44.8449   11.7694  -25.5717 H       1  UNL1        0.2105
     26 H          48.8961   13.4419  -26.2554 H       1  UNL1        0.2107
     27 C          46.1931   11.7059  -30.5781 C.2     1  UNL1        0.3439
     28 O          45.6631   12.5565  -31.3420 O.2     1  UNL1       -0.2475
     29 O          46.3429   10.3902  -31.0063 O.3     1  UNL1       -0.4785
     30 H          46.0113   10.1014  -31.9190 H       1  UNL1        0.2951
     31 C          49.7732   12.7334  -19.3020 C.ar    1  UNL1        0.0548
     32 C          49.2926   14.0207  -19.5885 C.ar    1  UNL1        0.0077
     33 C          49.3975   14.5440  -20.8808 C.ar    1  UNL1        0.0390
     34 C          49.9936   13.8027  -21.9076 C.ar    1  UNL1        0.1598
     35 C          50.4670   12.4975  -21.6253 C.ar    1  UNL1        0.0993
     36 C          50.3789   11.9908  -20.3254 C.ar    1  UNL1        0.0235
     37 N          50.4438   12.6633  -16.8606 N.am    1  UNL1       -0.3040
     38 C          49.6375   12.1611  -17.9439 C.2     1  UNL1        0.2458
     39 O          48.8243   11.2183  -17.7485 O.2     1  UNL1       -0.2701
     40 H          51.3015   13.2009  -17.1194 H       1  UNL1        0.1496
     41 C          49.8127   11.0401  -15.1051 C.3     1  UNL1        0.0196
     42 C          50.1252   12.5138  -15.4284 C.3     1  UNL1        0.0572
     43 C          51.2998   13.0145  -14.5670 C.3     1  UNL1        0.0196
     44 C          48.8784   13.3625  -15.1027 C.3     1  UNL1        0.0196
     45 N          50.9978   11.6532  -22.6471 N.pl3   1  UNL1       -0.2120
     46 H          51.9524   11.2531  -22.5131 H       1  UNL1        0.1738
     47 S          49.9364   10.8568  -23.7573 S.O2    1  UNL1        0.0745
     48 O          48.7528   11.7453  -24.0203 O.2     1  UNL1       -0.1499
     49 O          49.4279    9.5771  -23.1558 O.2     1  UNL1       -0.1499
     50 C          50.7988   10.5500  -25.2710 C.ar    1  UNL1        0.1356
     51 C          50.5124    9.3741  -25.9756 C.ar    1  UNL1        0.0207
     52 C          51.1022    9.1220  -27.2152 C.ar    1  UNL1       -0.0028
     53 C          51.9991   10.0488  -27.7827 C.ar    1  UNL1       -0.0216
     54 C          52.2953   11.2189  -27.0682 C.ar    1  UNL1        0.0085
     55 C          51.7060   11.4780  -25.8252 C.ar    1  UNL1        0.0762
     56 CL         52.1228   12.9897  -25.0245 Cl      1  UNL1       -0.0809
     57 C          52.6565    9.8655  -29.1402 C.3     1  UNL1        0.0224
     58 C          52.3439    8.5708  -29.8779 C.3     1  UNL1        0.0047
     59 C          53.7269    8.7914  -29.2775 C.3     1  UNL1        0.0047
@<TRIPOS>BOND
     1    41    42    1
     2    42    43    1
     3    42    44    1
     4    42    37    1
     5    37    38   am
     6    38    39    2
     7    38    31    1
     8    31    32   ar
     9    32    33   ar
    10    33    34   ar
    11    34     1    1
    12     1     2    1
    13     2     3   ar
    14     3     4   ar
    15     4     5    1
    16     4     6   ar
    17     6    11    1
    18    11    12    1
    19    12    13    2
    20    12    14    1
    21    14    15    1
    22    15    16    1
    23    16    17    1
    24    17    27    1
    25    27    28    2
    26    27    29    1
    27    17    18    1
    28    18    19    1
    29    18    20    1
    30    20    21    1
    31    20    22    1
    32    22    23    1
    33     6     7   ar
    34     7     8    1
    35     7     9   ar
    36     9    10    1
    37    34    35   ar
    38    35    45    1
    39    45    47    1
    40    47    48    2
    41    47    49    2
    42    47    50    1
    43    50    51   ar
    44    51    52   ar
    45    52    53   ar
    46    53    57    1
    47    57    58    1
    48    58    59    1
    49    53    54   ar
    50    54    55   ar
    51    55    56    1
    52    35    36   ar
    53    36    31   ar
    54     9     2   ar
    55    55    50   ar
    56    22    15    1
    57    59    57    1
    58    37    40    1
    59    29    30    1
    60    19    24    1
    61    21    25    1
    62    23    26    1
    63    45    46    1
@<TRIPOS>MOLECULE
*****
 59 63 0 0 0
SMALL
GASTEIGER

@<TRIPOS>ATOM
      1 O          46.8625   11.3796  -23.9356 O.3     1  UNL1       -0.4513
      2 C          46.9165   11.1790  -22.5521 C.ar    1  UNL1        0.1584
      3 C          45.9847   11.8295  -21.7451 C.ar    1  UNL1        0.0677
      4 C          46.1295   11.8266  -20.3597 C.ar    1  UNL1        0.1402
      5 F          45.2721   12.5682  -19.6127 F       1  UNL1       -0.2044
      6 C          47.1875   11.1227  -19.7543 C.ar    1  UNL1        0.0228
      7 C          48.0669   10.3606  -20.5643 C.ar    1  UNL1        0.0423
      8 I          49.6672    9.2316  -19.7036 I       1  UNL1       -0.0418
      9 C          47.9181   10.3833  -21.9660 C.ar    1  UNL1        0.0973
     10 CL         48.9979    9.4499  -23.0032 Cl      1  UNL1       -0.0786
     11 C          47.4484   11.3227  -18.2789 C.3     1  UNL1        0.1386
     12 C          48.3326   12.5171  -18.0678 C.2     1  UNL1        0.3234
     13 O          47.9690   13.4320  -17.2798 O.2     1  UNL1       -0.2497
     14 O          49.5724   12.5854  -18.7184 O.3     1  UNL1       -0.4215
     15 C          50.0444   13.7309  -19.4252 C.3     1  UNL1        0.3207
     16 O          49.1383   13.9798  -20.4920 O.3     1  UNL1       -0.3070
     17 C          49.6701   14.9297  -21.3957 C.3     1  UNL1        0.2456
     18 C          50.8142   14.2957  -22.2253 C.3     1  UNL1        0.1781
     19 O          51.7337   15.2994  -22.5748 O.3     1  UNL1       -0.3790
     20 C          51.5252   13.1746  -21.4282 C.3     1  UNL1        0.1733
     21 O          50.8770   11.9515  -21.6750 O.3     1  UNL1       -0.3793
     22 C          51.5046   13.4764  -19.9182 C.3     1  UNL1        0.2106
     23 O          52.3039   14.6037  -19.6646 O.3     1  UNL1       -0.3766
     24 H          52.2659   14.9511  -23.3375 H       1  UNL1        0.2106
     25 H          51.4980   11.2318  -21.3882 H       1  UNL1        0.2105
     26 H          52.4891   14.6096  -18.6891 H       1  UNL1        0.2107
     27 C          48.5791   15.4184  -22.3035 C.2     1  UNL1        0.3439
     28 O          47.4450   14.8698  -22.2748 O.2     1  UNL1       -0.2475
     29 O          48.7990   16.5087  -23.1402 O.3     1  UNL1       -0.4785
     30 H          48.0630   16.8551  -23.7440 H       1  UNL1        0.2951
     31 C          48.1266   14.9026  -25.9090 C.ar    1  UNL1        0.0548
     32 C          46.7730   14.6708  -25.6191 C.ar    1  UNL1        0.0077
     33 C          46.3808   13.5038  -24.9566 C.ar    1  UNL1        0.0390
     34 C          47.3251   12.5406  -24.5824 C.ar    1  UNL1        0.1598
     35 C          48.6939   12.7778  -24.8608 C.ar    1  UNL1        0.0993
     36 C          49.0749   13.9365  -25.5439 C.ar    1  UNL1        0.0235
     37 N          48.1944   17.4316  -26.0300 N.am    1  UNL1       -0.3040
     38 C          48.5524   16.1499  -26.5822 C.2     1  UNL1        0.2458
     39 O          49.2144   16.0802  -27.6524 O.2     1  UNL1       -0.2701
     40 H          47.4031   17.4481  -25.3479 H       1  UNL1        0.1496
     41 C          50.3722   18.5984  -25.9274 C.3     1  UNL1        0.0196
     42 C          48.8859   18.7014  -26.3203 C.3     1  UNL1        0.0572
     43 C          48.7490   19.0526  -27.8137 C.3     1  UNL1        0.0196
     44 C          48.2354   19.8261  -25.4879 C.3     1  UNL1        0.0196
     45 N          49.7161   11.8828  -24.4221 N.pl3   1  UNL1       -0.2120
     46 H          49.4310   11.0090  -23.9276 H       1  UNL1        0.1738
     47 S          51.2815   11.9208  -25.1582 S.O2    1  UNL1        0.0745
     48 O          52.3144   11.5778  -24.1215 O.2     1  UNL1       -0.1499
     49 O          51.5786   13.3037  -25.6655 O.2     1  UNL1       -0.1499
     50 C          51.3381   10.7358  -26.4703 C.ar    1  UNL1        0.1356
     51 C          50.2325    9.8976  -26.6607 C.ar    1  UNL1        0.0207
     52 C          50.1900    9.0024  -27.7306 C.ar    1  UNL1       -0.0028
     53 C          51.2619    8.9252  -28.6421 C.ar    1  UNL1       -0.0216
     54 C          52.3743    9.7555  -28.4408 C.ar    1  UNL1        0.0085
     55 C          52.4221   10.6563  -27.3704 C.ar    1  UNL1        0.0762
     56 CL         53.8515   11.6740  -27.2245 Cl      1  UNL1       -0.0809
     57 C          51.2789    8.0033  -29.8497 C.3     1  UNL1        0.0224
     58 C          52.6369    7.4574  -30.2693 C.3     1  UNL1        0.0047
     59 C          51.9397    8.5076  -31.1254 C.3     1  UNL1        0.0047
@<TRIPOS>BOND
     1    41    42    1
     2    42    43    1
     3    42    44    1
     4    42    37    1
     5    37    38   am
     6    38    39    2
     7    38    31    1
     8    31    32   ar
     9    32    33   ar
    10    33    34   ar
    11    34     1    1
    12     1     2    1
    13     2     3   ar
    14     3     4   ar
    15     4     5    1
    16     4     6   ar
    17     6    11    1
    18    11    12    1
    19    12    13    2
    20    12    14    1
    21    14    15    1
    22    15    16    1
    23    16    17    1
    24    17    27    1
    25    27    28    2
    26    27    29    1
    27    17    18    1
    28    18    19    1
    29    18    20    1
    30    20    21    1
    31    20    22    1
    32    22    23    1
    33     6     7   ar
    34     7     8    1
    35     7     9   ar
    36     9    10    1
    37    34    35   ar
    38    35    45    1
    39    45    47    1
    40    47    48    2
    41    47    49    2
    42    47    50    1
    43    50    51   ar
    44    51    52   ar
    45    52    53   ar
    46    53    57    1
    47    57    58    1
    48    58    59    1
    49    53    54   ar
    50    54    55   ar
    51    55    56    1
    52    35    36   ar
    53    36    31   ar
    54     9     2   ar
    55    55    50   ar
    56    22    15    1
    57    59    57    1
    58    37    40    1
    59    29    30    1
    60    19    24    1
    61    21    25    1
    62    23    26    1
    63    45    46    1
@<TRIPOS>MOLECULE
*****
 59 63 0 0 0
SMALL
GASTEIGER

@<TRIPOS>ATOM
      1 O          53.1832   12.5083  -24.4059 O.3     1  UNL1       -0.4513
      2 C          52.3731   13.2412  -23.5318 C.ar    1  UNL1        0.1584
      3 C          52.6208   13.1590  -22.1627 C.ar    1  UNL1        0.0677
      4 C          51.7175   13.6991  -21.2502 C.ar    1  UNL1        0.1402
      5 F          51.9302   13.4973  -19.9246 F       1  UNL1       -0.2044
      6 C          50.5710   14.3809  -21.6994 C.ar    1  UNL1        0.0228
      7 C          50.3778   14.5713  -23.0911 C.ar    1  UNL1        0.0423
      8 I          48.6806   15.6378  -23.8382 I       1  UNL1       -0.0418
      9 C          51.2919   14.0076  -24.0044 C.ar    1  UNL1        0.0973
     10 CL         51.0787   14.2220  -25.7427 Cl      1  UNL1       -0.0786
     11 C          49.5035   14.7548  -20.6967 C.3     1  UNL1        0.1386
     12 C          49.1017   13.5502  -19.8964 C.2     1  UNL1        0.3234
     13 O          48.4599   12.6172  -20.4511 O.2     1  UNL1       -0.2497
     14 O          49.4783   13.4559  -18.5494 O.3     1  UNL1       -0.4215
     15 C          48.6011   13.0552  -17.4983 C.3     1  UNL1        0.3207
     16 O          48.9144   13.8409  -16.3556 O.3     1  UNL1       -0.3070
     17 C          48.2771   13.3297  -15.2005 C.3     1  UNL1        0.2456
     18 C          48.9589   12.0129  -14.7528 C.3     1  UNL1        0.1781
     19 O          48.0055   11.1997  -14.1165 O.3     1  UNL1       -0.3790
     20 C          49.5761   11.2664  -15.9609 C.3     1  UNL1        0.1733
     21 O          50.8985   11.7063  -16.1478 O.3     1  UNL1       -0.3793
     22 C          48.7590   11.5227  -17.2408 C.3     1  UNL1        0.2106
     23 O          47.4958   10.9223  -17.1068 O.3     1  UNL1       -0.3766
     24 H          48.5073   10.5313  -13.5802 H       1  UNL1        0.2106
     25 H          51.3472   11.0362  -16.7272 H       1  UNL1        0.2105
     26 H          47.1069   10.8674  -18.0187 H       1  UNL1        0.2107
     27 C          48.3453   14.3499  -14.1015 C.2     1  UNL1        0.3439
     28 O          49.4636   14.7015  -13.6391 O.2     1  UNL1       -0.2475
     29 O          47.1817   14.9475  -13.6265 O.3     1  UNL1       -0.4785
     30 H          47.2202   15.6489  -12.8965 H       1  UNL1        0.2951
     31 C          51.7301    9.9242  -27.4249 C.ar    1  UNL1        0.0548
     32 C          52.4446   11.0904  -27.7403 C.ar    1  UNL1        0.0077
     33 C          52.9240   11.9233  -26.7247 C.ar    1  UNL1        0.0390
     34 C          52.6904   11.6188  -25.3786 C.ar    1  UNL1        0.1598
     35 C          51.9817   10.4350  -25.0562 C.ar    1  UNL1        0.0993
     36 C          51.4861    9.6200  -26.0782 C.ar    1  UNL1        0.0235
     37 N          51.9138    8.9858  -29.7703 N.am    1  UNL1       -0.3040
     38 C          51.2466    9.0219  -28.4938 C.2     1  UNL1        0.2458
     39 O          50.2352    8.3001  -28.2833 O.2     1  UNL1       -0.2701
     40 H          52.5241    9.7999  -30.0080 H       1  UNL1        0.1496
     41 C          50.4879    7.1390  -30.5894 C.3     1  UNL1        0.0196
     42 C          51.8343    7.8739  -30.7358 C.3     1  UNL1        0.0572
     43 C          52.0029    8.4034  -32.1723 C.3     1  UNL1        0.0196
     44 C          52.9728    6.8747  -30.4421 C.3     1  UNL1        0.0196
     45 N          51.7924   10.0171  -23.7042 N.pl3   1  UNL1       -0.2120
     46 H          52.3884   10.4486  -22.9640 H       1  UNL1        0.1738
     47 S          50.2988    9.2915  -23.2181 S.O2    1  UNL1        0.0745
     48 O          50.3960    8.9033  -21.7692 O.2     1  UNL1       -0.1499
     49 O          50.0500    8.0419  -24.0148 O.2     1  UNL1       -0.1499
     50 C          48.9859   10.4570  -23.4357 C.ar    1  UNL1        0.1356
     51 C          49.0456   11.3334  -24.5263 C.ar    1  UNL1        0.0207
     52 C          47.9977   12.2161  -24.7922 C.ar    1  UNL1       -0.0028
     53 C          46.8566   12.2417  -23.9659 C.ar    1  UNL1       -0.0216
     54 C          46.8057   11.3729  -22.8658 C.ar    1  UNL1        0.0085
     55 C          47.8530   10.4845  -22.5948 C.ar    1  UNL1        0.0762
     56 CL         47.6771    9.4160  -21.2064 Cl      1  UNL1       -0.0809
     57 C          45.6601   13.1470  -24.2058 C.3     1  UNL1        0.0224
     58 C          44.4179   12.4910  -24.7928 C.3     1  UNL1        0.0047
     59 C          45.2575   13.4338  -25.6460 C.3     1  UNL1        0.0047
@<TRIPOS>BOND
     1    41    42    1
     2    42    43    1
     3    42    44    1
     4    42    37    1
     5    37    38   am
     6    38    39    2
     7    38    31    1
     8    31    32   ar
     9    32    33   ar
    10    33    34   ar
    11    34     1    1
    12     1     2    1
    13     2     3   ar
    14     3     4   ar
    15     4     5    1
    16     4     6   ar
    17     6    11    1
    18    11    12    1
    19    12    13    2
    20    12    14    1
    21    14    15    1
    22    15    16    1
    23    16    17    1
    24    17    27    1
    25    27    28    2
    26    27    29    1
    27    17    18    1
    28    18    19    1
    29    18    20    1
    30    20    21    1
    31    20    22    1
    32    22    23    1
    33     6     7   ar
    34     7     8    1
    35     7     9   ar
    36     9    10    1
    37    34    35   ar
    38    35    45    1
    39    45    47    1
    40    47    48    2
    41    47    49    2
    42    47    50    1
    43    50    51   ar
    44    51    52   ar
    45    52    53   ar
    46    53    57    1
    47    57    58    1
    48    58    59    1
    49    53    54   ar
    50    54    55   ar
    51    55    56    1
    52    35    36   ar
    53    36    31   ar
    54     9     2   ar
    55    55    50   ar
    56    22    15    1
    57    59    57    1
    58    37    40    1
    59    29    30    1
    60    19    24    1
    61    21    25    1
    62    23    26    1
    63    45    46    1
@<TRIPOS>MOLECULE
*****
 59 63 0 0 0
SMALL
GASTEIGER

@<TRIPOS>ATOM
      1 O          48.6677   12.8031  -21.8070 O.3     1  UNL1       -0.4513
      2 C          48.8466   11.8767  -22.8401 C.ar    1  UNL1        0.1584
      3 C          49.6713   10.7758  -22.6157 C.ar    1  UNL1        0.0677
      4 C          50.0430    9.9477  -23.6724 C.ar    1  UNL1        0.1402
      5 F          50.9408    8.9563  -23.4395 F       1  UNL1       -0.2044
      6 C          49.5482   10.1803  -24.9694 C.ar    1  UNL1        0.0228
      7 C          48.6142   11.2263  -25.1784 C.ar    1  UNL1        0.0423
      8 I          47.7891   11.6041  -27.1156 I       1  UNL1       -0.0418
      9 C          48.2571   12.0659  -24.1036 C.ar    1  UNL1        0.0973
     10 CL         47.1011   13.3794  -24.3302 Cl      1  UNL1       -0.0786
     11 C          50.1417    9.4103  -26.1268 C.3     1  UNL1        0.1386
     12 C          51.4340   10.0403  -26.5582 C.2     1  UNL1        0.3234
     13 O          51.7741   11.1573  -26.0818 O.2     1  UNL1       -0.2497
     14 O          52.2697    9.3624  -27.4566 O.3     1  UNL1       -0.4215
     15 C          52.0900    9.3595  -28.8718 C.3     1  UNL1        0.3207
     16 O          51.2276    8.2755  -29.1920 O.3     1  UNL1       -0.3070
     17 C          51.2090    8.0397  -30.5870 C.3     1  UNL1        0.2456
     18 C          52.5439    7.3963  -31.0379 C.3     1  UNL1        0.1781
     19 O          52.8062    7.7744  -32.3659 O.3     1  UNL1       -0.3790
     20 C          53.7111    7.8324  -30.1184 C.3     1  UNL1        0.1733
     21 O          53.8161    6.9281  -29.0468 O.3     1  UNL1       -0.3793
     22 C          53.4806    9.2549  -29.5754 C.3     1  UNL1        0.2106
     23 O          53.5542   10.1698  -30.6392 O.3     1  UNL1       -0.3766
     24 H          53.4686    7.1277  -32.7252 H       1  UNL1        0.2106
     25 H          54.7129    7.0618  -28.6422 H       1  UNL1        0.2105
     26 H          53.6736   11.0690  -30.2355 H       1  UNL1        0.2107
     27 C          50.0575    7.1377  -30.9241 C.2     1  UNL1        0.3439
     28 O          49.0526    7.0914  -30.1651 O.2     1  UNL1       -0.2475
     29 O          50.0723    6.3908  -32.0983 O.3     1  UNL1       -0.4785
     30 H          49.2920    5.7921  -32.3414 H       1  UNL1        0.2951
     31 C          49.0036   11.9194  -17.6827 C.ar    1  UNL1        0.0548
     32 C          47.7525   12.0877  -18.2963 C.ar    1  UNL1        0.0077
     33 C          47.6666   12.3688  -19.6632 C.ar    1  UNL1        0.0390
     34 C          48.8226   12.5007  -20.4414 C.ar    1  UNL1        0.1598
     35 C          50.0867   12.3174  -19.8283 C.ar    1  UNL1        0.0993
     36 C          50.1643   12.0593  -18.4565 C.ar    1  UNL1        0.0235
     37 N          50.2976   11.9075  -15.5055 N.am    1  UNL1       -0.3040
     38 C          49.1010   11.5910  -16.2429 C.2     1  UNL1        0.2458
     39 O          48.1355   11.0152  -15.6731 O.2     1  UNL1       -0.2701
     40 H          51.1639   12.0830  -16.0627 H       1  UNL1        0.1496
     41 C          51.7274   12.6679  -13.6367 C.3     1  UNL1        0.0196
     42 C          50.3770   12.0446  -14.0393 C.3     1  UNL1        0.0572
     43 C          49.2118   12.9088  -13.5217 C.3     1  UNL1        0.0196
     44 C          50.2734   10.6440  -13.4002 C.3     1  UNL1        0.0196
     45 N          51.2987   12.3436  -20.5825 N.pl3   1  UNL1       -0.2120
     46 H          51.5780   11.4824  -21.1017 H       1  UNL1        0.1738
     47 S          51.9707   13.8521  -21.0987 S.O2    1  UNL1        0.0745
     48 O          53.4620   13.7050  -21.2160 O.2     1  UNL1       -0.1499
     49 O          51.6912   14.9172  -20.0761 O.2     1  UNL1       -0.1499
     50 C          51.2893   14.2863  -22.6724 C.ar    1  UNL1        0.1356
     51 C          50.3702   15.3412  -22.7335 C.ar    1  UNL1        0.0207
     52 C          49.8650   15.7789  -23.9587 C.ar    1  UNL1       -0.0028
     53 C          50.2718   15.1660  -25.1606 C.ar    1  UNL1       -0.0216
     54 C          51.1814   14.1003  -25.0954 C.ar    1  UNL1        0.0085
     55 C          51.6926   13.6577  -23.8697 C.ar    1  UNL1        0.0762
     56 CL         52.8510   12.3320  -23.9004 Cl      1  UNL1       -0.0809
     57 C          49.7957   15.6042  -26.5354 C.3     1  UNL1        0.0224
     58 C          49.4036   17.0678  -26.6846 C.3     1  UNL1        0.0047
     59 C          48.3306   15.9859  -26.6969 C.3     1  UNL1        0.0047
@<TRIPOS>BOND
     1    41    42    1
     2    42    43    1
     3    42    44    1
     4    42    37    1
     5    37    38   am
     6    38    39    2
     7    38    31    1
     8    31    32   ar
     9    32    33   ar
    10    33    34   ar
    11    34     1    1
    12     1     2    1
    13     2     3   ar
    14     3     4   ar
    15     4     5    1
    16     4     6   ar
    17     6    11    1
    18    11    12    1
    19    12    13    2
    20    12    14    1
    21    14    15    1
    22    15    16    1
    23    16    17    1
    24    17    27    1
    25    27    28    2
    26    27    29    1
    27    17    18    1
    28    18    19    1
    29    18    20    1
    30    20    21    1
    31    20    22    1
    32    22    23    1
    33     6     7   ar
    34     7     8    1
    35     7     9   ar
    36     9    10    1
    37    34    35   ar
    38    35    45    1
    39    45    47    1
    40    47    48    2
    41    47    49    2
    42    47    50    1
    43    50    51   ar
    44    51    52   ar
    45    52    53   ar
    46    53    57    1
    47    57    58    1
    48    58    59    1
    49    53    54   ar
    50    54    55   ar
    51    55    56    1
    52    35    36   ar
    53    36    31   ar
    54     9     2   ar
    55    55    50   ar
    56    22    15    1
    57    59    57    1
    58    37    40    1
    59    29    30    1
    60    19    24    1
    61    21    25    1
    62    23    26    1
    63    45    46    1
@<TRIPOS>MOLECULE
*****
 59 63 0 0 0
SMALL
GASTEIGER

@<TRIPOS>ATOM
      1 O          48.1359    9.0014  -28.4179 O.3     1  UNL1       -0.4513
      2 C          47.6606   10.3120  -28.3001 C.ar    1  UNL1        0.1584
      3 C          47.7455   10.9454  -27.0616 C.ar    1  UNL1        0.0677
      4 C          47.1001   12.1610  -26.8468 C.ar    1  UNL1        0.1402
      5 F          47.1051   12.6901  -25.5966 F       1  UNL1       -0.2044
      6 C          46.3990   12.7911  -27.8921 C.ar    1  UNL1        0.0228
      7 C          46.4117   12.2097  -29.1852 C.ar    1  UNL1        0.0423
      8 I          45.4047   13.1394  -30.8277 I       1  UNL1       -0.0418
      9 C          47.0566   10.9722  -29.3859 C.ar    1  UNL1        0.0973
     10 CL         47.0874   10.2191  -30.9812 Cl      1  UNL1       -0.0786
     11 C          45.5274   13.9839  -27.5724 C.3     1  UNL1        0.1386
     12 C          46.3798   15.1908  -27.3084 C.2     1  UNL1        0.3234
     13 O          47.2826   15.5097  -28.1290 O.2     1  UNL1       -0.2497
     14 O          46.1379   15.9750  -26.1718 O.3     1  UNL1       -0.4215
     15 C          47.1251   16.7783  -25.5277 C.3     1  UNL1        0.3207
     16 O          47.9549   17.3319  -26.5407 O.3     1  UNL1       -0.3070
     17 C          49.1114   17.9231  -25.9795 C.3     1  UNL1        0.2456
     18 C          50.0827   16.8257  -25.4782 C.3     1  UNL1        0.1781
     19 O          50.8184   17.3299  -24.3921 O.3     1  UNL1       -0.3790
     20 C          49.3123   15.5508  -25.0551 C.3     1  UNL1        0.1733
     21 O          49.1759   14.7037  -26.1691 O.3     1  UNL1       -0.3793
     22 C          47.9200   15.9083  -24.5025 C.3     1  UNL1        0.2106
     23 O          48.0718   16.6053  -23.2920 O.3     1  UNL1       -0.3766
     24 H          51.6200   16.7523  -24.2927 H       1  UNL1        0.2106
     25 H          48.9371   13.8047  -25.8215 H       1  UNL1        0.2105
     26 H          47.1903   16.5815  -22.8356 H       1  UNL1        0.2107
     27 C          49.7839   18.7797  -27.0126 C.2     1  UNL1        0.3439
     28 O          51.0352   18.7290  -27.1530 O.2     1  UNL1       -0.2475
     29 O          49.0262   19.5916  -27.8514 O.3     1  UNL1       -0.4785
     30 H          49.4707   20.1604  -28.5621 H       1  UNL1        0.2951
     31 C          51.8891    7.9022  -30.0331 C.ar    1  UNL1        0.0548
     32 C          50.6867    7.4697  -30.6137 C.ar    1  UNL1        0.0077
     33 C          49.4584    7.8549  -30.0681 C.ar    1  UNL1        0.0390
     34 C          49.4036    8.6655  -28.9282 C.ar    1  UNL1        0.1598
     35 C          50.6152    9.1154  -28.3477 C.ar    1  UNL1        0.0993
     36 C          51.8390    8.7069  -28.8860 C.ar    1  UNL1        0.0235
     37 N          54.4002    8.1872  -30.2024 N.am    1  UNL1       -0.3040
     38 C          53.1924    7.5240  -30.6236 C.2     1  UNL1        0.2458
     39 O          53.2332    6.6302  -31.5112 O.2     1  UNL1       -0.2701
     40 H          54.2906    9.1079  -29.7206 H       1  UNL1        0.1496
     41 C          56.0403    7.3297  -31.8423 C.3     1  UNL1        0.0196
     42 C          55.7626    7.6452  -30.3600 C.3     1  UNL1        0.0572
     43 C          56.8000    8.6485  -29.8217 C.3     1  UNL1        0.0196
     44 C          55.8765    6.3366  -29.5504 C.3     1  UNL1        0.0196
     45 N          50.6290   10.0203  -27.2435 N.pl3   1  UNL1       -0.2120
     46 H          50.1844   10.9568  -27.3646 H       1  UNL1        0.1738
     47 S          50.8320    9.4245  -25.6319 S.O2    1  UNL1        0.0745
     48 O          52.3002    9.2568  -25.3571 O.2     1  UNL1       -0.1499
     49 O          50.1803    8.0774  -25.4949 O.2     1  UNL1       -0.1499
     50 C          50.1409   10.5849  -24.4894 C.ar    1  UNL1        0.1356
     51 C          49.1491   10.1415  -23.6057 C.ar    1  UNL1        0.0207
     52 C          48.6291   10.9927  -22.6295 C.ar    1  UNL1       -0.0028
     53 C          49.0939   12.3179  -22.5144 C.ar    1  UNL1       -0.0216
     54 C          50.0770   12.7639  -23.4100 C.ar    1  UNL1        0.0085
     55 C          50.6033   11.9145  -24.3903 C.ar    1  UNL1        0.0762
     56 CL         51.8543   12.5639  -25.4455 Cl      1  UNL1       -0.0809
     57 C          48.6048   13.2959  -21.4593 C.3     1  UNL1        0.0224
     58 C          49.5725   14.3994  -21.0544 C.3     1  UNL1        0.0047
     59 C          49.2676   13.2604  -20.0890 C.3     1  UNL1        0.0047
@<TRIPOS>BOND
     1    41    42    1
     2    42    43    1
     3    42    44    1
     4    42    37    1
     5    37    38   am
     6    38    39    2
     7    38    31    1
     8    31    32   ar
     9    32    33   ar
    10    33    34   ar
    11    34     1    1
    12     1     2    1
    13     2     3   ar
    14     3     4   ar
    15     4     5    1
    16     4     6   ar
    17     6    11    1
    18    11    12    1
    19    12    13    2
    20    12    14    1
    21    14    15    1
    22    15    16    1
    23    16    17    1
    24    17    27    1
    25    27    28    2
    26    27    29    1
    27    17    18    1
    28    18    19    1
    29    18    20    1
    30    20    21    1
    31    20    22    1
    32    22    23    1
    33     6     7   ar
    34     7     8    1
    35     7     9   ar
    36     9    10    1
    37    34    35   ar
    38    35    45    1
    39    45    47    1
    40    47    48    2
    41    47    49    2
    42    47    50    1
    43    50    51   ar
    44    51    52   ar
    45    52    53   ar
    46    53    57    1
    47    57    58    1
    48    58    59    1
    49    53    54   ar
    50    54    55   ar
    51    55    56    1
    52    35    36   ar
    53    36    31   ar
    54     9     2   ar
    55    55    50   ar
    56    22    15    1
    57    59    57    1
    58    37    40    1
    59    29    30    1
    60    19    24    1
    61    21    25    1
    62    23    26    1
    63    45    46    1
