@<TRIPOS>MOLECULE
*****
 50 55 0 0 0
SMALL
GASTEIGER

@<TRIPOS>ATOM
      1 O          60.3628   83.5005    9.8310 O.2     1  UNL1       -0.2701
      2 C          59.4984   84.4154    9.9087 C.2     1  UNL1        0.2483
      3 N          58.4847   84.3634   10.9311 N.am    1  UNL1       -0.2945
      4 H          57.8080   85.1552   11.0089 H       1  UNL1        0.1501
      5 C          59.5481   85.5423    8.9487 C.ar    1  UNL1        0.0808
      6 C          58.6226   85.6226    7.8949 C.ar    1  UNL1        0.0080
      7 C          58.6687   86.6841    6.9877 C.ar    1  UNL1        0.0148
      8 C          59.6424   87.6900    7.1115 C.ar    1  UNL1        0.0502
      9 C          60.5754   87.6032    8.1588 C.ar    1  UNL1        0.0443
     10 C          60.5322   86.5417    9.0679 C.ar    1  UNL1        0.1457
     11 F          61.4351   86.5105   10.0812 F       1  UNL1       -0.2040
     12 N          59.6930   88.7865    6.1719 N.pl3   1  UNL1       -0.3040
     13 C          60.9658   89.4776    5.9085 C.3     1  UNL1        0.1123
     14 C          61.0271   89.9666    4.4566 C.3     1  UNL1        0.1136
     15 N          59.7960   90.6657    4.0692 N.pl3   1  UNL1       -0.2894
     16 C          58.6387   90.6856    4.9704 C.3     1  UNL1        0.1136
     17 C          58.4407   89.3009    5.5909 C.3     1  UNL1        0.1123
     18 C          59.6817   91.1779    2.7334 C.ar    1  UNL1        0.1371
     19 N          58.4494   91.2711    2.1636 N.ar    1  UNL1       -0.2288
     20 C          58.2652   91.7569    0.9085 C.ar    1  UNL1        0.1042
     21 C          59.3615   92.1965    0.1522 C.ar    1  UNL1        0.0910
     22 C          60.6453   92.0684    0.7030 C.ar    1  UNL1        0.0140
     23 C          60.8158   91.5653    1.9959 C.ar    1  UNL1        0.0616
     24 I          62.7910   91.3219    2.7219 I       1  UNL1       -0.0396
     25 C          59.1758   92.6895   -1.2601 C.3     1  UNL1        0.4200
     26 F          58.4163   93.8466   -1.2779 F       1  UNL1       -0.1658
     27 F          60.3997   92.9659   -1.8446 F       1  UNL1       -0.1658
     28 F          58.5318   91.7163   -2.0012 F       1  UNL1       -0.1658
     29 C          58.4104   83.3268   11.9730 C.3     1  UNL1        0.1535
     30 C          59.7234   82.5952   12.1283 C.2     1  UNL1        0.2443
     31 O          59.7604   81.3359   12.0587 O.2     1  UNL1       -0.2730
     32 N          60.9150   83.3320   12.4461 N.am    1  UNL1       -0.2825
     33 H          60.8026   84.2840   12.8627 H       1  UNL1        0.1549
     34 C          62.2457   82.8023   12.3189 C.ar    1  UNL1        0.0535
     35 C          62.9169   82.9114   11.0933 C.ar    1  UNL1        0.0353
     36 C          64.2009   82.3779   10.9578 C.ar    1  UNL1        0.1002
     37 N          64.7889   81.7418   12.0050 N.ar    1  UNL1       -0.2422
     38 C          64.1561   81.6030   13.1999 C.ar    1  UNL1        0.1002
     39 C          62.8715   82.1229   13.3783 C.ar    1  UNL1        0.0353
     40 C          57.9299   83.9115   13.3179 C.3     1  UNL1        0.0569
     41 C          58.6137   85.2123   13.6262 C.ar    1  UNL1       -0.0017
     42 C          58.2262   86.4770   13.1923 C.ar    1  UNL1        0.0681
     43 N          59.0252   87.4259   13.7312 N.ar    1  UNL1       -0.3523
     44 C          59.9061   86.7722   14.5087 C.ar    1  UNL1        0.0563
     45 C          60.9203   87.3274   15.2879 C.ar    1  UNL1        0.0170
     46 C          61.7201   86.4529   16.0464 C.ar    1  UNL1        0.0015
     47 C          61.4886   85.0596   16.0121 C.ar    1  UNL1        0.0001
     48 C          60.4562   84.5277   15.2182 C.ar    1  UNL1        0.0012
     49 C          59.6836   85.4194   14.4739 C.ar    1  UNL1        0.0131
     50 H          58.9577   88.4573   13.5832 H       1  UNL1        0.1660
@<TRIPOS>BOND
     1     1     2    2
     2     2     3   am
     3     3    29    1
     4    29    40    1
     5    40    41    1
     6    41    42   ar
     7    42    43   ar
     8    43    44   ar
     9    44    45   ar
    10    45    46   ar
    11    46    47   ar
    12    47    48   ar
    13    48    49   ar
    14    29    30    1
    15    30    31    2
    16    30    32   am
    17    32    34    1
    18    34    35   ar
    19    35    36   ar
    20    36    37   ar
    21    37    38   ar
    22    38    39   ar
    23     2     5    1
    24     5     6   ar
    25     6     7   ar
    26     7     8   ar
    27     8    12    1
    28    12    13    1
    29    13    14    1
    30    14    15    1
    31    15    18    1
    32    18    19   ar
    33    19    20   ar
    34    20    21   ar
    35    21    25    1
    36    25    26    1
    37    25    27    1
    38    25    28    1
    39    21    22   ar
    40    22    23   ar
    41    23    24    1
    42    15    16    1
    43    16    17    1
    44     8     9   ar
    45     9    10   ar
    46    10    11    1
    47    49    41   ar
    48    39    34   ar
    49    10     5   ar
    50    49    44   ar
    51    17    12    1
    52    23    18   ar
    53     3     4    1
    54    43    50    1
    55    32    33    1
@<TRIPOS>MOLECULE
*****
 50 55 0 0 0
SMALL
GASTEIGER

@<TRIPOS>ATOM
      1 O          57.9159   83.8731   12.6124 O.2     1  UNL1       -0.2701
      2 C          59.1351   83.6824   12.8720 C.2     1  UNL1        0.2483
      3 N          59.6605   82.3417   12.9177 N.am    1  UNL1       -0.2945
      4 H          60.6826   82.2077   13.0862 H       1  UNL1        0.1501
      5 C          60.0151   84.8489   13.1144 C.ar    1  UNL1        0.0808
      6 C          59.8261   85.6619   14.2444 C.ar    1  UNL1        0.0080
      7 C          60.6544   86.7634   14.4741 C.ar    1  UNL1        0.0148
      8 C          61.6905   87.0793   13.5786 C.ar    1  UNL1        0.0502
      9 C          61.8718   86.2727   12.4422 C.ar    1  UNL1        0.0443
     10 C          61.0441   85.1701   12.2092 C.ar    1  UNL1        0.1457
     11 F          61.2709   84.4012   11.1136 F       1  UNL1       -0.2040
     12 N          62.5455   88.2201   13.8135 N.pl3   1  UNL1       -0.3040
     13 C          62.3664   89.0434   15.0205 C.3     1  UNL1        0.1123
     14 C          63.7106   89.6064   15.4974 C.3     1  UNL1        0.1136
     15 N          64.4706   90.2009   14.3913 N.pl3   1  UNL1       -0.2894
     16 C          63.9990   90.0645   13.0090 C.3     1  UNL1        0.1136
     17 C          63.4980   88.6384   12.7703 C.3     1  UNL1        0.1123
     18 C          65.7623   90.7643   14.6629 C.ar    1  UNL1        0.1371
     19 N          66.1326   90.9781   15.9548 N.ar    1  UNL1       -0.2288
     20 C          67.3436   91.4968   16.2862 C.ar    1  UNL1        0.1042
     21 C          68.2710   91.8230   15.2860 C.ar    1  UNL1        0.0910
     22 C          67.8934   91.6521   13.9458 C.ar    1  UNL1        0.0140
     23 C          66.6426   91.1179   13.6236 C.ar    1  UNL1        0.0616
     24 I          66.1140   90.9729   11.5772 I       1  UNL1       -0.0396
     25 C          69.5973   92.4466   15.6382 C.3     1  UNL1        0.4200
     26 F          70.2403   91.7078   16.6164 F       1  UNL1       -0.1658
     27 F          70.4202   92.5021   14.5266 F       1  UNL1       -0.1658
     28 F          69.3869   93.7296   16.1078 F       1  UNL1       -0.1658
     29 C          58.8782   81.1337   12.6104 C.3     1  UNL1        0.1535
     30 C          58.4200   81.1157   11.1707 C.2     1  UNL1        0.2443
     31 O          57.4003   81.7715   10.8209 O.2     1  UNL1       -0.2730
     32 N          59.0953   80.2772   10.2195 N.am    1  UNL1       -0.2825
     33 H          59.6666   79.4837   10.5890 H       1  UNL1        0.1549
     34 C          58.9535   80.4024    8.7942 C.ar    1  UNL1        0.0535
     35 C          59.9581   81.0420    8.0550 C.ar    1  UNL1        0.0353
     36 C          59.8143   81.1867    6.6730 C.ar    1  UNL1        0.1002
     37 N          58.6978   80.7239    6.0515 N.ar    1  UNL1       -0.2422
     38 C          57.6978   80.1167    6.7435 C.ar    1  UNL1        0.1002
     39 C          57.8020   79.9505    8.1269 C.ar    1  UNL1        0.0353
     40 C          59.6570   79.8505   12.9689 C.3     1  UNL1        0.0569
     41 C          61.0826   80.1562   13.3279 C.ar    1  UNL1       -0.0017
     42 C          61.7245   79.8380   14.5215 C.ar    1  UNL1        0.0681
     43 N          63.0289   80.1908   14.4642 N.ar    1  UNL1       -0.3523
     44 C          63.2177   80.7187   13.2421 C.ar    1  UNL1        0.0563
     45 C          64.4088   81.2085   12.7079 C.ar    1  UNL1        0.0170
     46 C          64.3848   81.7011   11.3902 C.ar    1  UNL1        0.0015
     47 C          63.1855   81.6899   10.6435 C.ar    1  UNL1        0.0001
     48 C          61.9989   81.1874   11.2078 C.ar    1  UNL1        0.0012
     49 C          62.0533   80.7105   12.5176 C.ar    1  UNL1        0.0131
     50 H          63.7444   80.0623   15.2137 H       1  UNL1        0.1660
@<TRIPOS>BOND
     1     1     2    2
     2     2     3   am
     3     3    29    1
     4    29    40    1
     5    40    41    1
     6    41    42   ar
     7    42    43   ar
     8    43    44   ar
     9    44    45   ar
    10    45    46   ar
    11    46    47   ar
    12    47    48   ar
    13    48    49   ar
    14    29    30    1
    15    30    31    2
    16    30    32   am
    17    32    34    1
    18    34    35   ar
    19    35    36   ar
    20    36    37   ar
    21    37    38   ar
    22    38    39   ar
    23     2     5    1
    24     5     6   ar
    25     6     7   ar
    26     7     8   ar
    27     8    12    1
    28    12    13    1
    29    13    14    1
    30    14    15    1
    31    15    18    1
    32    18    19   ar
    33    19    20   ar
    34    20    21   ar
    35    21    25    1
    36    25    26    1
    37    25    27    1
    38    25    28    1
    39    21    22   ar
    40    22    23   ar
    41    23    24    1
    42    15    16    1
    43    16    17    1
    44     8     9   ar
    45     9    10   ar
    46    10    11    1
    47    49    41   ar
    48    39    34   ar
    49    10     5   ar
    50    49    44   ar
    51    17    12    1
    52    23    18   ar
    53     3     4    1
    54    43    50    1
    55    32    33    1
@<TRIPOS>MOLECULE
*****
 50 55 0 0 0
SMALL
GASTEIGER

@<TRIPOS>ATOM
      1 O          58.4535   89.9624    5.7746 O.2     1  UNL1       -0.2701
      2 C          59.5405   89.3301    5.8692 C.2     1  UNL1        0.2483
      3 N          60.6565   89.6868    5.0306 N.am    1  UNL1       -0.2945
      4 H          61.5625   89.1831    5.1585 H       1  UNL1        0.1501
      5 C          59.6563   88.2322    6.8567 C.ar    1  UNL1        0.0808
      6 C          58.7292   87.1767    6.8614 C.ar    1  UNL1        0.0080
      7 C          58.8360   86.1410    7.7929 C.ar    1  UNL1        0.0148
      8 C          59.8715   86.1366    8.7432 C.ar    1  UNL1        0.0502
      9 C          60.7918   87.1986    8.7459 C.ar    1  UNL1        0.0443
     10 C          60.6871   88.2370    7.8153 C.ar    1  UNL1        0.1457
     11 F          61.6131   89.2295    7.8350 F       1  UNL1       -0.2040
     12 N          59.9809   85.0676    9.7091 N.pl3   1  UNL1       -0.3040
     13 C          59.8570   83.6654    9.2787 C.3     1  UNL1        0.1123
     14 C          60.7384   82.7535   10.1404 C.3     1  UNL1        0.1136
     15 N          60.5652   83.0297   11.5716 N.pl3   1  UNL1       -0.2894
     16 C          59.7622   84.1745   12.0148 C.3     1  UNL1        0.1136
     17 C          60.0714   85.3935   11.1430 C.3     1  UNL1        0.1123
     18 C          61.3294   82.2712   12.5206 C.ar    1  UNL1        0.1371
     19 N          62.5737   82.7023   12.8638 N.ar    1  UNL1       -0.2288
     20 C          63.3481   82.0415   13.7633 C.ar    1  UNL1        0.1042
     21 C          62.8729   80.8781   14.3859 C.ar    1  UNL1        0.0910
     22 C          61.6108   80.3914   14.0142 C.ar    1  UNL1        0.0140
     23 C          60.8283   81.0842   13.0860 C.ar    1  UNL1        0.0616
     24 I          58.9726   80.2380   12.5129 I       1  UNL1       -0.0396
     25 C          63.7422   80.1080   15.3468 C.3     1  UNL1        0.4200
     26 F          64.8737   79.6312   14.7077 F       1  UNL1       -0.1658
     27 F          64.1455   80.9173   16.3949 F       1  UNL1       -0.1658
     28 F          63.0261   79.0391   15.8524 F       1  UNL1       -0.1658
     29 C          60.6550   90.8128    4.0832 C.3     1  UNL1        0.1535
     30 C          61.9107   90.8381    3.2431 C.2     1  UNL1        0.2443
     31 O          62.8179   89.9816    3.4317 O.2     1  UNL1       -0.2730
     32 N          62.1084   91.8954    2.2908 N.am    1  UNL1       -0.2825
     33 H          61.5522   92.7718    2.4135 H       1  UNL1        0.1549
     34 C          63.0922   91.8600    1.2428 C.ar    1  UNL1        0.0535
     35 C          62.7331   91.3792   -0.0239 C.ar    1  UNL1        0.0353
     36 C          63.6912   91.3211   -1.0389 C.ar    1  UNL1        0.1002
     37 N          64.9690   91.7135   -0.7937 N.ar    1  UNL1       -0.2422
     38 C          65.3524   92.1660    0.4293 C.ar    1  UNL1        0.1002
     39 C          64.4255   92.2413    1.4721 C.ar    1  UNL1        0.0353
     40 C          59.3884   90.8071    3.2015 C.3     1  UNL1        0.0569
     41 C          59.4444   91.8813    2.1539 C.ar    1  UNL1       -0.0017
     42 C          59.9087   93.1827    2.3234 C.ar    1  UNL1        0.0681
     43 N          59.8900   93.8474    1.1457 N.ar    1  UNL1       -0.3523
     44 C          59.4283   92.9742    0.2335 C.ar    1  UNL1        0.0563
     45 C          59.2500   93.1935   -1.1318 C.ar    1  UNL1        0.0170
     46 C          58.7700   92.1255   -1.9121 C.ar    1  UNL1        0.0015
     47 C          58.4857   90.8758   -1.3175 C.ar    1  UNL1        0.0001
     48 C          58.6774   90.6827    0.0627 C.ar    1  UNL1        0.0012
     49 C          59.1497   91.7616    0.8104 C.ar    1  UNL1        0.0131
     50 H          60.1898   94.8338    0.9801 H       1  UNL1        0.1660
@<TRIPOS>BOND
     1     1     2    2
     2     2     3   am
     3     3    29    1
     4    29    40    1
     5    40    41    1
     6    41    42   ar
     7    42    43   ar
     8    43    44   ar
     9    44    45   ar
    10    45    46   ar
    11    46    47   ar
    12    47    48   ar
    13    48    49   ar
    14    29    30    1
    15    30    31    2
    16    30    32   am
    17    32    34    1
    18    34    35   ar
    19    35    36   ar
    20    36    37   ar
    21    37    38   ar
    22    38    39   ar
    23     2     5    1
    24     5     6   ar
    25     6     7   ar
    26     7     8   ar
    27     8    12    1
    28    12    13    1
    29    13    14    1
    30    14    15    1
    31    15    18    1
    32    18    19   ar
    33    19    20   ar
    34    20    21   ar
    35    21    25    1
    36    25    26    1
    37    25    27    1
    38    25    28    1
    39    21    22   ar
    40    22    23   ar
    41    23    24    1
    42    15    16    1
    43    16    17    1
    44     8     9   ar
    45     9    10   ar
    46    10    11    1
    47    49    41   ar
    48    39    34   ar
    49    10     5   ar
    50    49    44   ar
    51    17    12    1
    52    23    18   ar
    53     3     4    1
    54    43    50    1
    55    32    33    1
@<TRIPOS>MOLECULE
*****
 50 55 0 0 0
SMALL
GASTEIGER

@<TRIPOS>ATOM
      1 O          59.0079   84.2348    7.8032 O.2     1  UNL1       -0.2701
      2 C          59.6512   83.9049    8.8365 C.2     1  UNL1        0.2483
      3 N          59.6732   82.5287    9.2623 N.am    1  UNL1       -0.2945
      4 H          60.2513   82.2685   10.0923 H       1  UNL1        0.1501
      5 C          60.3891   84.9431    9.5925 C.ar    1  UNL1        0.0808
      6 C          60.0368   85.2450   10.9185 C.ar    1  UNL1        0.0080
      7 C          60.7307   86.2248   11.6329 C.ar    1  UNL1        0.0148
      8 C          61.7926   86.9274   11.0380 C.ar    1  UNL1        0.0502
      9 C          62.1371   86.6335    9.7077 C.ar    1  UNL1        0.0443
     10 C          61.4441   85.6539    8.9899 C.ar    1  UNL1        0.1457
     11 F          61.8269   85.3819    7.7162 F       1  UNL1       -0.2040
     12 N          62.5088   87.9433   11.7748 N.pl3   1  UNL1       -0.3040
     13 C          62.2424   88.1441   13.2085 C.3     1  UNL1        0.1123
     14 C          63.5141   88.5916   13.9390 C.3     1  UNL1        0.1136
     15 N          64.1909   89.6823   13.2272 N.pl3   1  UNL1       -0.2894
     16 C          63.7291   90.1013   11.8994 C.3     1  UNL1        0.1136
     17 C          63.3980   88.8701   11.0531 C.3     1  UNL1        0.1123
     18 C          65.4091   90.2124   13.7702 C.ar    1  UNL1        0.1371
     19 N          66.5464   90.1531   13.0253 N.ar    1  UNL1       -0.2288
     20 C          67.7318   90.6452   13.4704 C.ar    1  UNL1        0.1042
     21 C          67.8168   91.2518   14.7321 C.ar    1  UNL1        0.0910
     22 C          66.6667   91.2842   15.5347 C.ar    1  UNL1        0.0140
     23 C          65.4557   90.7720   15.0604 C.ar    1  UNL1        0.0616
     24 I          63.7871   90.7794   16.3656 I       1  UNL1       -0.0396
     25 C          69.1366   91.7554   15.2581 C.3     1  UNL1        0.4200
     26 F          70.1134   91.6795   14.2802 F       1  UNL1       -0.1658
     27 F          69.0289   93.0752   15.6610 F       1  UNL1       -0.1658
     28 F          69.5203   90.9839   16.3391 F       1  UNL1       -0.1658
     29 C          59.0377   81.4232    8.5277 C.3     1  UNL1        0.1535
     30 C          59.9343   80.2089    8.4597 C.2     1  UNL1        0.2443
     31 O          60.2754   79.7336    7.3417 O.2     1  UNL1       -0.2730
     32 N          60.3231   79.5429    9.6717 N.am    1  UNL1       -0.2825
     33 H          59.7451   79.7100   10.5264 H       1  UNL1        0.1549
     34 C          61.3945   78.5876    9.7560 C.ar    1  UNL1        0.0535
     35 C          62.6056   78.8504    9.1011 C.ar    1  UNL1        0.0353
     36 C          63.6414   77.9150    9.1608 C.ar    1  UNL1        0.1002
     37 N          63.4689   76.7488    9.8369 N.ar    1  UNL1       -0.2422
     38 C          62.2998   76.4568   10.4657 C.ar    1  UNL1        0.1002
     39 C          61.2387   77.3652   10.4319 C.ar    1  UNL1        0.0353
     40 C          57.6575   81.0708    9.1212 C.3     1  UNL1        0.0569
     41 C          57.7553   79.9388   10.1028 C.ar    1  UNL1       -0.0017
     42 C          57.4039   78.6110    9.8763 C.ar    1  UNL1        0.0681
     43 N          57.7039   77.8529   10.9555 N.ar    1  UNL1       -0.3523
     44 C          58.2506   78.6883   11.8560 C.ar    1  UNL1        0.0563
     45 C          58.7382   78.3651   13.1216 C.ar    1  UNL1        0.0170
     46 C          59.2918   79.4005   13.8970 C.ar    1  UNL1        0.0015
     47 C          59.3481   80.7197   13.3944 C.ar    1  UNL1        0.0001
     48 C          58.8502   81.0160   12.1125 C.ar    1  UNL1        0.0012
     49 C          58.3032   79.9696   11.3697 C.ar    1  UNL1        0.0131
     50 H          57.5543   76.8246   11.0578 H       1  UNL1        0.1660
@<TRIPOS>BOND
     1     1     2    2
     2     2     3   am
     3     3    29    1
     4    29    40    1
     5    40    41    1
     6    41    42   ar
     7    42    43   ar
     8    43    44   ar
     9    44    45   ar
    10    45    46   ar
    11    46    47   ar
    12    47    48   ar
    13    48    49   ar
    14    29    30    1
    15    30    31    2
    16    30    32   am
    17    32    34    1
    18    34    35   ar
    19    35    36   ar
    20    36    37   ar
    21    37    38   ar
    22    38    39   ar
    23     2     5    1
    24     5     6   ar
    25     6     7   ar
    26     7     8   ar
    27     8    12    1
    28    12    13    1
    29    13    14    1
    30    14    15    1
    31    15    18    1
    32    18    19   ar
    33    19    20   ar
    34    20    21   ar
    35    21    25    1
    36    25    26    1
    37    25    27    1
    38    25    28    1
    39    21    22   ar
    40    22    23   ar
    41    23    24    1
    42    15    16    1
    43    16    17    1
    44     8     9   ar
    45     9    10   ar
    46    10    11    1
    47    49    41   ar
    48    39    34   ar
    49    10     5   ar
    50    49    44   ar
    51    17    12    1
    52    23    18   ar
    53     3     4    1
    54    43    50    1
    55    32    33    1
@<TRIPOS>MOLECULE
*****
 50 55 0 0 0
SMALL
GASTEIGER

@<TRIPOS>ATOM
      1 O          58.6875   90.2807    5.9318 O.2     1  UNL1       -0.2701
      2 C          59.7025   89.5338    5.8838 C.2     1  UNL1        0.2483
      3 N          60.7046   89.7449    4.8705 N.am    1  UNL1       -0.2945
      4 H          61.5608   89.1467    4.8779 H       1  UNL1        0.1501
      5 C          59.8543   88.4528    6.8849 C.ar    1  UNL1        0.0808
      6 C          58.9545   87.3744    6.9117 C.ar    1  UNL1        0.0080
      7 C          59.0953   86.3544    7.8561 C.ar    1  UNL1        0.0148
      8 C          60.1384   86.3892    8.7975 C.ar    1  UNL1        0.0502
      9 C          61.0313   87.4742    8.7779 C.ar    1  UNL1        0.0443
     10 C          60.8925   88.4968    7.8344 C.ar    1  UNL1        0.1457
     11 F          61.7931   89.5127    7.8329 F       1  UNL1       -0.2040
     12 N          60.2829   85.3366    9.7767 N.pl3   1  UNL1       -0.3040
     13 C          59.8918   85.5691   11.1766 C.3     1  UNL1        0.1123
     14 C          59.3600   84.2792   11.8126 C.3     1  UNL1        0.1136
     15 N          60.2477   83.1404   11.5483 N.pl3   1  UNL1       -0.2894
     16 C          61.3830   83.2817   10.6302 C.3     1  UNL1        0.1136
     17 C          60.9570   84.0826    9.3979 C.3     1  UNL1        0.1123
     18 C          59.8895   81.8494   12.0629 C.ar    1  UNL1        0.1371
     19 N          60.4930   81.3980   13.1959 N.ar    1  UNL1       -0.2288
     20 C          60.1950   80.1920   13.7456 C.ar    1  UNL1        0.1042
     21 C          59.2280   79.3652   13.1555 C.ar    1  UNL1        0.0910
     22 C          58.6254   79.7913   11.9626 C.ar    1  UNL1        0.0140
     23 C          58.9452   81.0351   11.4108 C.ar    1  UNL1        0.0616
     24 I          58.0571   81.5675    9.5626 I       1  UNL1       -0.0396
     25 C          58.9256   78.0035   13.7267 C.3     1  UNL1        0.4200
     26 F          58.2147   78.1165   14.9091 F       1  UNL1       -0.1658
     27 F          58.1707   77.2586   12.8372 F       1  UNL1       -0.1658
     28 F          60.1126   77.3404   13.9762 F       1  UNL1       -0.1658
     29 C          60.6743   90.8421    3.8902 C.3     1  UNL1        0.1535
     30 C          61.9664   90.9324    3.1121 C.2     1  UNL1        0.2443
     31 O          62.9328   90.1725    3.3963 O.2     1  UNL1       -0.2730
     32 N          62.1228   91.9479    2.1081 N.am    1  UNL1       -0.2825
     33 H          61.4871   92.7765    2.1501 H       1  UNL1        0.1549
     34 C          63.1609   91.9417    1.1131 C.ar    1  UNL1        0.0535
     35 C          62.8803   91.4601   -0.1729 C.ar    1  UNL1        0.0353
     36 C          63.8914   91.4305   -1.1364 C.ar    1  UNL1        0.1002
     37 N          65.1449   91.8512   -0.8224 N.ar    1  UNL1       -0.2422
     38 C          65.4528   92.3053    0.4212 C.ar    1  UNL1        0.1002
     39 C          64.4708   92.3528    1.4140 C.ar    1  UNL1        0.0353
     40 C          59.4576   90.7242    2.9484 C.3     1  UNL1        0.0569
     41 C          59.4286   91.8426    1.9469 C.ar    1  UNL1       -0.0017
     42 C          59.9505   93.1220    2.1161 C.ar    1  UNL1        0.0681
     43 N          59.8195   93.8393    0.9770 N.ar    1  UNL1       -0.3523
     44 C          59.2296   93.0209    0.0882 C.ar    1  UNL1        0.0563
     45 C          58.9045   93.3062   -1.2373 C.ar    1  UNL1        0.0170
     46 C          58.3052   92.2877   -2.0010 C.ar    1  UNL1        0.0015
     47 C          58.0504   91.0207   -1.4304 C.ar    1  UNL1        0.0001
     48 C          58.3912   90.7606   -0.0905 C.ar    1  UNL1        0.0012
     49 C          58.9796   91.7915    0.6423 C.ar    1  UNL1        0.0131
     50 H          60.1300   94.8237    0.8193 H       1  UNL1        0.1660
@<TRIPOS>BOND
     1     1     2    2
     2     2     3   am
     3     3    29    1
     4    29    40    1
     5    40    41    1
     6    41    42   ar
     7    42    43   ar
     8    43    44   ar
     9    44    45   ar
    10    45    46   ar
    11    46    47   ar
    12    47    48   ar
    13    48    49   ar
    14    29    30    1
    15    30    31    2
    16    30    32   am
    17    32    34    1
    18    34    35   ar
    19    35    36   ar
    20    36    37   ar
    21    37    38   ar
    22    38    39   ar
    23     2     5    1
    24     5     6   ar
    25     6     7   ar
    26     7     8   ar
    27     8    12    1
    28    12    13    1
    29    13    14    1
    30    14    15    1
    31    15    18    1
    32    18    19   ar
    33    19    20   ar
    34    20    21   ar
    35    21    25    1
    36    25    26    1
    37    25    27    1
    38    25    28    1
    39    21    22   ar
    40    22    23   ar
    41    23    24    1
    42    15    16    1
    43    16    17    1
    44     8     9   ar
    45     9    10   ar
    46    10    11    1
    47    49    41   ar
    48    39    34   ar
    49    10     5   ar
    50    49    44   ar
    51    17    12    1
    52    23    18   ar
    53     3     4    1
    54    43    50    1
    55    32    33    1
@<TRIPOS>MOLECULE
*****
 50 55 0 0 0
SMALL
GASTEIGER

@<TRIPOS>ATOM
      1 O          58.7474   82.9489   11.1660 O.2     1  UNL1       -0.2701
      2 C          59.8934   83.2391   10.7267 C.2     1  UNL1        0.2483
      3 N          60.4857   82.4454    9.6804 N.am    1  UNL1       -0.2945
      4 H          61.4142   82.7313    9.2969 H       1  UNL1        0.1501
      5 C          60.6103   84.4069   11.2890 C.ar    1  UNL1        0.0808
      6 C          60.0599   85.6957   11.1921 C.ar    1  UNL1        0.0080
      7 C          60.7352   86.7986   11.7207 C.ar    1  UNL1        0.0148
      8 C          61.9780   86.6395   12.3575 C.ar    1  UNL1        0.0502
      9 C          62.5339   85.3517   12.4438 C.ar    1  UNL1        0.0443
     10 C          61.8607   84.2461   11.9151 C.ar    1  UNL1        0.1457
     11 F          62.4202   83.0159   12.0441 F       1  UNL1       -0.2040
     12 N          62.6788   87.7799   12.9016 N.pl3   1  UNL1       -0.3040
     13 C          62.5063   88.1490   14.3161 C.3     1  UNL1        0.1123
     14 C          63.7965   88.7566   14.8794 C.3     1  UNL1        0.1136
     15 N          64.3465   89.7822   13.9848 N.pl3   1  UNL1       -0.2894
     16 C          63.7617   90.0001   12.6572 C.3     1  UNL1        0.1136
     17 C          63.4501   88.6536   12.0003 C.3     1  UNL1        0.1123
     18 C          65.5642   90.4444   14.3566 C.ar    1  UNL1        0.1371
     19 N          65.8632   90.5874   15.6765 N.ar    1  UNL1       -0.2288
     20 C          67.0029   91.1926   16.1009 C.ar    1  UNL1        0.1042
     21 C          67.9293   91.6876   15.1714 C.ar    1  UNL1        0.0910
     22 C          67.6204   91.5904   13.8064 C.ar    1  UNL1        0.0140
     23 C          66.4423   90.9651   13.3882 C.ar    1  UNL1        0.0616
     24 I          66.0069   90.9363   11.3151 I       1  UNL1       -0.0396
     25 C          69.1724   92.4064   15.6297 C.3     1  UNL1        0.4200
     26 F          68.8651   93.6829   16.0683 F       1  UNL1       -0.1658
     27 F          69.7736   91.7232   16.6727 F       1  UNL1       -0.1658
     28 F          70.0625   92.4940   14.5757 F       1  UNL1       -0.1658
     29 C          59.8125   81.3214    9.0102 C.3     1  UNL1        0.1535
     30 C          59.0823   80.4392    9.9960 C.2     1  UNL1        0.2443
     31 O          58.0462   79.8127    9.6407 O.2     1  UNL1       -0.2730
     32 N          59.5188   80.3875   11.3636 N.am    1  UNL1       -0.2825
     33 H          60.1129   81.1723   11.7154 H       1  UNL1        0.1549
     34 C          59.1083   79.3774   12.3010 C.ar    1  UNL1        0.0535
     35 C          59.0360   79.6914   13.6651 C.ar    1  UNL1        0.0353
     36 C          58.6600   78.7073   14.5825 C.ar    1  UNL1        0.1002
     37 N          58.3818   77.4474   14.1554 N.ar    1  UNL1       -0.2422
     38 C          58.4617   77.1073   12.8418 C.ar    1  UNL1        0.1002
     39 C          58.8328   78.0616   11.8910 C.ar    1  UNL1        0.0353
     40 C          58.8709   81.8136    7.8910 C.3     1  UNL1        0.0569
     41 C          58.8110   83.3132    7.8445 C.ar    1  UNL1       -0.0017
     42 C          57.6696   84.1022    7.9570 C.ar    1  UNL1        0.0681
     43 N          58.0006   85.4136    7.9550 N.ar    1  UNL1       -0.3523
     44 C          59.3404   85.4585    7.8529 C.ar    1  UNL1        0.0563
     45 C          60.1488   86.5943    7.8307 C.ar    1  UNL1        0.0170
     46 C          61.5405   86.4092    7.7378 C.ar    1  UNL1        0.0015
     47 C          62.0868   85.1079    7.6734 C.ar    1  UNL1        0.0001
     48 C          61.2467   83.9798    7.6999 C.ar    1  UNL1        0.0012
     49 C          59.8713   84.1956    7.7878 C.ar    1  UNL1        0.0131
     50 H          57.3460   86.2233    8.0336 H       1  UNL1        0.1660
@<TRIPOS>BOND
     1     1     2    2
     2     2     3   am
     3     3    29    1
     4    29    40    1
     5    40    41    1
     6    41    42   ar
     7    42    43   ar
     8    43    44   ar
     9    44    45   ar
    10    45    46   ar
    11    46    47   ar
    12    47    48   ar
    13    48    49   ar
    14    29    30    1
    15    30    31    2
    16    30    32   am
    17    32    34    1
    18    34    35   ar
    19    35    36   ar
    20    36    37   ar
    21    37    38   ar
    22    38    39   ar
    23     2     5    1
    24     5     6   ar
    25     6     7   ar
    26     7     8   ar
    27     8    12    1
    28    12    13    1
    29    13    14    1
    30    14    15    1
    31    15    18    1
    32    18    19   ar
    33    19    20   ar
    34    20    21   ar
    35    21    25    1
    36    25    26    1
    37    25    27    1
    38    25    28    1
    39    21    22   ar
    40    22    23   ar
    41    23    24    1
    42    15    16    1
    43    16    17    1
    44     8     9   ar
    45     9    10   ar
    46    10    11    1
    47    49    41   ar
    48    39    34   ar
    49    10     5   ar
    50    49    44   ar
    51    17    12    1
    52    23    18   ar
    53     3     4    1
    54    43    50    1
    55    32    33    1
@<TRIPOS>MOLECULE
*****
 50 55 0 0 0
SMALL
GASTEIGER

@<TRIPOS>ATOM
      1 O          59.0745   84.9543    7.6273 O.2     1  UNL1       -0.2701
      2 C          59.7514   84.6041    8.6320 C.2     1  UNL1        0.2483
      3 N          59.7480   83.2280    9.0585 N.am    1  UNL1       -0.2945
      4 H          60.3533   82.9495    9.8629 H       1  UNL1        0.1501
      5 C          60.5543   85.6183    9.3536 C.ar    1  UNL1        0.0808
      6 C          60.9777   85.3856   10.6728 C.ar    1  UNL1        0.0080
      7 C          61.7340   86.3415   11.3556 C.ar    1  UNL1        0.0148
      8 C          62.0837   87.5538   10.7362 C.ar    1  UNL1        0.0502
      9 C          61.6500   87.7911    9.4208 C.ar    1  UNL1        0.0443
     10 C          60.8925   86.8367    8.7351 C.ar    1  UNL1        0.1457
     11 F          60.5171   87.0944    7.4562 F       1  UNL1       -0.2040
     12 N          62.8630   88.5444   11.4427 N.pl3   1  UNL1       -0.3040
     13 C          62.4525   88.9907   12.7840 C.3     1  UNL1        0.1123
     14 C          63.6772   89.3398   13.6379 C.3     1  UNL1        0.1136
     15 N          64.6179   90.1984   12.9083 N.pl3   1  UNL1       -0.2894
     16 C          64.4104   90.4849   11.4847 C.3     1  UNL1        0.1136
     17 C          63.9841   89.2088   10.7556 C.3     1  UNL1        0.1123
     18 C          65.8288   90.6092   13.5600 C.ar    1  UNL1        0.1371
     19 N          66.9896   90.6253   12.8501 N.ar    1  UNL1       -0.2288
     20 C          68.1702   91.0135   13.3986 C.ar    1  UNL1        0.1042
     21 C          68.2258   91.4288   14.7371 C.ar    1  UNL1        0.0910
     22 C          67.0495   91.3781   15.4997 C.ar    1  UNL1        0.0140
     23 C          65.8438   90.9750   14.9187 C.ar    1  UNL1        0.0616
     24 I          64.1313   90.8420   16.1587 I       1  UNL1       -0.0396
     25 C          69.5381   91.8129   15.3713 C.3     1  UNL1        0.4200
     26 F          69.4437   93.0543   15.9764 F       1  UNL1       -0.1658
     27 F          69.9028   90.8882   16.3346 F       1  UNL1       -0.1658
     28 F          70.5181   91.8597   14.3974 F       1  UNL1       -0.1658
     29 C          59.0462   82.1433    8.3538 C.3     1  UNL1        0.1535
     30 C          59.8750   80.8808    8.3043 C.2     1  UNL1        0.2443
     31 O          60.3526   80.4777    7.2082 O.2     1  UNL1       -0.2730
     32 N          60.0412   80.0919    9.4932 N.am    1  UNL1       -0.2825
     33 H          59.3521   80.2264   10.2675 H       1  UNL1        0.1549
     34 C          61.0340   79.0625    9.6428 C.ar    1  UNL1        0.0535
     35 C          60.7409   77.9288   10.4131 C.ar    1  UNL1        0.0353
     36 C          61.7101   76.9367   10.5805 C.ar    1  UNL1        0.1002
     37 N          62.9366   77.0789   10.0125 N.ar    1  UNL1       -0.2422
     38 C          63.2572   78.1756    9.2763 C.ar    1  UNL1        0.1002
     39 C          62.3168   79.1907    9.0830 C.ar    1  UNL1        0.0353
     40 C          57.6550   81.8792    8.9672 C.3     1  UNL1        0.0569
     41 C          57.7193   81.8159   10.4661 C.ar    1  UNL1       -0.0017
     42 C          57.9439   80.6808   11.2401 C.ar    1  UNL1        0.0681
     43 N          58.0199   81.0103   12.5496 N.ar    1  UNL1       -0.3523
     44 C          57.8559   82.3436   12.6075 C.ar    1  UNL1        0.0563
     45 C          57.8759   83.1489   13.7454 C.ar    1  UNL1        0.0170
     46 C          57.7020   84.5345   13.5733 C.ar    1  UNL1        0.0015
     47 C          57.5175   85.0780   12.2823 C.ar    1  UNL1        0.0001
     48 C          57.5041   84.2411   11.1517 C.ar    1  UNL1        0.0012
     49 C          57.6743   82.8715   11.3548 C.ar    1  UNL1        0.0131
     50 H          58.1884   80.3598   13.3488 H       1  UNL1        0.1660
@<TRIPOS>BOND
     1     1     2    2
     2     2     3   am
     3     3    29    1
     4    29    40    1
     5    40    41    1
     6    41    42   ar
     7    42    43   ar
     8    43    44   ar
     9    44    45   ar
    10    45    46   ar
    11    46    47   ar
    12    47    48   ar
    13    48    49   ar
    14    29    30    1
    15    30    31    2
    16    30    32   am
    17    32    34    1
    18    34    35   ar
    19    35    36   ar
    20    36    37   ar
    21    37    38   ar
    22    38    39   ar
    23     2     5    1
    24     5     6   ar
    25     6     7   ar
    26     7     8   ar
    27     8    12    1
    28    12    13    1
    29    13    14    1
    30    14    15    1
    31    15    18    1
    32    18    19   ar
    33    19    20   ar
    34    20    21   ar
    35    21    25    1
    36    25    26    1
    37    25    27    1
    38    25    28    1
    39    21    22   ar
    40    22    23   ar
    41    23    24    1
    42    15    16    1
    43    16    17    1
    44     8     9   ar
    45     9    10   ar
    46    10    11    1
    47    49    41   ar
    48    39    34   ar
    49    10     5   ar
    50    49    44   ar
    51    17    12    1
    52    23    18   ar
    53     3     4    1
    54    43    50    1
    55    32    33    1
@<TRIPOS>MOLECULE
*****
 50 55 0 0 0
SMALL
GASTEIGER

@<TRIPOS>ATOM
      1 O          60.2804   85.1529   11.5205 O.2     1  UNL1       -0.2701
      2 C          60.8655   85.0458   10.4086 C.2     1  UNL1        0.2483
      3 N          61.7408   83.9288   10.1600 N.am    1  UNL1       -0.2945
      4 H          62.1774   83.8325    9.2161 H       1  UNL1        0.1501
      5 C          60.6310   86.0705    9.3651 C.ar    1  UNL1        0.0808
      6 C          59.7188   85.8320    8.3238 C.ar    1  UNL1        0.0080
      7 C          59.4972   86.7968    7.3379 C.ar    1  UNL1        0.0148
      8 C          60.1838   88.0228    7.3687 C.ar    1  UNL1        0.0502
      9 C          61.1051   88.2563    8.4039 C.ar    1  UNL1        0.0443
     10 C          61.3294   87.2924    9.3916 C.ar    1  UNL1        0.1457
     11 F          62.2076   87.5693   10.3891 F       1  UNL1       -0.2040
     12 N          59.9579   89.0200    6.3478 N.pl3   1  UNL1       -0.3040
     13 C          60.9859   90.0344    6.0634 C.3     1  UNL1        0.1123
     14 C          60.9708   90.4209    4.5797 C.3     1  UNL1        0.1136
     15 N          59.6093   90.7005    4.1078 N.pl3   1  UNL1       -0.2894
     16 C          58.4551   90.4410    4.9751 C.3     1  UNL1        0.1136
     17 C          58.6389   89.1042    5.6968 C.3     1  UNL1        0.1123
     18 C          59.4142   91.0655    2.7336 C.ar    1  UNL1        0.1371
     19 N          58.1502   91.0968    2.2304 N.ar    1  UNL1       -0.2288
     20 C          57.8900   91.4442    0.9431 C.ar    1  UNL1        0.1042
     21 C          58.9376   91.7993    0.0808 C.ar    1  UNL1        0.0910
     22 C          60.2521   91.7312    0.5660 C.ar    1  UNL1        0.0140
     23 C          60.5008   91.3707    1.8933 C.ar    1  UNL1        0.0616
     24 I          62.5166   91.2067    2.5242 I       1  UNL1       -0.0396
     25 C          58.6668   92.1370   -1.3630 C.3     1  UNL1        0.4200
     26 F          58.0370   91.0826   -2.0017 F       1  UNL1       -0.1658
     27 F          57.8503   93.2506   -1.4581 F       1  UNL1       -0.1658
     28 F          59.8643   92.4001   -2.0015 F       1  UNL1       -0.1658
     29 C          61.9666   82.8255   11.1074 C.3     1  UNL1        0.1535
     30 C          61.0843   81.6374   10.8024 C.2     1  UNL1        0.2443
     31 O          61.2891   80.9436    9.7685 O.2     1  UNL1       -0.2730
     32 N          59.9555   81.3546   11.6447 N.am    1  UNL1       -0.2825
     33 H          59.5895   82.1282   12.2448 H       1  UNL1        0.1549
     34 C          59.2403   80.1072   11.6387 C.ar    1  UNL1        0.0535
     35 C          59.4763   79.1723   12.6559 C.ar    1  UNL1        0.0353
     36 C          58.8012   77.9494   12.6418 C.ar    1  UNL1        0.1002
     37 N          57.9322   77.6618   11.6372 N.ar    1  UNL1       -0.2422
     38 C          57.6967   78.5397   10.6266 C.ar    1  UNL1        0.1002
     39 C          58.3501   79.7746   10.6031 C.ar    1  UNL1        0.0353
     40 C          63.4552   82.4220   11.1596 C.3     1  UNL1        0.0569
     41 C          63.9808   82.4447   12.5660 C.ar    1  UNL1       -0.0017
     42 C          64.7222   83.4630   13.1587 C.ar    1  UNL1        0.0681
     43 N          64.9524   83.1819   14.4615 N.ar    1  UNL1       -0.3523
     44 C          64.3543   82.0012   14.6982 C.ar    1  UNL1        0.0563
     45 C          64.3001   81.3086   15.9071 C.ar    1  UNL1        0.0170
     46 C          63.5976   80.0898   15.9356 C.ar    1  UNL1        0.0015
     47 C          62.9695   79.5981   14.7695 C.ar    1  UNL1        0.0001
     48 C          63.0390   80.3198   13.5639 C.ar    1  UNL1        0.0012
     49 C          63.7465   81.5221   13.5660 C.ar    1  UNL1        0.0131
     50 H          65.4754   83.7729   15.1453 H       1  UNL1        0.1660
@<TRIPOS>BOND
     1     1     2    2
     2     2     3   am
     3     3    29    1
     4    29    40    1
     5    40    41    1
     6    41    42   ar
     7    42    43   ar
     8    43    44   ar
     9    44    45   ar
    10    45    46   ar
    11    46    47   ar
    12    47    48   ar
    13    48    49   ar
    14    29    30    1
    15    30    31    2
    16    30    32   am
    17    32    34    1
    18    34    35   ar
    19    35    36   ar
    20    36    37   ar
    21    37    38   ar
    22    38    39   ar
    23     2     5    1
    24     5     6   ar
    25     6     7   ar
    26     7     8   ar
    27     8    12    1
    28    12    13    1
    29    13    14    1
    30    14    15    1
    31    15    18    1
    32    18    19   ar
    33    19    20   ar
    34    20    21   ar
    35    21    25    1
    36    25    26    1
    37    25    27    1
    38    25    28    1
    39    21    22   ar
    40    22    23   ar
    41    23    24    1
    42    15    16    1
    43    16    17    1
    44     8     9   ar
    45     9    10   ar
    46    10    11    1
    47    49    41   ar
    48    39    34   ar
    49    10     5   ar
    50    49    44   ar
    51    17    12    1
    52    23    18   ar
    53     3     4    1
    54    43    50    1
    55    32    33    1
@<TRIPOS>MOLECULE
*****
 50 55 0 0 0
SMALL
GASTEIGER

@<TRIPOS>ATOM
      1 O          59.9428   85.1791   11.2629 O.2     1  UNL1       -0.2701
      2 C          60.2231   84.9226   10.0605 C.2     1  UNL1        0.2483
      3 N          60.5837   83.5820    9.6753 N.am    1  UNL1       -0.2945
      4 H          60.7648   83.3802    8.6666 H       1  UNL1        0.1501
      5 C          60.1638   86.0089    9.0553 C.ar    1  UNL1        0.0808
      6 C          59.4619   85.8291    7.8518 C.ar    1  UNL1        0.0080
      7 C          59.4059   86.8521    6.9019 C.ar    1  UNL1        0.0148
      8 C          60.0518   88.0790    7.1320 C.ar    1  UNL1        0.0502
      9 C          60.7638   88.2542    8.3308 C.ar    1  UNL1        0.0443
     10 C          60.8222   87.2320    9.2831 C.ar    1  UNL1        0.1457
     11 F          61.4979   87.4526   10.4397 F       1  UNL1       -0.2040
     12 N          59.9973   89.1364    6.1489 N.pl3   1  UNL1       -0.3040
     13 C          61.2354   89.7927    5.6982 C.3     1  UNL1        0.1123
     14 C          61.1183   90.2229    4.2311 C.3     1  UNL1        0.1136
     15 N          59.8574   90.9290    3.9739 N.pl3   1  UNL1       -0.2894
     16 C          58.8245   91.0059    5.0127 C.3     1  UNL1        0.1136
     17 C          58.6883   89.6507    5.7101 C.3     1  UNL1        0.1123
     18 C          59.5811   91.3901    2.6432 C.ar    1  UNL1        0.1371
     19 N          58.3003   91.3584    2.1845 N.ar    1  UNL1       -0.2288
     20 C          57.9640   91.7895    0.9410 C.ar    1  UNL1        0.1042
     21 C          58.9459   92.3013    0.0802 C.ar    1  UNL1        0.0910
     22 C          60.2793   92.3023    0.5162 C.ar    1  UNL1        0.0140
     23 C          60.6068   91.8539    1.7989 C.ar    1  UNL1        0.0616
     24 I          62.6519   91.8058    2.3497 I       1  UNL1       -0.0396
     25 C          58.5938   92.7349   -1.3198 C.3     1  UNL1        0.4200
     26 F          57.6808   93.7751   -1.2942 F       1  UNL1       -0.1658
     27 F          59.7227   93.1662   -1.9948 F       1  UNL1       -0.1658
     28 F          58.0413   91.6670   -2.0019 F       1  UNL1       -0.1658
     29 C          60.5887   82.4294   10.5903 C.3     1  UNL1        0.1535
     30 C          61.7320   82.5028   11.5755 C.2     1  UNL1        0.2443
     31 O          62.5109   83.4955   11.5711 O.2     1  UNL1       -0.2730
     32 N          61.9840   81.3965   12.4566 N.am    1  UNL1       -0.2825
     33 H          61.5872   80.4654   12.1953 H       1  UNL1        0.1549
     34 C          62.8278   81.4700   13.6185 C.ar    1  UNL1        0.0535
     35 C          63.6767   82.5728   13.7853 C.ar    1  UNL1        0.0353
     36 C          64.5153   82.6378   14.9007 C.ar    1  UNL1        0.1002
     37 N          64.5193   81.6283   15.8105 N.ar    1  UNL1       -0.2422
     38 C          63.7219   80.5370   15.6664 C.ar    1  UNL1        0.1002
     39 C          62.8672   80.4327   14.5661 C.ar    1  UNL1        0.0353
     40 C          59.2333   82.2756   11.3119 C.3     1  UNL1        0.0569
     41 C          58.6460   80.9114   11.0914 C.ar    1  UNL1       -0.0017
     42 C          58.0215   80.4536    9.9345 C.ar    1  UNL1        0.0681
     43 N          57.6903   79.1486   10.0621 N.ar    1  UNL1       -0.3523
     44 C          58.1093   78.7766   11.2842 C.ar    1  UNL1        0.0563
     45 C          58.0081   77.5126   11.8640 C.ar    1  UNL1        0.0170
     46 C          58.5357   77.3380   13.1566 C.ar    1  UNL1        0.0015
     47 C          59.1485   78.4174   13.8315 C.ar    1  UNL1        0.0001
     48 C          59.2384   79.6815   13.2208 C.ar    1  UNL1        0.0012
     49 C          58.7021   79.8246   11.9410 C.ar    1  UNL1        0.0131
     50 H          57.2192   78.5507    9.3472 H       1  UNL1        0.1660
@<TRIPOS>BOND
     1     1     2    2
     2     2     3   am
     3     3    29    1
     4    29    40    1
     5    40    41    1
     6    41    42   ar
     7    42    43   ar
     8    43    44   ar
     9    44    45   ar
    10    45    46   ar
    11    46    47   ar
    12    47    48   ar
    13    48    49   ar
    14    29    30    1
    15    30    31    2
    16    30    32   am
    17    32    34    1
    18    34    35   ar
    19    35    36   ar
    20    36    37   ar
    21    37    38   ar
    22    38    39   ar
    23     2     5    1
    24     5     6   ar
    25     6     7   ar
    26     7     8   ar
    27     8    12    1
    28    12    13    1
    29    13    14    1
    30    14    15    1
    31    15    18    1
    32    18    19   ar
    33    19    20   ar
    34    20    21   ar
    35    21    25    1
    36    25    26    1
    37    25    27    1
    38    25    28    1
    39    21    22   ar
    40    22    23   ar
    41    23    24    1
    42    15    16    1
    43    16    17    1
    44     8     9   ar
    45     9    10   ar
    46    10    11    1
    47    49    41   ar
    48    39    34   ar
    49    10     5   ar
    50    49    44   ar
    51    17    12    1
    52    23    18   ar
    53     3     4    1
    54    43    50    1
    55    32    33    1
