@<TRIPOS>MOLECULE
*****
 45 50 0 0 0
SMALL
GASTEIGER

@<TRIPOS>ATOM
      1 C         -64.1345  -52.1422  -24.5034 C.ar    1  UNL1        0.0702
      2 C         -63.5360  -52.6114  -23.3240 C.ar    1  UNL1        0.0191
      3 C         -64.1711  -53.5903  -22.5579 C.ar    1  UNL1        0.0356
      4 C         -65.4229  -54.0821  -22.9607 C.ar    1  UNL1        0.1318
      5 N         -65.9871  -53.6049  -24.1049 N.ar    1  UNL1       -0.2279
      6 C         -65.3868  -52.6525  -24.8664 C.ar    1  UNL1        0.1149
      7 N         -66.0981  -55.1079  -22.2087 N.pl3   1  UNL1       -0.2932
      8 C         -66.3827  -56.4268  -22.7916 C.3     1  UNL1        0.0923
      9 C         -67.8532  -56.8185  -22.5661 C.3     1  UNL1        0.0252
     10 C         -68.4453  -56.2600  -21.2443 C.3     1  UNL1        0.0472
     11 C         -67.3386  -55.9409  -20.2200 C.3     1  UNL1        0.0252
     12 C         -66.3881  -54.8748  -20.7861 C.3     1  UNL1        0.0923
     13 C         -69.4843  -57.2344  -20.6561 C.3     1  UNL1        0.2054
     14 O         -70.6867  -56.5531  -20.2933 O.3     1  UNL1       -0.4754
     15 C         -70.9246  -55.9120  -19.0663 C.ar    1  UNL1        0.1392
     16 C         -70.4034  -56.3841  -17.8468 C.ar    1  UNL1        0.0427
     17 C         -70.6775  -55.7076  -16.6558 C.ar    1  UNL1        0.0333
     18 I         -69.8980  -56.4300  -14.8336 I       1  UNL1       -0.0424
     19 C         -71.4663  -54.5544  -16.6683 C.ar    1  UNL1        0.0124
     20 C         -71.9895  -54.0641  -17.8771 C.ar    1  UNL1        0.0789
     21 C         -71.7095  -54.7523  -19.0707 C.ar    1  UNL1        0.0434
     22 C         -72.8242  -52.8424  -17.8976 C.2     1  UNL1        0.3381
     23 O         -72.7862  -52.0594  -18.8852 O.2     1  UNL1       -0.2451
     24 O         -73.6608  -52.5455  -16.8248 O.3     1  UNL1       -0.4771
     25 H         -74.2362  -51.7118  -16.8288 H       1  UNL1        0.2954
     26 C         -63.8790  -49.7241  -25.2385 C.2     1  UNL1        0.2839
     27 O         -64.8189  -49.3384  -24.4932 O.2     1  UNL1       -0.2665
     28 N         -63.5272  -51.1173  -25.3071 N.am    1  UNL1       -0.2766
     29 H         -62.7468  -51.4081  -25.9351 H       1  UNL1        0.1553
     30 C         -64.0204  -49.3158  -28.4476 C.3     1  UNL1        0.0345
     31 C         -63.2468  -48.5272  -27.4349 C.ar    1  UNL1        0.0202
     32 C         -63.1718  -48.7179  -26.0495 C.ar    1  UNL1        0.1946
     33 O         -62.3271  -47.8510  -25.5194 O.2     1  UNL1       -0.4492
     34 C         -61.8695  -47.0921  -26.4852 C.ar    1  UNL1        0.1452
     35 C         -60.9632  -46.0429  -26.3795 C.ar    1  UNL1        0.0375
     36 C         -60.6072  -45.3576  -27.5546 C.ar    1  UNL1        0.0031
     37 C         -61.1586  -45.7298  -28.8108 C.ar    1  UNL1        0.0002
     38 C         -62.0765  -46.8056  -28.8737 C.ar    1  UNL1        0.0028
     39 C         -62.4078  -47.4608  -27.6878 C.ar    1  UNL1        0.0337
     40 C         -60.7755  -44.9989  -30.0454 C.ar    1  UNL1        0.0000
     41 C         -59.4911  -45.1554  -30.6006 C.ar    1  UNL1        0.0000
     42 C         -59.1329  -44.4651  -31.7626 C.ar    1  UNL1        0.0000
     43 C         -60.0497  -43.6135  -32.3830 C.ar    1  UNL1        0.0000
     44 C         -61.3268  -43.4499  -31.8423 C.ar    1  UNL1        0.0000
     45 C         -61.6903  -44.1370  -30.6799 C.ar    1  UNL1        0.0000
@<TRIPOS>BOND
     1    30    31    1
     2    31    32   ar
     3    32    26    1
     4    26    27    2
     5    26    28   am
     6    28     1    1
     7     1     2   ar
     8     2     3   ar
     9     3     4   ar
    10     4     7    1
    11     7     8    1
    12     8     9    1
    13     9    10    1
    14    10    13    1
    15    13    14    1
    16    14    15    1
    17    15    16   ar
    18    16    17   ar
    19    17    18    1
    20    17    19   ar
    21    19    20   ar
    22    20    22    1
    23    22    23    2
    24    22    24    1
    25    20    21   ar
    26    10    11    1
    27    11    12    1
    28     4     5   ar
    29     5     6   ar
    30    32    33   ar
    31    33    34   ar
    32    34    35   ar
    33    35    36   ar
    34    36    37   ar
    35    37    40    1
    36    40    41   ar
    37    41    42   ar
    38    42    43   ar
    39    43    44   ar
    40    44    45   ar
    41    37    38   ar
    42    38    39   ar
    43    39    31   ar
    44     6     1   ar
    45    39    34   ar
    46    12     7    1
    47    45    40   ar
    48    21    15   ar
    49    28    29    1
    50    24    25    1
@<TRIPOS>MOLECULE
*****
 45 50 0 0 0
SMALL
GASTEIGER

@<TRIPOS>ATOM
      1 C         -64.1526  -52.1060  -24.6462 C.ar    1  UNL1        0.0702
      2 C         -63.6550  -52.4901  -23.3915 C.ar    1  UNL1        0.0191
      3 C         -64.3265  -53.4536  -22.6370 C.ar    1  UNL1        0.0356
      4 C         -65.5151  -54.0154  -23.1295 C.ar    1  UNL1        0.1318
      5 N         -65.9823  -53.6202  -24.3464 N.ar    1  UNL1       -0.2279
      6 C         -65.3449  -52.6843  -25.0982 C.ar    1  UNL1        0.1149
      7 N         -66.2235  -55.0281  -22.3902 N.pl3   1  UNL1       -0.2932
      8 C         -67.3084  -55.8085  -23.0018 C.3     1  UNL1        0.0923
      9 C         -68.5509  -55.8220  -22.0946 C.3     1  UNL1        0.0252
     10 C         -68.2108  -55.7656  -20.5810 C.3     1  UNL1        0.0472
     11 C         -66.7790  -56.2649  -20.3048 C.3     1  UNL1        0.0252
     12 C         -65.7611  -55.3790  -21.0392 C.3     1  UNL1        0.0923
     13 C         -69.2454  -56.5581  -19.7585 C.3     1  UNL1        0.2054
     14 O         -69.7334  -55.7876  -18.6587 O.3     1  UNL1       -0.4754
     15 C         -69.3229  -55.9198  -17.3219 C.ar    1  UNL1        0.1392
     16 C         -70.1711  -56.4066  -16.3093 C.ar    1  UNL1        0.0427
     17 C         -69.7093  -56.5119  -14.9952 C.ar    1  UNL1        0.0333
     18 I         -70.9928  -57.2344  -13.4851 I       1  UNL1       -0.0424
     19 C         -68.4002  -56.1398  -14.6785 C.ar    1  UNL1        0.0124
     20 C         -67.5367  -55.6583  -15.6775 C.ar    1  UNL1        0.0789
     21 C         -68.0106  -55.5545  -16.9971 C.ar    1  UNL1        0.0434
     22 C         -66.1487  -55.2642  -15.3492 C.2     1  UNL1        0.3381
     23 O         -65.9259  -54.2746  -14.6002 O.2     1  UNL1       -0.2451
     24 O         -65.0738  -55.9835  -15.8653 O.3     1  UNL1       -0.4771
     25 H         -64.1198  -55.7219  -15.6468 H       1  UNL1        0.2954
     26 C         -63.8436  -49.7015  -25.4052 C.2     1  UNL1        0.2839
     27 O         -64.8026  -49.2945  -24.6965 O.2     1  UNL1       -0.2665
     28 N         -63.5068  -51.0996  -25.4433 N.am    1  UNL1       -0.2766
     29 H         -62.7098  -51.4083  -26.0412 H       1  UNL1        0.1553
     30 C         -64.0411  -49.1893  -28.5964 C.3     1  UNL1        0.0345
     31 C         -63.1962  -48.4788  -27.5829 C.ar    1  UNL1        0.0202
     32 C         -63.0980  -48.7151  -26.2059 C.ar    1  UNL1        0.1946
     33 O         -62.1896  -47.9161  -25.6743 O.2     1  UNL1       -0.4492
     34 C         -61.7117  -47.1570  -26.6301 C.ar    1  UNL1        0.1452
     35 C         -60.7417  -46.1671  -26.5191 C.ar    1  UNL1        0.0375
     36 C         -60.3750  -45.4691  -27.6833 C.ar    1  UNL1        0.0031
     37 C         -60.9792  -45.7700  -28.9343 C.ar    1  UNL1        0.0002
     38 C         -61.9614  -46.7871  -29.0031 C.ar    1  UNL1        0.0028
     39 C         -62.3014  -47.4568  -27.8277 C.ar    1  UNL1        0.0337
     40 C         -60.5842  -45.0263  -30.1574 C.ar    1  UNL1        0.0000
     41 C         -59.2911  -45.1692  -30.6958 C.ar    1  UNL1        0.0000
     42 C         -58.9217  -44.4668  -31.8470 C.ar    1  UNL1        0.0000
     43 C         -59.8358  -43.6168  -32.4734 C.ar    1  UNL1        0.0000
     44 C         -61.1216  -43.4667  -31.9493 C.ar    1  UNL1        0.0000
     45 C         -61.4963  -44.1658  -30.7977 C.ar    1  UNL1        0.0000
@<TRIPOS>BOND
     1    30    31    1
     2    31    32   ar
     3    32    26    1
     4    26    27    2
     5    26    28   am
     6    28     1    1
     7     1     2   ar
     8     2     3   ar
     9     3     4   ar
    10     4     7    1
    11     7     8    1
    12     8     9    1
    13     9    10    1
    14    10    13    1
    15    13    14    1
    16    14    15    1
    17    15    16   ar
    18    16    17   ar
    19    17    18    1
    20    17    19   ar
    21    19    20   ar
    22    20    22    1
    23    22    23    2
    24    22    24    1
    25    20    21   ar
    26    10    11    1
    27    11    12    1
    28     4     5   ar
    29     5     6   ar
    30    32    33   ar
    31    33    34   ar
    32    34    35   ar
    33    35    36   ar
    34    36    37   ar
    35    37    40    1
    36    40    41   ar
    37    41    42   ar
    38    42    43   ar
    39    43    44   ar
    40    44    45   ar
    41    37    38   ar
    42    38    39   ar
    43    39    31   ar
    44     6     1   ar
    45    39    34   ar
    46    12     7    1
    47    45    40   ar
    48    21    15   ar
    49    28    29    1
    50    24    25    1
@<TRIPOS>MOLECULE
*****
 45 50 0 0 0
SMALL
GASTEIGER

@<TRIPOS>ATOM
      1 C         -64.1891  -52.2000  -24.4988 C.ar    1  UNL1        0.0702
      2 C         -63.5824  -52.6884  -23.3313 C.ar    1  UNL1        0.0191
      3 C         -64.2151  -53.6755  -22.5737 C.ar    1  UNL1        0.0356
      4 C         -65.4723  -54.1565  -22.9728 C.ar    1  UNL1        0.1318
      5 N         -66.0443  -53.6608  -24.1052 N.ar    1  UNL1       -0.2279
      6 C         -65.4465  -52.7001  -24.8582 C.ar    1  UNL1        0.1149
      7 N         -66.1454  -55.1902  -22.2296 N.pl3   1  UNL1       -0.2932
      8 C         -66.5423  -56.4565  -22.8613 C.3     1  UNL1        0.0923
      9 C         -68.0115  -56.7874  -22.5471 C.3     1  UNL1        0.0252
     10 C         -68.4749  -56.2792  -21.1554 C.3     1  UNL1        0.0472
     11 C         -67.2810  -56.0766  -20.2019 C.3     1  UNL1        0.0252
     12 C         -66.3181  -55.0274  -20.7784 C.3     1  UNL1        0.0923
     13 C         -69.5194  -57.2339  -20.5450 C.3     1  UNL1        0.2054
     14 O         -70.7285  -56.5431  -20.2250 O.3     1  UNL1       -0.4754
     15 C         -70.9808  -55.8468  -19.0314 C.ar    1  UNL1        0.1392
     16 C         -71.8657  -54.7544  -18.9596 C.ar    1  UNL1        0.0427
     17 C         -72.0739  -54.0965  -17.7450 C.ar    1  UNL1        0.0333
     18 I         -73.3956  -52.4551  -17.6520 I       1  UNL1       -0.0424
     19 C         -71.4090  -54.5225  -16.5922 C.ar    1  UNL1        0.0124
     20 C         -70.5272  -55.6157  -16.6432 C.ar    1  UNL1        0.0789
     21 C         -70.3228  -56.2709  -17.8703 C.ar    1  UNL1        0.0434
     22 C         -69.8212  -56.0730  -15.4258 C.2     1  UNL1        0.3381
     23 O         -70.4035  -56.8180  -14.5916 O.2     1  UNL1       -0.2451
     24 O         -68.5051  -55.6843  -15.1895 O.3     1  UNL1       -0.4771
     25 H         -68.0128  -55.9917  -14.3592 H       1  UNL1        0.2954
     26 C         -63.9497  -49.7767  -25.2219 C.2     1  UNL1        0.2839
     27 O         -64.8995  -49.4028  -24.4832 O.2     1  UNL1       -0.2665
     28 N         -63.5844  -51.1663  -25.2930 N.am    1  UNL1       -0.2766
     29 H         -62.7959  -51.4473  -25.9154 H       1  UNL1        0.1553
     30 C         -64.0409  -49.3774  -28.4340 C.3     1  UNL1        0.0345
     31 C         -63.2984  -48.5741  -27.4097 C.ar    1  UNL1        0.0202
     32 C         -63.2448  -48.7607  -26.0227 C.ar    1  UNL1        0.1946
     33 O         -62.4239  -47.8789  -25.4798 O.2     1  UNL1       -0.4492
     34 C         -61.9619  -47.1146  -26.4391 C.ar    1  UNL1        0.1452
     35 C         -61.0749  -46.0504  -26.3200 C.ar    1  UNL1        0.0375
     36 C         -60.7095  -45.3618  -27.4902 C.ar    1  UNL1        0.0031
     37 C         -61.2324  -45.7456  -28.7551 C.ar    1  UNL1        0.0002
     38 C         -62.1313  -46.8365  -28.8316 C.ar    1  UNL1        0.0028
     39 C         -62.4727  -47.4945  -27.6502 C.ar    1  UNL1        0.0337
     40 C         -60.8395  -45.0111  -29.9844 C.ar    1  UNL1        0.0000
     41 C         -61.7511  -44.1517  -30.6270 C.ar    1  UNL1        0.0000
     42 C         -61.3785  -43.4622  -31.7850 C.ar    1  UNL1        0.0000
     43 C         -60.0956  -43.6209  -32.3135 C.ar    1  UNL1        0.0000
     44 C         -59.1822  -44.4703  -31.6853 C.ar    1  UNL1        0.0000
     45 C         -59.5494  -45.1631  -30.5275 C.ar    1  UNL1        0.0000
@<TRIPOS>BOND
     1    30    31    1
     2    31    32   ar
     3    32    26    1
     4    26    27    2
     5    26    28   am
     6    28     1    1
     7     1     2   ar
     8     2     3   ar
     9     3     4   ar
    10     4     7    1
    11     7     8    1
    12     8     9    1
    13     9    10    1
    14    10    13    1
    15    13    14    1
    16    14    15    1
    17    15    16   ar
    18    16    17   ar
    19    17    18    1
    20    17    19   ar
    21    19    20   ar
    22    20    22    1
    23    22    23    2
    24    22    24    1
    25    20    21   ar
    26    10    11    1
    27    11    12    1
    28     4     5   ar
    29     5     6   ar
    30    32    33   ar
    31    33    34   ar
    32    34    35   ar
    33    35    36   ar
    34    36    37   ar
    35    37    40    1
    36    40    41   ar
    37    41    42   ar
    38    42    43   ar
    39    43    44   ar
    40    44    45   ar
    41    37    38   ar
    42    38    39   ar
    43    39    31   ar
    44     6     1   ar
    45    39    34   ar
    46    12     7    1
    47    45    40   ar
    48    21    15   ar
    49    28    29    1
    50    24    25    1
@<TRIPOS>MOLECULE
*****
 45 50 0 0 0
SMALL
GASTEIGER

@<TRIPOS>ATOM
      1 C         -66.5638  -53.7256  -23.6996 C.ar    1  UNL1        0.0702
      2 C         -67.7664  -53.5846  -22.9902 C.ar    1  UNL1        0.0191
      3 C         -68.8574  -54.4014  -23.2921 C.ar    1  UNL1        0.0356
      4 C         -68.7519  -55.3451  -24.3262 C.ar    1  UNL1        0.1318
      5 N         -67.5767  -55.4573  -25.0057 N.ar    1  UNL1       -0.2279
      6 C         -66.5017  -54.6731  -24.7286 C.ar    1  UNL1        0.1149
      7 N         -69.8481  -56.2205  -24.6516 N.pl3   1  UNL1       -0.2932
      8 C         -69.8965  -56.9503  -25.9263 C.3     1  UNL1        0.0923
      9 C         -71.2644  -56.7714  -26.6073 C.3     1  UNL1        0.0252
     10 C         -72.4378  -56.6128  -25.6034 C.3     1  UNL1        0.0472
     11 C         -72.0890  -57.2133  -24.2274 C.3     1  UNL1        0.0252
     12 C         -70.8711  -56.4913  -23.6306 C.3     1  UNL1        0.0923
     13 C         -73.7297  -57.2330  -26.1703 C.3     1  UNL1        0.2054
     14 O         -73.8735  -56.9482  -27.5631 O.3     1  UNL1       -0.4754
     15 C         -74.1781  -55.6923  -28.1135 C.ar    1  UNL1        0.1392
     16 C         -74.5241  -54.5788  -27.3248 C.ar    1  UNL1        0.0427
     17 C         -74.8221  -53.3547  -27.9282 C.ar    1  UNL1        0.0333
     18 I         -75.3479  -51.6959  -26.7359 I       1  UNL1       -0.0424
     19 C         -74.7731  -53.2264  -29.3187 C.ar    1  UNL1        0.0124
     20 C         -74.4227  -54.3252  -30.1220 C.ar    1  UNL1        0.0789
     21 C         -74.1257  -55.5536  -29.5060 C.ar    1  UNL1        0.0434
     22 C         -74.3673  -54.1957  -31.5951 C.2     1  UNL1        0.3381
     23 O         -74.5040  -55.2104  -32.3310 O.2     1  UNL1       -0.2451
     24 O         -74.1631  -52.9501  -32.1833 O.3     1  UNL1       -0.4771
     25 H         -74.1234  -52.8506  -33.1906 H       1  UNL1        0.2954
     26 C         -64.4404  -52.5351  -24.4253 C.2     1  UNL1        0.2839
     27 O         -64.4972  -53.0203  -25.5868 O.2     1  UNL1       -0.2665
     28 N         -65.4256  -52.8881  -23.4383 N.am    1  UNL1       -0.2766
     29 H         -65.3518  -52.4734  -22.4841 H       1  UNL1        0.1553
     30 C         -64.3663  -49.3160  -24.7672 C.3     1  UNL1        0.0345
     31 C         -63.3038  -50.2270  -24.2314 C.ar    1  UNL1        0.0202
     32 C         -63.3308  -51.6213  -24.1027 C.ar    1  UNL1        0.1946
     33 O         -62.1684  -52.0554  -23.6482 O.2     1  UNL1       -0.4492
     34 C         -61.3979  -51.0134  -23.4520 C.ar    1  UNL1        0.1452
     35 C         -60.0927  -51.0045  -22.9725 C.ar    1  UNL1        0.0375
     36 C         -59.4472  -49.7625  -22.8392 C.ar    1  UNL1        0.0031
     37 C         -60.1117  -48.5547  -23.1861 C.ar    1  UNL1        0.0002
     38 C         -61.4400  -48.6092  -23.6725 C.ar    1  UNL1        0.0028
     39 C         -62.0492  -49.8585  -23.7895 C.ar    1  UNL1        0.0337
     40 C         -59.4201  -47.2486  -23.0412 C.ar    1  UNL1        0.0000
     41 C         -58.0488  -47.1956  -22.7265 C.ar    1  UNL1        0.0000
     42 C         -57.4007  -45.9643  -22.5896 C.ar    1  UNL1        0.0000
     43 C         -58.1108  -44.7747  -22.7656 C.ar    1  UNL1        0.0000
     44 C         -59.4714  -44.8138  -23.0782 C.ar    1  UNL1        0.0000
     45 C         -60.1251  -46.0423  -23.2153 C.ar    1  UNL1        0.0000
@<TRIPOS>BOND
     1    30    31    1
     2    31    32   ar
     3    32    26    1
     4    26    27    2
     5    26    28   am
     6    28     1    1
     7     1     2   ar
     8     2     3   ar
     9     3     4   ar
    10     4     7    1
    11     7     8    1
    12     8     9    1
    13     9    10    1
    14    10    13    1
    15    13    14    1
    16    14    15    1
    17    15    16   ar
    18    16    17   ar
    19    17    18    1
    20    17    19   ar
    21    19    20   ar
    22    20    22    1
    23    22    23    2
    24    22    24    1
    25    20    21   ar
    26    10    11    1
    27    11    12    1
    28     4     5   ar
    29     5     6   ar
    30    32    33   ar
    31    33    34   ar
    32    34    35   ar
    33    35    36   ar
    34    36    37   ar
    35    37    40    1
    36    40    41   ar
    37    41    42   ar
    38    42    43   ar
    39    43    44   ar
    40    44    45   ar
    41    37    38   ar
    42    38    39   ar
    43    39    31   ar
    44     6     1   ar
    45    39    34   ar
    46    12     7    1
    47    45    40   ar
    48    21    15   ar
    49    28    29    1
    50    24    25    1
@<TRIPOS>MOLECULE
*****
 45 50 0 0 0
SMALL
GASTEIGER

@<TRIPOS>ATOM
      1 C         -63.5991  -50.3336  -24.3298 C.ar    1  UNL1        0.0702
      2 C         -62.7849  -51.2962  -23.7135 C.ar    1  UNL1        0.0191
      3 C         -63.3222  -52.5263  -23.3303 C.ar    1  UNL1        0.0356
      4 C         -64.6862  -52.7831  -23.5416 C.ar    1  UNL1        0.1318
      5 N         -65.4576  -51.8297  -24.1342 N.ar    1  UNL1       -0.2279
      6 C         -64.9558  -50.6255  -24.5156 C.ar    1  UNL1        0.1149
      7 N         -65.2714  -54.0484  -23.1803 N.pl3   1  UNL1       -0.2932
      8 C         -66.5019  -54.5363  -23.8190 C.3     1  UNL1        0.0923
      9 C         -67.5193  -55.0006  -22.7626 C.3     1  UNL1        0.0252
     10 C         -66.8595  -55.5904  -21.4872 C.3     1  UNL1        0.0472
     11 C         -65.4300  -56.0921  -21.7712 C.3     1  UNL1        0.0252
     12 C         -64.5485  -54.9284  -22.2501 C.3     1  UNL1        0.0923
     13 C         -67.7334  -56.7091  -20.8873 C.3     1  UNL1        0.2054
     14 O         -69.0983  -56.3000  -20.7812 O.3     1  UNL1       -0.4754
     15 C         -69.7204  -55.8229  -19.6157 C.ar    1  UNL1        0.1392
     16 C         -69.3608  -56.2602  -18.3269 C.ar    1  UNL1        0.0427
     17 C         -70.0183  -55.7537  -17.2033 C.ar    1  UNL1        0.0333
     18 I         -69.4764  -56.4236  -15.2778 I       1  UNL1       -0.0424
     19 C         -71.0337  -54.8053  -17.3514 C.ar    1  UNL1        0.0124
     20 C         -71.4015  -54.3516  -18.6297 C.ar    1  UNL1        0.0789
     21 C         -70.7351  -54.8679  -19.7549 C.ar    1  UNL1        0.0434
     22 C         -72.4747  -53.3461  -18.7936 C.2     1  UNL1        0.3381
     23 O         -73.6847  -53.6765  -18.6640 O.2     1  UNL1       -0.2451
     24 O         -72.1581  -52.0235  -19.0929 O.3     1  UNL1       -0.4771
     25 H         -72.8852  -51.3274  -19.2072 H       1  UNL1        0.2954
     26 C         -63.3945  -48.4018  -25.9666 C.2     1  UNL1        0.2839
     27 O         -64.0857  -48.9927  -26.8387 O.2     1  UNL1       -0.2665
     28 N         -63.0923  -49.0455  -24.7161 N.am    1  UNL1       -0.2766
     29 H         -62.5153  -48.5336  -24.0139 H       1  UNL1        0.1553
     30 C         -63.8810  -46.6689  -28.6583 C.3     1  UNL1        0.0345
     31 C         -63.1141  -46.2933  -27.4268 C.ar    1  UNL1        0.0202
     32 C         -62.8886  -47.0522  -26.2716 C.ar    1  UNL1        0.1946
     33 O         -62.1055  -46.3874  -25.4403 O.2     1  UNL1       -0.4492
     34 C         -61.8319  -45.2272  -25.9853 C.ar    1  UNL1        0.1452
     35 C         -61.0488  -44.2074  -25.4560 C.ar    1  UNL1        0.0375
     36 C         -60.8866  -43.0369  -26.2179 C.ar    1  UNL1        0.0031
     37 C         -61.5052  -42.9042  -27.4908 C.ar    1  UNL1        0.0002
     38 C         -62.2927  -43.9678  -27.9933 C.ar    1  UNL1        0.0028
     39 C         -62.4330  -45.1127  -27.2091 C.ar    1  UNL1        0.0337
     40 C         -61.3270  -41.6633  -28.2868 C.ar    1  UNL1        0.0000
     41 C         -60.1611  -40.8859  -28.1496 C.ar    1  UNL1        0.0000
     42 C         -59.9967  -39.7174  -28.8997 C.ar    1  UNL1        0.0000
     43 C         -60.9903  -39.3124  -29.7936 C.ar    1  UNL1        0.0000
     44 C         -62.1512  -40.0749  -29.9390 C.ar    1  UNL1        0.0000
     45 C         -62.3216  -41.2438  -29.1908 C.ar    1  UNL1        0.0000
@<TRIPOS>BOND
     1    30    31    1
     2    31    32   ar
     3    32    26    1
     4    26    27    2
     5    26    28   am
     6    28     1    1
     7     1     2   ar
     8     2     3   ar
     9     3     4   ar
    10     4     7    1
    11     7     8    1
    12     8     9    1
    13     9    10    1
    14    10    13    1
    15    13    14    1
    16    14    15    1
    17    15    16   ar
    18    16    17   ar
    19    17    18    1
    20    17    19   ar
    21    19    20   ar
    22    20    22    1
    23    22    23    2
    24    22    24    1
    25    20    21   ar
    26    10    11    1
    27    11    12    1
    28     4     5   ar
    29     5     6   ar
    30    32    33   ar
    31    33    34   ar
    32    34    35   ar
    33    35    36   ar
    34    36    37   ar
    35    37    40    1
    36    40    41   ar
    37    41    42   ar
    38    42    43   ar
    39    43    44   ar
    40    44    45   ar
    41    37    38   ar
    42    38    39   ar
    43    39    31   ar
    44     6     1   ar
    45    39    34   ar
    46    12     7    1
    47    45    40   ar
    48    21    15   ar
    49    28    29    1
    50    24    25    1
@<TRIPOS>MOLECULE
*****
 45 50 0 0 0
SMALL
GASTEIGER

@<TRIPOS>ATOM
      1 C         -63.5547  -50.2345  -24.3440 C.ar    1  UNL1        0.0702
      2 C         -62.7496  -51.1965  -23.7148 C.ar    1  UNL1        0.0191
      3 C         -63.2958  -52.4209  -23.3260 C.ar    1  UNL1        0.0356
      4 C         -64.6597  -52.6723  -23.5446 C.ar    1  UNL1        0.1318
      5 N         -65.4221  -51.7196  -24.1498 N.ar    1  UNL1       -0.2279
      6 C         -64.9116  -50.5209  -24.5369 C.ar    1  UNL1        0.1149
      7 N         -65.2538  -53.9319  -23.1778 N.pl3   1  UNL1       -0.2932
      8 C         -66.5513  -54.3569  -23.7218 C.3     1  UNL1        0.0923
      9 C         -67.4877  -54.8295  -22.5964 C.3     1  UNL1        0.0252
     10 C         -66.7394  -55.4876  -21.4061 C.3     1  UNL1        0.0472
     11 C         -65.3582  -56.0219  -21.8332 C.3     1  UNL1        0.0252
     12 C         -64.4828  -54.8685  -22.3469 C.3     1  UNL1        0.0923
     13 C         -67.5951  -56.6009  -20.7709 C.3     1  UNL1        0.2054
     14 O         -68.6161  -56.0556  -19.9332 O.3     1  UNL1       -0.4754
     15 C         -68.5614  -55.9629  -18.5326 C.ar    1  UNL1        0.1392
     16 C         -69.6986  -56.1046  -17.7150 C.ar    1  UNL1        0.0427
     17 C         -69.5846  -55.9976  -16.3269 C.ar    1  UNL1        0.0333
     18 I         -71.2976  -56.2029  -15.1130 I       1  UNL1       -0.0424
     19 C         -68.3397  -55.7549  -15.7407 C.ar    1  UNL1        0.0124
     20 C         -67.1921  -55.6176  -16.5405 C.ar    1  UNL1        0.0789
     21 C         -67.3166  -55.7255  -17.9367 C.ar    1  UNL1        0.0434
     22 C         -65.8704  -55.3622  -15.9260 C.2     1  UNL1        0.3381
     23 O         -65.7455  -54.4990  -15.0154 O.2     1  UNL1       -0.2451
     24 O         -64.7503  -56.0736  -16.3484 O.3     1  UNL1       -0.4771
     25 H         -63.8410  -55.9063  -15.9344 H       1  UNL1        0.2954
     26 C         -63.3576  -48.3000  -25.9786 C.2     1  UNL1        0.2839
     27 O         -64.0743  -48.8787  -26.8383 O.2     1  UNL1       -0.2665
     28 N         -63.0387  -48.9520  -24.7365 N.am    1  UNL1       -0.2766
     29 H         -62.4407  -48.4502  -24.0447 H       1  UNL1        0.1553
     30 C         -63.8911  -46.5440  -28.6463 C.3     1  UNL1        0.0345
     31 C         -63.0855  -46.1872  -27.4341 C.ar    1  UNL1        0.0202
     32 C         -62.8400  -46.9563  -26.2897 C.ar    1  UNL1        0.1946
     33 O         -62.0247  -46.3083  -25.4763 O.2     1  UNL1       -0.4492
     34 C         -61.7487  -45.1490  -26.0221 C.ar    1  UNL1        0.1452
     35 C         -60.9362  -44.1441  -25.5086 C.ar    1  UNL1        0.0375
     36 C         -60.7773  -42.9716  -26.2681 C.ar    1  UNL1        0.0031
     37 C         -61.4282  -42.8220  -27.5229 C.ar    1  UNL1        0.0002
     38 C         -62.2450  -43.8708  -28.0096 C.ar    1  UNL1        0.0028
     39 C         -62.3811  -45.0182  -27.2283 C.ar    1  UNL1        0.0337
     40 C         -61.2531  -41.5791  -28.3164 C.ar    1  UNL1        0.0000
     41 C         -60.1027  -40.7833  -28.1560 C.ar    1  UNL1        0.0000
     42 C         -59.9412  -39.6130  -28.9039 C.ar    1  UNL1        0.0000
     43 C         -60.9223  -39.2245  -29.8187 C.ar    1  UNL1        0.0000
     44 C         -62.0678  -40.0053  -29.9873 C.ar    1  UNL1        0.0000
     45 C         -62.2353  -41.1762  -29.2414 C.ar    1  UNL1        0.0000
@<TRIPOS>BOND
     1    30    31    1
     2    31    32   ar
     3    32    26    1
     4    26    27    2
     5    26    28   am
     6    28     1    1
     7     1     2   ar
     8     2     3   ar
     9     3     4   ar
    10     4     7    1
    11     7     8    1
    12     8     9    1
    13     9    10    1
    14    10    13    1
    15    13    14    1
    16    14    15    1
    17    15    16   ar
    18    16    17   ar
    19    17    18    1
    20    17    19   ar
    21    19    20   ar
    22    20    22    1
    23    22    23    2
    24    22    24    1
    25    20    21   ar
    26    10    11    1
    27    11    12    1
    28     4     5   ar
    29     5     6   ar
    30    32    33   ar
    31    33    34   ar
    32    34    35   ar
    33    35    36   ar
    34    36    37   ar
    35    37    40    1
    36    40    41   ar
    37    41    42   ar
    38    42    43   ar
    39    43    44   ar
    40    44    45   ar
    41    37    38   ar
    42    38    39   ar
    43    39    31   ar
    44     6     1   ar
    45    39    34   ar
    46    12     7    1
    47    45    40   ar
    48    21    15   ar
    49    28    29    1
    50    24    25    1
