@<TRIPOS>MOLECULE
*****
 47 52 0 0 0
SMALL
GASTEIGER

@<TRIPOS>ATOM
      1 C         -64.4965  -52.0957  -24.8164 C.ar    1  UNL1        0.0702
      2 C         -63.9197  -52.3467  -23.5661 C.ar    1  UNL1        0.0191
      3 C         -64.4488  -53.3318  -22.7309 C.ar    1  UNL1        0.0356
      4 C         -65.5787  -54.0589  -23.1436 C.ar    1  UNL1        0.1318
      5 N         -66.1346  -53.7816  -24.3567 N.ar    1  UNL1       -0.2279
      6 C         -65.6336  -52.8303  -25.1881 C.ar    1  UNL1        0.1149
      7 N         -66.1558  -55.0882  -22.3106 N.pl3   1  UNL1       -0.2932
      8 C         -67.3014  -55.8848  -22.7834 C.3     1  UNL1        0.0923
      9 C         -67.3765  -57.2341  -22.0583 C.3     1  UNL1        0.0252
     10 C         -67.4098  -57.0812  -20.5167 C.3     1  UNL1        0.0472
     11 C         -66.6199  -55.8432  -20.0170 C.3     1  UNL1        0.0252
     12 C         -65.5429  -55.3998  -21.0101 C.3     1  UNL1        0.0923
     13 C         -68.8571  -57.0542  -19.9974 C.3     1  UNL1        0.2054
     14 O         -69.0145  -55.9966  -19.0531 O.3     1  UNL1       -0.4755
     15 C         -69.3932  -56.1771  -17.7148 C.ar    1  UNL1        0.1388
     16 C         -70.6781  -56.6156  -17.3472 C.ar    1  UNL1        0.0369
     17 C         -71.0030  -56.7828  -16.0000 C.ar    1  UNL1        0.0033
     18 C         -70.0582  -56.5112  -15.0077 C.ar    1  UNL1        0.0066
     19 C         -68.7718  -56.0616  -15.3546 C.ar    1  UNL1        0.0785
     20 C         -68.4495  -55.9077  -16.7159 C.ar    1  UNL1        0.0433
     21 C         -67.7534  -55.7727  -14.3152 C.2     1  UNL1        0.3381
     22 O         -68.1091  -55.6256  -13.1156 O.2     1  UNL1       -0.2451
     23 O         -66.3971  -55.6722  -14.6230 O.3     1  UNL1       -0.4771
     24 H         -66.0292  -55.8796  -15.5422 H       1  UNL1        0.2954
     25 C         -64.0437  -49.6585  -25.3644 C.2     1  UNL1        0.2839
     26 O         -64.8334  -49.2448  -24.4734 O.2     1  UNL1       -0.2665
     27 N         -63.9535  -51.0625  -25.6562 N.am    1  UNL1       -0.2766
     28 H         -63.5432  -51.3470  -26.5746 H       1  UNL1        0.1553
     29 C         -64.0539  -49.2612  -28.5449 C.3     1  UNL1        0.0345
     30 C         -63.2402  -48.5188  -27.5279 C.ar    1  UNL1        0.0202
     31 C         -63.2382  -48.6959  -26.1398 C.ar    1  UNL1        0.1946
     32 O         -62.3888  -47.8542  -25.5780 O.2     1  UNL1       -0.4492
     33 C         -61.8394  -47.1406  -26.5301 C.ar    1  UNL1        0.1452
     34 C         -60.8899  -46.1346  -26.3898 C.ar    1  UNL1        0.0375
     35 C         -60.4333  -45.4910  -27.5530 C.ar    1  UNL1        0.0031
     36 C         -60.9297  -45.8602  -28.8324 C.ar    1  UNL1        0.0002
     37 C         -61.8957  -46.8901  -28.9312 C.ar    1  UNL1        0.0028
     38 C         -62.3263  -47.5077  -27.7560 C.ar    1  UNL1        0.0337
     39 C         -60.4400  -45.1726  -30.0541 C.ar    1  UNL1       -0.0002
     40 C         -59.0751  -45.2046  -30.3929 C.ar    1  UNL1       -0.0000
     41 C         -58.6172  -44.5645  -31.5468 C.ar    1  UNL1       -0.0002
     42 C         -59.5113  -43.8819  -32.3736 C.ar    1  UNL1       -0.0019
     43 C         -60.8736  -43.8243  -32.0448 C.ar    1  UNL1        0.0070
     44 C         -61.3347  -44.4823  -30.8932 C.ar    1  UNL1       -0.0019
     45 C         -61.8419  -43.1258  -32.9552 C.3     1  UNL1        0.1636
     46 O         -63.1367  -43.2535  -32.4391 O.3     1  UNL1       -0.3772
     47 H         -63.7337  -42.7767  -33.0724 H       1  UNL1        0.2109
@<TRIPOS>BOND
     1    29    30    1
     2    30    31   ar
     3    31    25    1
     4    25    26    2
     5    25    27   am
     6    27     1    1
     7     1     2   ar
     8     2     3   ar
     9     3     4   ar
    10     4     7    1
    11     7     8    1
    12     8     9    1
    13     9    10    1
    14    10    13    1
    15    13    14    1
    16    14    15    1
    17    15    16   ar
    18    16    17   ar
    19    17    18   ar
    20    18    19   ar
    21    19    21    1
    22    21    22    2
    23    21    23    1
    24    19    20   ar
    25    10    11    1
    26    11    12    1
    27     4     5   ar
    28     5     6   ar
    29    31    32   ar
    30    32    33   ar
    31    33    34   ar
    32    34    35   ar
    33    35    36   ar
    34    36    39    1
    35    39    40   ar
    36    40    41   ar
    37    41    42   ar
    38    42    43   ar
    39    43    45    1
    40    45    46    1
    41    43    44   ar
    42    36    37   ar
    43    37    38   ar
    44    38    30   ar
    45     6     1   ar
    46    38    33   ar
    47    12     7    1
    48    44    39   ar
    49    20    15   ar
    50    27    28    1
    51    23    24    1
    52    46    47    1
@<TRIPOS>MOLECULE
*****
 47 52 0 0 0
SMALL
GASTEIGER

@<TRIPOS>ATOM
      1 C         -64.4491  -51.9780  -24.8383 C.ar    1  UNL1        0.0702
      2 C         -63.9925  -52.0942  -23.5204 C.ar    1  UNL1        0.0191
      3 C         -64.5335  -53.0592  -22.6697 C.ar    1  UNL1        0.0356
      4 C         -65.5559  -53.9029  -23.1375 C.ar    1  UNL1        0.1318
      5 N         -65.9977  -53.7563  -24.4183 N.ar    1  UNL1       -0.2279
      6 C         -65.4823  -52.8268  -25.2656 C.ar    1  UNL1        0.1149
      7 N         -66.1410  -54.9159  -22.2903 N.pl3   1  UNL1       -0.2932
      8 C         -66.9303  -56.0172  -22.8690 C.3     1  UNL1        0.0923
      9 C         -66.9523  -57.2344  -21.9363 C.3     1  UNL1        0.0252
     10 C         -67.4541  -56.8852  -20.5125 C.3     1  UNL1        0.0472
     11 C         -67.0904  -55.4396  -20.0834 C.3     1  UNL1        0.0252
     12 C         -65.8787  -54.8941  -20.8430 C.3     1  UNL1        0.0923
     13 C         -68.9672  -57.1300  -20.3867 C.3     1  UNL1        0.2054
     14 O         -69.6818  -55.9497  -20.7486 O.3     1  UNL1       -0.4755
     15 C         -70.5024  -55.8339  -21.8801 C.ar    1  UNL1        0.1388
     16 C         -71.8108  -56.3488  -21.9186 C.ar    1  UNL1        0.0369
     17 C         -72.5878  -56.2034  -23.0691 C.ar    1  UNL1        0.0033
     18 C         -72.0712  -55.5514  -24.1912 C.ar    1  UNL1        0.0066
     19 C         -70.7616  -55.0394  -24.1761 C.ar    1  UNL1        0.0785
     20 C         -69.9902  -55.1800  -23.0074 C.ar    1  UNL1        0.0433
     21 C         -70.1974  -54.3397  -25.3563 C.2     1  UNL1        0.3381
     22 O         -70.9706  -53.7986  -26.1908 O.2     1  UNL1       -0.2451
     23 O         -68.8221  -54.2469  -25.5675 O.3     1  UNL1       -0.4771
     24 H         -68.1429  -54.5663  -24.8892 H       1  UNL1        0.2954
     25 C         -64.0011  -49.5535  -25.4440 C.2     1  UNL1        0.2839
     26 O         -64.8092  -49.1211  -24.5787 O.2     1  UNL1       -0.2665
     27 N         -63.8972  -50.9642  -25.6960 N.am    1  UNL1       -0.2766
     28 H         -63.4688  -51.2707  -26.5989 H       1  UNL1        0.1553
     29 C         -64.1101  -49.0938  -28.6142 C.3     1  UNL1        0.0345
     30 C         -63.2326  -48.4027  -27.6143 C.ar    1  UNL1        0.0202
     31 C         -63.1876  -48.6070  -26.2307 C.ar    1  UNL1        0.1946
     32 O         -62.2870  -47.8090  -25.6850 O.2     1  UNL1       -0.4492
     33 C         -61.7451  -47.0981  -26.6434 C.ar    1  UNL1        0.1452
     34 C         -60.7532  -46.1316  -26.5196 C.ar    1  UNL1        0.0375
     35 C         -60.3143  -45.4829  -27.6868 C.ar    1  UNL1        0.0031
     36 C         -60.8700  -45.8080  -28.9537 C.ar    1  UNL1        0.0002
     37 C         -61.8777  -46.7987  -29.0359 C.ar    1  UNL1        0.0028
     38 C         -62.2894  -47.4225  -27.8572 C.ar    1  UNL1        0.0337
     39 C         -60.3983  -45.1155  -30.1797 C.ar    1  UNL1       -0.0002
     40 C         -59.0402  -45.1538  -30.5437 C.ar    1  UNL1       -0.0000
     41 C         -58.5993  -44.5091  -31.7017 C.ar    1  UNL1       -0.0002
     42 C         -59.5041  -43.8157  -32.5076 C.ar    1  UNL1       -0.0019
     43 C         -60.8597  -43.7518  -32.1537 C.ar    1  UNL1        0.0070
     44 C         -61.3039  -44.4144  -30.9979 C.ar    1  UNL1       -0.0019
     45 C         -61.8401  -43.0415  -33.0417 C.3     1  UNL1        0.1636
     46 O         -63.0284  -42.8208  -32.3356 O.3     1  UNL1       -0.3772
     47 H         -63.6375  -42.3506  -32.9623 H       1  UNL1        0.2109
@<TRIPOS>BOND
     1    29    30    1
     2    30    31   ar
     3    31    25    1
     4    25    26    2
     5    25    27   am
     6    27     1    1
     7     1     2   ar
     8     2     3   ar
     9     3     4   ar
    10     4     7    1
    11     7     8    1
    12     8     9    1
    13     9    10    1
    14    10    13    1
    15    13    14    1
    16    14    15    1
    17    15    16   ar
    18    16    17   ar
    19    17    18   ar
    20    18    19   ar
    21    19    21    1
    22    21    22    2
    23    21    23    1
    24    19    20   ar
    25    10    11    1
    26    11    12    1
    27     4     5   ar
    28     5     6   ar
    29    31    32   ar
    30    32    33   ar
    31    33    34   ar
    32    34    35   ar
    33    35    36   ar
    34    36    39    1
    35    39    40   ar
    36    40    41   ar
    37    41    42   ar
    38    42    43   ar
    39    43    45    1
    40    45    46    1
    41    43    44   ar
    42    36    37   ar
    43    37    38   ar
    44    38    30   ar
    45     6     1   ar
    46    38    33   ar
    47    12     7    1
    48    44    39   ar
    49    20    15   ar
    50    27    28    1
    51    23    24    1
    52    46    47    1
@<TRIPOS>MOLECULE
*****
 47 52 0 0 0
SMALL
GASTEIGER

@<TRIPOS>ATOM
      1 C         -64.0625  -50.9468  -24.1827 C.ar    1  UNL1        0.0702
      2 C         -62.8834  -51.4049  -23.5837 C.ar    1  UNL1        0.0191
      3 C         -61.8265  -50.5254  -23.3449 C.ar    1  UNL1        0.0356
      4 C         -61.9440  -49.1780  -23.7280 C.ar    1  UNL1        0.1318
      5 N         -63.0942  -48.7609  -24.3284 N.ar    1  UNL1       -0.2279
      6 C         -64.1377  -49.5986  -24.5665 C.ar    1  UNL1        0.1149
      7 N         -60.8748  -48.2348  -23.4968 N.pl3   1  UNL1       -0.2932
      8 C         -60.5488  -47.7863  -22.1318 C.3     1  UNL1        0.0923
      9 C         -59.0997  -47.2926  -22.0408 C.3     1  UNL1        0.0252
     10 C         -58.7814  -46.1845  -23.0761 C.3     1  UNL1        0.0472
     11 C         -59.5899  -46.3386  -24.3910 C.3     1  UNL1        0.0252
     12 C         -60.0499  -47.7793  -24.6264 C.3     1  UNL1        0.0923
     13 C         -58.9861  -44.7872  -22.4673 C.3     1  UNL1        0.2054
     14 O         -60.3631  -44.4220  -22.5416 O.3     1  UNL1       -0.4755
     15 C         -61.0150  -43.5912  -21.6188 C.ar    1  UNL1        0.1388
     16 C         -60.3791  -42.4928  -21.0123 C.ar    1  UNL1        0.0369
     17 C         -61.0747  -41.6946  -20.1026 C.ar    1  UNL1        0.0033
     18 C         -62.4036  -41.9830  -19.7837 C.ar    1  UNL1        0.0066
     19 C         -63.0535  -43.0830  -20.3711 C.ar    1  UNL1        0.0785
     20 C         -62.3479  -43.8747  -21.2963 C.ar    1  UNL1        0.0433
     21 C         -64.4659  -43.4021  -20.0486 C.2     1  UNL1        0.3381
     22 O         -64.8305  -44.6048  -19.9609 O.2     1  UNL1       -0.2451
     23 O         -65.4117  -42.4028  -19.8216 O.3     1  UNL1       -0.4771
     24 H         -65.1688  -41.4221  -19.7738 H       1  UNL1        0.2954
     25 C         -65.3322  -53.0960  -23.7200 C.2     1  UNL1        0.2839
     26 O         -64.4185  -53.5524  -22.9814 O.2     1  UNL1       -0.2665
     27 N         -65.1341  -51.8699  -24.4423 N.am    1  UNL1       -0.2766
     28 H         -65.7553  -51.6771  -25.2606 H       1  UNL1        0.1553
     29 C         -67.8813  -52.9975  -21.7794 C.3     1  UNL1        0.0345
     30 C         -67.7101  -53.8021  -23.0327 C.ar    1  UNL1        0.0202
     31 C         -66.5949  -53.8429  -23.8770 C.ar    1  UNL1        0.1946
     32 O         -66.8198  -54.6686  -24.8835 O.2     1  UNL1       -0.4492
     33 C         -68.0233  -55.1660  -24.7353 C.ar    1  UNL1        0.1452
     34 C         -68.6686  -56.0756  -25.5658 C.ar    1  UNL1        0.0375
     35 C         -69.9697  -56.4784  -25.2187 C.ar    1  UNL1        0.0031
     36 C         -70.6034  -55.9693  -24.0530 C.ar    1  UNL1        0.0002
     37 C         -69.9110  -55.0453  -23.2342 C.ar    1  UNL1        0.0028
     38 C         -68.6206  -54.6675  -23.6087 C.ar    1  UNL1        0.0337
     39 C         -71.9785  -56.4021  -23.6969 C.ar    1  UNL1       -0.0002
     40 C         -72.8892  -56.7829  -24.6990 C.ar    1  UNL1       -0.0000
     41 C         -74.1796  -57.1979  -24.3621 C.ar    1  UNL1       -0.0002
     42 C         -74.5793  -57.2342  -23.0250 C.ar    1  UNL1       -0.0019
     43 C         -73.6918  -56.8430  -22.0119 C.ar    1  UNL1        0.0070
     44 C         -72.3896  -56.4418  -22.3513 C.ar    1  UNL1       -0.0019
     45 C         -74.1073  -56.9214  -20.5713 C.3     1  UNL1        0.1636
     46 O         -75.2103  -56.0855  -20.3617 O.3     1  UNL1       -0.3772
     47 H         -75.4446  -56.1746  -19.4015 H       1  UNL1        0.2109
@<TRIPOS>BOND
     1    29    30    1
     2    30    31   ar
     3    31    25    1
     4    25    26    2
     5    25    27   am
     6    27     1    1
     7     1     2   ar
     8     2     3   ar
     9     3     4   ar
    10     4     7    1
    11     7     8    1
    12     8     9    1
    13     9    10    1
    14    10    13    1
    15    13    14    1
    16    14    15    1
    17    15    16   ar
    18    16    17   ar
    19    17    18   ar
    20    18    19   ar
    21    19    21    1
    22    21    22    2
    23    21    23    1
    24    19    20   ar
    25    10    11    1
    26    11    12    1
    27     4     5   ar
    28     5     6   ar
    29    31    32   ar
    30    32    33   ar
    31    33    34   ar
    32    34    35   ar
    33    35    36   ar
    34    36    39    1
    35    39    40   ar
    36    40    41   ar
    37    41    42   ar
    38    42    43   ar
    39    43    45    1
    40    45    46    1
    41    43    44   ar
    42    36    37   ar
    43    37    38   ar
    44    38    30   ar
    45     6     1   ar
    46    38    33   ar
    47    12     7    1
    48    44    39   ar
    49    20    15   ar
    50    27    28    1
    51    23    24    1
    52    46    47    1
@<TRIPOS>MOLECULE
*****
 47 52 0 0 0
SMALL
GASTEIGER

@<TRIPOS>ATOM
      1 C         -62.4937  -41.1671  -21.2553 C.ar    1  UNL1        0.0702
      2 C         -63.5941  -41.1135  -20.3921 C.ar    1  UNL1        0.0191
      3 C         -63.9992  -39.8968  -19.8416 C.ar    1  UNL1        0.0356
      4 C         -63.2831  -38.7253  -20.1427 C.ar    1  UNL1        0.1318
      5 N         -62.2027  -38.8069  -20.9695 N.ar    1  UNL1       -0.2279
      6 C         -61.7931  -39.9799  -21.5205 C.ar    1  UNL1        0.1149
      7 N         -63.6707  -37.4459  -19.5959 N.pl3   1  UNL1       -0.2932
      8 C         -64.9452  -37.2911  -18.8732 C.3     1  UNL1        0.0923
      9 C         -64.8979  -36.0954  -17.9140 C.3     1  UNL1        0.0252
     10 C         -64.5035  -34.7763  -18.6249 C.3     1  UNL1        0.0472
     11 C         -63.5383  -35.0006  -19.8184 C.3     1  UNL1        0.0252
     12 C         -62.7472  -36.3047  -19.6904 C.3     1  UNL1        0.0923
     13 C         -65.7519  -33.9957  -19.0689 C.3     1  UNL1        0.2054
     14 O         -66.7250  -34.0018  -18.0258 O.3     1  UNL1       -0.4755
     15 C         -68.1120  -33.9993  -18.2339 C.ar    1  UNL1        0.1388
     16 C         -68.7162  -34.6937  -19.2974 C.ar    1  UNL1        0.0369
     17 C         -70.1025  -34.6618  -19.4577 C.ar    1  UNL1        0.0033
     18 C         -70.8988  -33.9369  -18.5681 C.ar    1  UNL1        0.0066
     19 C         -70.3126  -33.2273  -17.5049 C.ar    1  UNL1        0.0785
     20 C         -68.9152  -33.2753  -17.3443 C.ar    1  UNL1        0.0433
     21 C         -71.1422  -32.4558  -16.5472 C.2     1  UNL1        0.3381
     22 O         -72.3097  -32.1094  -16.8695 O.2     1  UNL1       -0.2451
     23 O         -70.6723  -32.1097  -15.2806 O.3     1  UNL1       -0.4771
     24 H         -69.7884  -32.4411  -14.9171 H       1  UNL1        0.2954
     25 C         -60.8779  -43.1200  -21.4001 C.2     1  UNL1        0.2839
     26 O         -59.9937  -42.5212  -20.7306 O.2     1  UNL1       -0.2665
     27 N         -62.0749  -42.4316  -21.7972 N.am    1  UNL1       -0.2766
     28 H         -62.6315  -42.8313  -22.5865 H       1  UNL1        0.1553
     29 C         -62.9801  -45.5297  -21.1815 C.3     1  UNL1        0.0345
     30 C         -61.5820  -45.5750  -21.7207 C.ar    1  UNL1        0.0202
     31 C         -60.6669  -44.5204  -21.8137 C.ar    1  UNL1        0.1946
     32 O         -59.5359  -44.9489  -22.3455 O.2     1  UNL1       -0.4492
     33 C         -59.6701  -46.2272  -22.6017 C.ar    1  UNL1        0.1452
     34 C         -58.7263  -47.0784  -23.1657 C.ar    1  UNL1        0.0375
     35 C         -59.0821  -48.4248  -23.3563 C.ar    1  UNL1        0.0031
     36 C         -60.3688  -48.8983  -22.9825 C.ar    1  UNL1        0.0002
     37 C         -61.3002  -47.9986  -22.4108 C.ar    1  UNL1        0.0028
     38 C         -60.9133  -46.6690  -22.2358 C.ar    1  UNL1        0.0337
     39 C         -60.7332  -50.3229  -23.1892 C.ar    1  UNL1       -0.0002
     40 C         -59.7567  -51.3308  -23.0935 C.ar    1  UNL1       -0.0000
     41 C         -60.1024  -52.6712  -23.2799 C.ar    1  UNL1       -0.0002
     42 C         -61.4224  -53.0229  -23.5678 C.ar    1  UNL1       -0.0019
     43 C         -62.4079  -52.0317  -23.6836 C.ar    1  UNL1        0.0070
     44 C         -62.0616  -50.6861  -23.4796 C.ar    1  UNL1       -0.0019
     45 C         -63.8351  -52.4126  -23.9521 C.3     1  UNL1        0.1636
     46 O         -64.3542  -53.0783  -22.8356 O.3     1  UNL1       -0.3772
     47 H         -65.2933  -53.3052  -23.0625 H       1  UNL1        0.2109
@<TRIPOS>BOND
     1    29    30    1
     2    30    31   ar
     3    31    25    1
     4    25    26    2
     5    25    27   am
     6    27     1    1
     7     1     2   ar
     8     2     3   ar
     9     3     4   ar
    10     4     7    1
    11     7     8    1
    12     8     9    1
    13     9    10    1
    14    10    13    1
    15    13    14    1
    16    14    15    1
    17    15    16   ar
    18    16    17   ar
    19    17    18   ar
    20    18    19   ar
    21    19    21    1
    22    21    22    2
    23    21    23    1
    24    19    20   ar
    25    10    11    1
    26    11    12    1
    27     4     5   ar
    28     5     6   ar
    29    31    32   ar
    30    32    33   ar
    31    33    34   ar
    32    34    35   ar
    33    35    36   ar
    34    36    39    1
    35    39    40   ar
    36    40    41   ar
    37    41    42   ar
    38    42    43   ar
    39    43    45    1
    40    45    46    1
    41    43    44   ar
    42    36    37   ar
    43    37    38   ar
    44    38    30   ar
    45     6     1   ar
    46    38    33   ar
    47    12     7    1
    48    44    39   ar
    49    20    15   ar
    50    27    28    1
    51    23    24    1
    52    46    47    1
@<TRIPOS>MOLECULE
*****
 47 52 0 0 0
SMALL
GASTEIGER

@<TRIPOS>ATOM
      1 C         -63.8532  -51.0593  -24.2496 C.ar    1  UNL1        0.0702
      2 C         -63.1081  -51.9644  -23.4850 C.ar    1  UNL1        0.0191
      3 C         -63.6800  -53.1634  -23.0571 C.ar    1  UNL1        0.0356
      4 C         -65.0174  -53.4497  -23.3812 C.ar    1  UNL1        0.1318
      5 N         -65.7284  -52.5430  -24.1091 N.ar    1  UNL1       -0.2279
      6 C         -65.1907  -51.3715  -24.5403 C.ar    1  UNL1        0.1149
      7 N         -65.6462  -54.6799  -22.9599 N.pl3   1  UNL1       -0.2932
      8 C         -66.7402  -55.2742  -23.7477 C.3     1  UNL1        0.0923
      9 C         -66.8559  -56.7813  -23.4884 C.3     1  UNL1        0.0252
     10 C         -67.0144  -57.1168  -21.9840 C.3     1  UNL1        0.0472
     11 C         -66.2826  -56.1071  -21.0614 C.3     1  UNL1        0.0252
     12 C         -65.1354  -55.3899  -21.7771 C.3     1  UNL1        0.0923
     13 C         -68.4988  -57.2344  -21.5996 C.3     1  UNL1        0.2054
     14 O         -69.1902  -56.0403  -21.9614 O.3     1  UNL1       -0.4755
     15 C         -70.0176  -55.3090  -21.0967 C.ar    1  UNL1        0.1388
     16 C         -69.6116  -54.0966  -20.5104 C.ar    1  UNL1        0.0369
     17 C         -70.4756  -53.4056  -19.6591 C.ar    1  UNL1        0.0033
     18 C         -71.7459  -53.9144  -19.3791 C.ar    1  UNL1        0.0066
     19 C         -72.1661  -55.1303  -19.9470 C.ar    1  UNL1        0.0785
     20 C         -71.2927  -55.8136  -20.8135 C.ar    1  UNL1        0.0433
     21 C         -73.5132  -55.6840  -19.6652 C.2     1  UNL1        0.3381
     22 O         -74.4236  -55.5838  -20.5302 O.2     1  UNL1       -0.2451
     23 O         -73.8049  -56.3331  -18.4659 O.3     1  UNL1       -0.4771
     24 H         -73.0989  -56.5402  -17.7717 H       1  UNL1        0.2954
     25 C         -63.3472  -49.2884  -25.9969 C.2     1  UNL1        0.2839
     26 O         -63.7454  -50.0179  -26.9445 O.2     1  UNL1       -0.2665
     27 N         -63.2571  -49.8182  -24.6644 N.am    1  UNL1       -0.2766
     28 H         -62.6520  -49.3149  -23.9766 H       1  UNL1        0.1553
     29 C         -64.0997  -47.5090  -28.5546 C.3     1  UNL1        0.0345
     30 C         -63.2598  -47.1169  -27.3763 C.ar    1  UNL1        0.0202
     31 C         -62.9329  -47.8973  -26.2617 C.ar    1  UNL1        0.1946
     32 O         -62.1739  -47.2043  -25.4316 O.2     1  UNL1       -0.4492
     33 C         -61.9910  -46.0148  -25.9505 C.ar    1  UNL1        0.1452
     34 C         -61.2570  -44.9633  -25.4130 C.ar    1  UNL1        0.0375
     35 C         -61.1928  -43.7630  -26.1414 C.ar    1  UNL1        0.0031
     36 C         -61.8592  -43.6317  -27.3897 C.ar    1  UNL1        0.0002
     37 C         -62.5955  -44.7269  -27.9018 C.ar    1  UNL1        0.0028
     38 C         -62.6377  -45.9036  -27.1523 C.ar    1  UNL1        0.0337
     39 C         -61.7843  -42.3583  -28.1498 C.ar    1  UNL1       -0.0002
     40 C         -60.6107  -41.5831  -28.1305 C.ar    1  UNL1       -0.0000
     41 C         -60.5387  -40.3898  -28.8527 C.ar    1  UNL1       -0.0002
     42 C         -61.6350  -39.9526  -29.5985 C.ar    1  UNL1       -0.0019
     43 C         -62.8199  -40.7026  -29.6179 C.ar    1  UNL1        0.0070
     44 C         -62.8848  -41.9103  -28.9044 C.ar    1  UNL1       -0.0019
     45 C         -63.9846  -40.2542  -30.4526 C.3     1  UNL1        0.1636
     46 O         -65.1748  -40.5112  -29.7623 O.3     1  UNL1       -0.3772
     47 H         -65.9084  -40.1972  -30.3523 H       1  UNL1        0.2109
@<TRIPOS>BOND
     1    29    30    1
     2    30    31   ar
     3    31    25    1
     4    25    26    2
     5    25    27   am
     6    27     1    1
     7     1     2   ar
     8     2     3   ar
     9     3     4   ar
    10     4     7    1
    11     7     8    1
    12     8     9    1
    13     9    10    1
    14    10    13    1
    15    13    14    1
    16    14    15    1
    17    15    16   ar
    18    16    17   ar
    19    17    18   ar
    20    18    19   ar
    21    19    21    1
    22    21    22    2
    23    21    23    1
    24    19    20   ar
    25    10    11    1
    26    11    12    1
    27     4     5   ar
    28     5     6   ar
    29    31    32   ar
    30    32    33   ar
    31    33    34   ar
    32    34    35   ar
    33    35    36   ar
    34    36    39    1
    35    39    40   ar
    36    40    41   ar
    37    41    42   ar
    38    42    43   ar
    39    43    45    1
    40    45    46    1
    41    43    44   ar
    42    36    37   ar
    43    37    38   ar
    44    38    30   ar
    45     6     1   ar
    46    38    33   ar
    47    12     7    1
    48    44    39   ar
    49    20    15   ar
    50    27    28    1
    51    23    24    1
    52    46    47    1
@<TRIPOS>MOLECULE
*****
 47 52 0 0 0
SMALL
GASTEIGER

@<TRIPOS>ATOM
      1 C         -62.5809  -40.7479  -20.7753 C.ar    1  UNL1        0.0702
      2 C         -61.4646  -41.2846  -20.1234 C.ar    1  UNL1        0.0191
      3 C         -60.7364  -42.3204  -20.7102 C.ar    1  UNL1        0.0356
      4 C         -61.1418  -42.8374  -21.9528 C.ar    1  UNL1        0.1318
      5 N         -62.2442  -42.3120  -22.5578 N.ar    1  UNL1       -0.2279
      6 C         -62.9656  -41.3002  -22.0072 C.ar    1  UNL1        0.1149
      7 N         -60.4147  -43.9074  -22.5953 N.pl3   1  UNL1       -0.2932
      8 C         -61.0709  -44.7703  -23.5930 C.3     1  UNL1        0.0923
      9 C         -60.0437  -45.4092  -24.5358 C.3     1  UNL1        0.0252
     10 C         -58.9394  -46.1862  -23.7758 C.3     1  UNL1        0.0472
     11 C         -58.6150  -45.5702  -22.3895 C.3     1  UNL1        0.0252
     12 C         -58.9825  -44.0865  -22.3111 C.3     1  UNL1        0.0923
     13 C         -59.3056  -47.6739  -23.6424 C.3     1  UNL1        0.2054
     14 O         -60.3072  -48.0151  -24.5991 O.3     1  UNL1       -0.4755
     15 C         -61.3343  -48.9437  -24.3763 C.ar    1  UNL1        0.1388
     16 C         -62.6791  -48.6688  -24.6835 C.ar    1  UNL1        0.0369
     17 C         -63.6632  -49.6299  -24.4456 C.ar    1  UNL1        0.0033
     18 C         -63.3216  -50.8679  -23.8965 C.ar    1  UNL1        0.0066
     19 C         -61.9843  -51.1577  -23.5725 C.ar    1  UNL1        0.0785
     20 C         -60.9975  -50.1871  -23.8273 C.ar    1  UNL1        0.0433
     21 C         -61.6015  -52.4686  -22.9932 C.2     1  UNL1        0.3381
     22 O         -60.8872  -53.2626  -23.6613 O.2     1  UNL1       -0.2451
     23 O         -61.9986  -52.8499  -21.7119 O.3     1  UNL1       -0.4771
     24 H         -62.4837  -52.2245  -21.0821 H       1  UNL1        0.2954
     25 C         -63.1589  -38.2992  -20.4361 C.2     1  UNL1        0.2839
     26 O         -62.1481  -37.9054  -21.0778 O.2     1  UNL1       -0.2665
     27 N         -63.3340  -39.6959  -20.1478 N.am    1  UNL1       -0.2766
     28 H         -63.9879  -39.9589  -19.3759 H       1  UNL1        0.1553
     29 C         -66.3467  -38.4664  -20.7254 C.3     1  UNL1        0.0345
     30 C         -65.5383  -37.3896  -20.0662 C.ar    1  UNL1        0.0202
     31 C         -64.1461  -37.3200  -19.9427 C.ar    1  UNL1        0.1946
     32 O         -63.8041  -36.2196  -19.2965 O.2     1  UNL1       -0.4492
     33 C         -64.9026  -35.5715  -18.9950 C.ar    1  UNL1        0.1452
     34 C         -65.0101  -34.3642  -18.3137 C.ar    1  UNL1        0.0375
     35 C         -66.2967  -33.8428  -18.0935 C.ar    1  UNL1        0.0031
     36 C         -67.4508  -34.5319  -18.5550 C.ar    1  UNL1        0.0002
     37 C         -67.2972  -35.7582  -19.2450 C.ar    1  UNL1        0.0028
     38 C         -66.0051  -36.2464  -19.4462 C.ar    1  UNL1        0.0337
     39 C         -68.8049  -33.9712  -18.3159 C.ar    1  UNL1       -0.0002
     40 C         -69.8106  -34.0930  -19.2917 C.ar    1  UNL1       -0.0000
     41 C         -71.0863  -33.5726  -19.0621 C.ar    1  UNL1       -0.0002
     42 C         -71.3739  -32.9216  -17.8610 C.ar    1  UNL1       -0.0019
     43 C         -70.3805  -32.7754  -16.8819 C.ar    1  UNL1        0.0070
     44 C         -69.1032  -33.3136  -17.1077 C.ar    1  UNL1       -0.0019
     45 C         -70.7007  -32.1121  -15.5735 C.3     1  UNL1        0.1636
     46 O         -72.0818  -32.1666  -15.3530 O.3     1  UNL1       -0.3772
     47 H         -72.2391  -31.7195  -14.4811 H       1  UNL1        0.2109
@<TRIPOS>BOND
     1    29    30    1
     2    30    31   ar
     3    31    25    1
     4    25    26    2
     5    25    27   am
     6    27     1    1
     7     1     2   ar
     8     2     3   ar
     9     3     4   ar
    10     4     7    1
    11     7     8    1
    12     8     9    1
    13     9    10    1
    14    10    13    1
    15    13    14    1
    16    14    15    1
    17    15    16   ar
    18    16    17   ar
    19    17    18   ar
    20    18    19   ar
    21    19    21    1
    22    21    22    2
    23    21    23    1
    24    19    20   ar
    25    10    11    1
    26    11    12    1
    27     4     5   ar
    28     5     6   ar
    29    31    32   ar
    30    32    33   ar
    31    33    34   ar
    32    34    35   ar
    33    35    36   ar
    34    36    39    1
    35    39    40   ar
    36    40    41   ar
    37    41    42   ar
    38    42    43   ar
    39    43    45    1
    40    45    46    1
    41    43    44   ar
    42    36    37   ar
    43    37    38   ar
    44    38    30   ar
    45     6     1   ar
    46    38    33   ar
    47    12     7    1
    48    44    39   ar
    49    20    15   ar
    50    27    28    1
    51    23    24    1
    52    46    47    1
