@<TRIPOS>MOLECULE
*****
 49 54 0 0 0
SMALL
GASTEIGER

@<TRIPOS>ATOM
      1 C          13.3798   83.0447   24.9356 C.2     1  UNL1        0.2483
      2 O          13.9288   83.5581   25.9489 O.2     1  UNL1       -0.2701
      3 N          13.4546   83.7152   23.6677 N.am    1  UNL1       -0.2945
      4 H          12.7802   83.4324   22.9250 H       1  UNL1        0.1501
      5 C          11.1938   79.3616   25.3482 C.ar    1  UNL1        0.0502
      6 C          10.5435   80.5987   25.4663 C.ar    1  UNL1        0.0148
      7 C          11.2617   81.7905   25.3388 C.ar    1  UNL1        0.0080
      8 C          12.6416   81.7689   25.0756 C.ar    1  UNL1        0.0808
      9 C          13.2971   80.5260   24.9687 C.ar    1  UNL1        0.1457
     10 F          14.6397   80.4546   24.7820 F       1  UNL1       -0.2040
     11 C          12.5746   79.3359   25.0988 C.ar    1  UNL1        0.0443
     12 N           8.5219   76.4150   26.5486 N.pl3   1  UNL1       -0.3040
     13 C           8.0940   77.5205   25.6736 C.3     1  UNL1        0.1122
     14 C           9.2095   77.9349   24.7132 C.3     1  UNL1        0.1122
     15 N          10.4521   78.1336   25.4675 N.pl3   1  UNL1       -0.3040
     16 C          10.8964   77.1096   26.4248 C.3     1  UNL1        0.1122
     17 C           9.9126   75.9335   26.5022 C.3     1  UNL1        0.1122
     18 C           5.5913   74.2748   28.8145 C.ar    1  UNL1       -0.0118
     19 C           5.7036   74.0975   27.4216 C.ar    1  UNL1       -0.0022
     20 C           6.6595   74.7963   26.6832 C.ar    1  UNL1        0.0142
     21 C           7.5304   75.6962   27.3139 C.ar    1  UNL1        0.0488
     22 C           7.4288   75.8765   28.7028 C.ar    1  UNL1        0.0256
     23 C           6.4738   75.1795   29.4531 C.ar    1  UNL1        0.0549
     24 CL          6.4360   75.4778   31.1894 Cl      1  UNL1       -0.0825
     25 C           3.3809   74.4075   30.0220 C.3     1  UNL1        0.0047
     26 C           4.5351   73.4949   29.5887 C.3     1  UNL1        0.0232
     27 C           4.0185   72.3040   28.7716 C.3     1  UNL1        0.0047
     28 C          14.3582   84.8490   23.4337 C.3     1  UNL1        0.1535
     29 C          14.7582   84.9301   21.9795 C.2     1  UNL1        0.2443
     30 O          15.7833   84.3150   21.5761 O.2     1  UNL1       -0.2730
     31 N          13.9645   85.7043   21.0654 N.am    1  UNL1       -0.2825
     32 H          13.2613   86.3617   21.4726 H       1  UNL1        0.1549
     33 C          14.1566   85.7279   19.6399 C.ar    1  UNL1        0.0535
     34 C          13.9546   86.9256   18.9401 C.ar    1  UNL1        0.0353
     35 C          14.1153   86.9528   17.5527 C.ar    1  UNL1        0.1002
     36 N          14.4496   85.8187   16.8827 N.ar    1  UNL1       -0.2422
     37 C          14.6329   84.6379   17.5301 C.ar    1  UNL1        0.1002
     38 C          14.4833   84.5669   18.9175 C.ar    1  UNL1        0.0353
     39 C          13.7368   86.1779   23.9174 C.3     1  UNL1        0.0569
     40 C          14.6023   86.9198   24.9027 C.ar    1  UNL1       -0.0017
     41 C          14.3042   87.1640   26.2406 C.ar    1  UNL1        0.0681
     42 N          15.3199   87.8248   26.8401 N.ar    1  UNL1       -0.3523
     43 C          16.2557   88.0055   25.8927 C.ar    1  UNL1        0.0563
     44 C          17.4871   88.6438   26.0354 C.ar    1  UNL1        0.0170
     45 C          18.3179   88.7310   24.9039 C.ar    1  UNL1        0.0015
     46 C          17.9020   88.1897   23.6677 C.ar    1  UNL1        0.0001
     47 C          16.6530   87.5533   23.5520 C.ar    1  UNL1        0.0012
     48 C          15.8539   87.4715   24.6942 C.ar    1  UNL1        0.0131
     49 H          15.3630   88.1324   27.8370 H       1  UNL1        0.1660
@<TRIPOS>BOND
     1    25    26    1
     2    26    27    1
     3    26    18    1
     4    18    19   ar
     5    19    20   ar
     6    20    21   ar
     7    21    12    1
     8    12    13    1
     9    13    14    1
    10    14    15    1
    11    15     5    1
    12     5     6   ar
    13     6     7   ar
    14     7     8   ar
    15     8     1    1
    16     1     2    2
    17     1     3   am
    18     3    28    1
    19    28    39    1
    20    39    40    1
    21    40    41   ar
    22    41    42   ar
    23    42    43   ar
    24    43    44   ar
    25    44    45   ar
    26    45    46   ar
    27    46    47   ar
    28    47    48   ar
    29    28    29    1
    30    29    30    2
    31    29    31   am
    32    31    33    1
    33    33    34   ar
    34    34    35   ar
    35    35    36   ar
    36    36    37   ar
    37    37    38   ar
    38     8     9   ar
    39     9    10    1
    40     9    11   ar
    41    15    16    1
    42    16    17    1
    43    21    22   ar
    44    22    23   ar
    45    23    24    1
    46    23    18   ar
    47    17    12    1
    48    11     5   ar
    49    48    40   ar
    50    38    33   ar
    51    48    43   ar
    52     3     4    1
    53    42    49    1
    54    31    32    1
@<TRIPOS>MOLECULE
*****
 49 54 0 0 0
SMALL
GASTEIGER

@<TRIPOS>ATOM
      1 C          13.3712   82.8723   24.9122 C.2     1  UNL1        0.2483
      2 O          13.9046   83.4139   25.9190 O.2     1  UNL1       -0.2701
      3 N          13.4675   83.5061   23.6270 N.am    1  UNL1       -0.2945
      4 H          12.8046   83.2029   22.8818 H       1  UNL1        0.1501
      5 C          11.1734   79.2050   25.3963 C.ar    1  UNL1        0.0502
      6 C          10.5307   80.4465   25.5088 C.ar    1  UNL1        0.0148
      7 C          11.2527   81.6332   25.3581 C.ar    1  UNL1        0.0080
      8 C          12.6289   81.6018   25.0766 C.ar    1  UNL1        0.0808
      9 C          13.2770   80.3545   24.9752 C.ar    1  UNL1        0.1457
     10 F          14.6166   80.2744   24.7715 F       1  UNL1       -0.2040
     11 C          12.5506   79.1696   25.1288 C.ar    1  UNL1        0.0443
     12 N           8.4681   76.3031   26.6302 N.pl3   1  UNL1       -0.3040
     13 C           8.0643   77.3770   25.7059 C.3     1  UNL1        0.1122
     14 C           9.2047   77.7570   24.7608 C.3     1  UNL1        0.1122
     15 N          10.4276   77.9820   25.5396 N.pl3   1  UNL1       -0.3040
     16 C          10.8458   76.9925   26.5437 C.3     1  UNL1        0.1122
     17 C           9.8590   75.8200   26.6371 C.3     1  UNL1        0.1122
     18 C           5.4773   74.2448   28.8933 C.ar    1  UNL1       -0.0118
     19 C           5.6162   74.0290   27.5083 C.ar    1  UNL1       -0.0022
     20 C           6.5917   74.7011   26.7708 C.ar    1  UNL1        0.0142
     21 C           7.4563   75.6119   27.3944 C.ar    1  UNL1        0.0488
     22 C           7.3282   75.8305   28.7756 C.ar    1  UNL1        0.0256
     23 C           6.3533   75.1606   29.5250 C.ar    1  UNL1        0.0549
     24 CL          6.2829   75.5062   31.2515 Cl      1  UNL1       -0.0825
     25 C           3.2166   74.4104   29.9993 C.3     1  UNL1        0.0047
     26 C           4.4002   73.4932   29.6668 C.3     1  UNL1        0.0232
     27 C           3.9344   72.2499   28.8985 C.3     1  UNL1        0.0047
     28 C          14.3765   84.6318   23.3752 C.3     1  UNL1        0.1535
     29 C          14.7538   84.7054   21.9146 C.2     1  UNL1        0.2443
     30 O          15.6172   83.9115   21.4495 O.2     1  UNL1       -0.2730
     31 N          14.1226   85.6771   21.0647 N.am    1  UNL1       -0.2825
     32 H          13.5828   86.4445   21.5254 H       1  UNL1        0.1549
     33 C          14.2853   85.7366   19.6366 C.ar    1  UNL1        0.0535
     34 C          13.9595   86.9189   18.9576 C.ar    1  UNL1        0.0353
     35 C          14.0913   86.9786   17.5682 C.ar    1  UNL1        0.1002
     36 N          14.5177   85.8894   16.8764 N.ar    1  UNL1       -0.2422
     37 C          14.8225   84.7228   17.5035 C.ar    1  UNL1        0.1002
     38 C          14.7057   84.6206   18.8921 C.ar    1  UNL1        0.0353
     39 C          13.7737   85.9672   23.8648 C.3     1  UNL1        0.0569
     40 C          14.7957   86.9058   24.4517 C.ar    1  UNL1       -0.0017
     41 C          15.7816   87.5939   23.7496 C.ar    1  UNL1        0.0681
     42 N          16.5009   88.3761   24.5853 N.ar    1  UNL1       -0.3523
     43 C          15.9826   88.1856   25.8105 C.ar    1  UNL1        0.0563
     44 C          16.3979   88.7775   27.0025 C.ar    1  UNL1        0.0170
     45 C          15.7170   88.4282   28.1827 C.ar    1  UNL1        0.0015
     46 C          14.6522   87.5014   28.1464 C.ar    1  UNL1        0.0001
     47 C          14.2562   86.9175   26.9296 C.ar    1  UNL1        0.0012
     48 C          14.9425   87.2912   25.7724 C.ar    1  UNL1        0.0131
     49 H          17.2983   88.9988   24.3268 H       1  UNL1        0.1660
@<TRIPOS>BOND
     1    25    26    1
     2    26    27    1
     3    26    18    1
     4    18    19   ar
     5    19    20   ar
     6    20    21   ar
     7    21    12    1
     8    12    13    1
     9    13    14    1
    10    14    15    1
    11    15     5    1
    12     5     6   ar
    13     6     7   ar
    14     7     8   ar
    15     8     1    1
    16     1     2    2
    17     1     3   am
    18     3    28    1
    19    28    39    1
    20    39    40    1
    21    40    41   ar
    22    41    42   ar
    23    42    43   ar
    24    43    44   ar
    25    44    45   ar
    26    45    46   ar
    27    46    47   ar
    28    47    48   ar
    29    28    29    1
    30    29    30    2
    31    29    31   am
    32    31    33    1
    33    33    34   ar
    34    34    35   ar
    35    35    36   ar
    36    36    37   ar
    37    37    38   ar
    38     8     9   ar
    39     9    10    1
    40     9    11   ar
    41    15    16    1
    42    16    17    1
    43    21    22   ar
    44    22    23   ar
    45    23    24    1
    46    23    18   ar
    47    17    12    1
    48    11     5   ar
    49    48    40   ar
    50    38    33   ar
    51    48    43   ar
    52     3     4    1
    53    42    49    1
    54    31    32    1
@<TRIPOS>MOLECULE
*****
 49 54 0 0 0
SMALL
GASTEIGER

@<TRIPOS>ATOM
      1 C          13.4702   83.2003   24.9202 C.2     1  UNL1        0.2483
      2 O          14.0870   83.6042   25.9439 O.2     1  UNL1       -0.2701
      3 N          13.5053   83.9785   23.7136 N.am    1  UNL1       -0.2945
      4 H          12.7849   83.7840   22.9856 H       1  UNL1        0.1501
      5 C          11.1773   79.5646   25.1154 C.ar    1  UNL1        0.0502
      6 C          10.5432   80.8152   25.1504 C.ar    1  UNL1        0.0148
      7 C          11.2952   81.9915   25.0945 C.ar    1  UNL1        0.0080
      8 C          12.6952   81.9405   24.9869 C.ar    1  UNL1        0.0808
      9 C          13.3330   80.6841   24.9636 C.ar    1  UNL1        0.1457
     10 F          14.6863   80.5849   24.9285 F       1  UNL1       -0.2040
     11 C          12.5765   79.5097   25.0218 C.ar    1  UNL1        0.0443
     12 N           8.5571   76.5446   26.2451 N.pl3   1  UNL1       -0.3040
     13 C           8.0673   77.7780   25.6053 C.3     1  UNL1        0.1122
     14 C           9.0614   78.3002   24.5673 C.3     1  UNL1        0.1122
     15 N          10.4021   78.3524   25.1608 N.pl3   1  UNL1       -0.3040
     16 C          10.9231   77.1870   25.8906 C.3     1  UNL1        0.1122
     17 C           9.9050   76.0386   25.9364 C.3     1  UNL1        0.1122
     18 C           5.8578   74.1719   28.5662 C.ar    1  UNL1       -0.0118
     19 C           5.4986   74.6374   27.2862 C.ar    1  UNL1       -0.0022
     20 C           6.3794   75.4117   26.5300 C.ar    1  UNL1        0.0142
     21 C           7.6453   75.7470   27.0311 C.ar    1  UNL1        0.0488
     22 C           8.0140   75.2840   28.3045 C.ar    1  UNL1        0.0256
     23 C           7.1380   74.5057   29.0711 C.ar    1  UNL1        0.0549
     24 CL          7.7036   73.9741   30.6531 Cl      1  UNL1       -0.0825
     25 C           3.7757   74.2031   29.9893 C.3     1  UNL1        0.0047
     26 C           4.8699   73.3287   29.3640 C.3     1  UNL1        0.0232
     27 C           4.2604   72.2218   28.4945 C.3     1  UNL1        0.0047
     28 C          14.4356   85.1002   23.5320 C.3     1  UNL1        0.1535
     29 C          14.9784   85.1296   22.1228 C.2     1  UNL1        0.2443
     30 O          16.2204   85.2425   21.9317 O.2     1  UNL1       -0.2730
     31 N          14.0751   85.0240   21.0101 N.am    1  UNL1       -0.2825
     32 H          13.0551   85.1480   21.2019 H       1  UNL1        0.1549
     33 C          14.4866   84.8840   19.6389 C.ar    1  UNL1        0.0535
     34 C          13.9188   85.7157   18.6637 C.ar    1  UNL1        0.0353
     35 C          14.2943   85.5712   17.3260 C.ar    1  UNL1        0.1002
     36 N          15.1937   84.6169   16.9696 N.ar    1  UNL1       -0.2422
     37 C          15.7470   83.7822   17.8885 C.ar    1  UNL1        0.1002
     38 C          15.4001   83.8936   19.2374 C.ar    1  UNL1        0.0353
     39 C          13.7788   86.4473   23.9062 C.3     1  UNL1        0.0569
     40 C          14.0298   87.5367   22.8961 C.ar    1  UNL1       -0.0017
     41 C          15.1347   88.3829   22.8543 C.ar    1  UNL1        0.0681
     42 N          15.0537   89.2170   21.7935 N.ar    1  UNL1       -0.3523
     43 C          13.9054   88.9100   21.1665 C.ar    1  UNL1        0.0563
     44 C          13.3873   89.5058   20.0174 C.ar    1  UNL1        0.0170
     45 C          12.1555   89.0335   19.5296 C.ar    1  UNL1        0.0015
     46 C          11.4740   87.9921   20.1968 C.ar    1  UNL1        0.0001
     47 C          12.0190   87.4111   21.3559 C.ar    1  UNL1        0.0012
     48 C          13.2484   87.8922   21.8110 C.ar    1  UNL1        0.0131
     49 H          15.7447   89.9511   21.5218 H       1  UNL1        0.1660
@<TRIPOS>BOND
     1    25    26    1
     2    26    27    1
     3    26    18    1
     4    18    19   ar
     5    19    20   ar
     6    20    21   ar
     7    21    12    1
     8    12    13    1
     9    13    14    1
    10    14    15    1
    11    15     5    1
    12     5     6   ar
    13     6     7   ar
    14     7     8   ar
    15     8     1    1
    16     1     2    2
    17     1     3   am
    18     3    28    1
    19    28    39    1
    20    39    40    1
    21    40    41   ar
    22    41    42   ar
    23    42    43   ar
    24    43    44   ar
    25    44    45   ar
    26    45    46   ar
    27    46    47   ar
    28    47    48   ar
    29    28    29    1
    30    29    30    2
    31    29    31   am
    32    31    33    1
    33    33    34   ar
    34    34    35   ar
    35    35    36   ar
    36    36    37   ar
    37    37    38   ar
    38     8     9   ar
    39     9    10    1
    40     9    11   ar
    41    15    16    1
    42    16    17    1
    43    21    22   ar
    44    22    23   ar
    45    23    24    1
    46    23    18   ar
    47    17    12    1
    48    11     5   ar
    49    48    40   ar
    50    38    33   ar
    51    48    43   ar
    52     3     4    1
    53    42    49    1
    54    31    32    1
@<TRIPOS>MOLECULE
*****
 49 54 0 0 0
SMALL
GASTEIGER

@<TRIPOS>ATOM
      1 C          13.5578   83.2931   24.9416 C.2     1  UNL1        0.2483
      2 O          14.2384   83.5596   25.9699 O.2     1  UNL1       -0.2701
      3 N          13.5848   84.1866   23.8175 N.am    1  UNL1       -0.2945
      4 H          12.8248   84.1034   23.1089 H       1  UNL1        0.1501
      5 C          11.0782   79.7772   24.8789 C.ar    1  UNL1        0.0502
      6 C          10.5064   81.0576   24.9080 C.ar    1  UNL1        0.0148
      7 C          11.3183   82.1944   24.9361 C.ar    1  UNL1        0.0080
      8 C          12.7180   82.0738   24.9203 C.ar    1  UNL1        0.0808
      9 C          13.2925   80.7871   24.9030 C.ar    1  UNL1        0.1457
     10 F          14.6384   80.6188   24.9549 F       1  UNL1       -0.2040
     11 C          12.4760   79.6523   24.8768 C.ar    1  UNL1        0.0443
     12 N           8.1675   76.9864   23.8781 N.pl3   1  UNL1       -0.3040
     13 C           9.4111   77.1034   23.0968 C.3     1  UNL1        0.1122
     14 C          10.5989   77.4627   23.9903 C.3     1  UNL1        0.1122
     15 N          10.2421   78.6060   24.8377 N.pl3   1  UNL1       -0.3040
     16 C           8.9727   78.5963   25.5799 C.3     1  UNL1        0.1122
     17 C           8.1633   77.3193   25.3123 C.3     1  UNL1        0.1122
     18 C           4.7347   75.1676   22.0860 C.ar    1  UNL1       -0.0118
     19 C           6.0262   74.9480   21.5682 C.ar    1  UNL1       -0.0022
     20 C           7.1452   75.5420   22.1530 C.ar    1  UNL1        0.0142
     21 C           7.0076   76.3762   23.2716 C.ar    1  UNL1        0.0488
     22 C           5.7246   76.5977   23.7975 C.ar    1  UNL1        0.0256
     23 C           4.5953   76.0058   23.2188 C.ar    1  UNL1        0.0549
     24 CL          3.0341   76.3474   23.9615 Cl      1  UNL1       -0.0825
     25 C           2.7538   75.5041   20.5615 C.3     1  UNL1        0.0047
     26 C           3.5352   74.5025   21.4212 C.3     1  UNL1        0.0232
     27 C           3.9670   73.2856   20.5932 C.3     1  UNL1        0.0047
     28 C          14.5670   85.2724   23.7037 C.3     1  UNL1        0.1535
     29 C          15.0149   85.4482   22.2720 C.2     1  UNL1        0.2443
     30 O          16.2405   85.5976   22.0125 O.2     1  UNL1       -0.2730
     31 N          14.0407   85.4393   21.2156 N.am    1  UNL1       -0.2825
     32 H          13.0347   85.5288   21.4848 H       1  UNL1        0.1549
     33 C          14.3616   85.4409   19.8133 C.ar    1  UNL1        0.0535
     34 C          13.9194   86.5008   19.0094 C.ar    1  UNL1        0.0353
     35 C          14.2054   86.4993   17.6422 C.ar    1  UNL1        0.1002
     36 N          14.8950   85.4661   17.0910 N.ar    1  UNL1       -0.2422
     37 C          15.3200   84.4146   17.8399 C.ar    1  UNL1        0.1002
     38 C          15.0563   84.3771   19.2115 C.ar    1  UNL1        0.0353
     39 C          14.0194   86.5949   24.2845 C.3     1  UNL1        0.0569
     40 C          15.0270   87.3467   25.1149 C.ar    1  UNL1       -0.0017
     41 C          16.2655   87.8144   24.6836 C.ar    1  UNL1        0.0681
     42 N          16.8951   88.4776   25.6792 N.ar    1  UNL1       -0.3523
     43 C          16.0689   88.4297   26.7380 C.ar    1  UNL1        0.0563
     44 C          16.2868   88.9751   28.0025 C.ar    1  UNL1        0.0170
     45 C          15.2868   88.8000   28.9759 C.ar    1  UNL1        0.0015
     46 C          14.1072   88.0869   28.6691 C.ar    1  UNL1        0.0001
     47 C          13.9150   87.5450   27.3854 C.ar    1  UNL1        0.0012
     48 C          14.9193   87.7438   26.4359 C.ar    1  UNL1        0.0131
     49 H          17.8342   88.9316   25.6312 H       1  UNL1        0.1660
@<TRIPOS>BOND
     1    25    26    1
     2    26    27    1
     3    26    18    1
     4    18    19   ar
     5    19    20   ar
     6    20    21   ar
     7    21    12    1
     8    12    13    1
     9    13    14    1
    10    14    15    1
    11    15     5    1
    12     5     6   ar
    13     6     7   ar
    14     7     8   ar
    15     8     1    1
    16     1     2    2
    17     1     3   am
    18     3    28    1
    19    28    39    1
    20    39    40    1
    21    40    41   ar
    22    41    42   ar
    23    42    43   ar
    24    43    44   ar
    25    44    45   ar
    26    45    46   ar
    27    46    47   ar
    28    47    48   ar
    29    28    29    1
    30    29    30    2
    31    29    31   am
    32    31    33    1
    33    33    34   ar
    34    34    35   ar
    35    35    36   ar
    36    36    37   ar
    37    37    38   ar
    38     8     9   ar
    39     9    10    1
    40     9    11   ar
    41    15    16    1
    42    16    17    1
    43    21    22   ar
    44    22    23   ar
    45    23    24    1
    46    23    18   ar
    47    17    12    1
    48    11     5   ar
    49    48    40   ar
    50    38    33   ar
    51    48    43   ar
    52     3     4    1
    53    42    49    1
    54    31    32    1
@<TRIPOS>MOLECULE
*****
 49 54 0 0 0
SMALL
GASTEIGER

@<TRIPOS>ATOM
      1 C           9.6704   76.1658   26.0209 C.2     1  UNL1        0.2483
      2 O          10.8261   75.6612   25.9828 O.2     1  UNL1       -0.2701
      3 N           9.2605   76.9225   27.1708 N.am    1  UNL1       -0.2945
      4 H           8.2407   77.0895   27.3075 H       1  UNL1        0.1501
      5 C           7.0013   75.5559   22.7016 C.ar    1  UNL1        0.0502
      6 C           8.1239   76.3873   22.5758 C.ar    1  UNL1        0.0148
      7 C           8.9817   76.5866   23.6606 C.ar    1  UNL1        0.0080
      8 C           8.7424   75.9464   24.8882 C.ar    1  UNL1        0.0808
      9 C           7.6080   75.1205   25.0180 C.ar    1  UNL1        0.1457
     10 F           7.2984   74.5348   26.2028 F       1  UNL1       -0.2040
     11 C           6.7514   74.9255   23.9302 C.ar    1  UNL1        0.0443
     12 N           3.6603   74.9235   20.3141 N.pl3   1  UNL1       -0.3040
     13 C           3.9949   76.2681   20.8152 C.3     1  UNL1        0.1122
     14 C           5.5082   76.4762   20.8850 C.3     1  UNL1        0.1122
     15 N           6.1240   75.3407   21.5807 N.pl3   1  UNL1       -0.3040
     16 C           5.7704   73.9675   21.1915 C.3     1  UNL1        0.1122
     17 C           4.7295   73.9427   20.0631 C.3     1  UNL1        0.1122
     18 C          -0.3513   74.0821   19.0885 C.ar    1  UNL1       -0.0118
     19 C           0.2607   75.3116   18.7755 C.ar    1  UNL1       -0.0022
     20 C           1.5690   75.5855   19.1760 C.ar    1  UNL1        0.0142
     21 C           2.3049   74.6400   19.9044 C.ar    1  UNL1        0.0488
     22 C           1.7048   73.4097   20.2175 C.ar    1  UNL1        0.0256
     23 C           0.3929   73.1246   19.8196 C.ar    1  UNL1        0.0549
     24 CL         -0.2609   71.5490   20.2616 Cl      1  UNL1       -0.0825
     25 C          -2.7376   74.8952   19.1631 C.3     1  UNL1        0.0047
     26 C          -1.7822   73.8177   18.6349 C.3     1  UNL1        0.0232
     27 C          -1.8661   73.7084   17.1072 C.3     1  UNL1        0.0047
     28 C          10.2114   77.3556   28.2028 C.3     1  UNL1        0.1535
     29 C           9.8992   78.7572   28.6711 C.2     1  UNL1        0.2443
     30 O           9.3061   79.5589   27.8982 O.2     1  UNL1       -0.2730
     31 N          10.2767   79.1652   29.9963 N.am    1  UNL1       -0.2825
     32 H          10.9457   78.5547   30.5180 H       1  UNL1        0.1549
     33 C           9.8962   80.4130   30.6025 C.ar    1  UNL1        0.0535
     34 C          10.3366   81.6154   30.0322 C.ar    1  UNL1        0.0353
     35 C           9.9923   82.8314   30.6273 C.ar    1  UNL1        0.1002
     36 N           9.2475   82.8475   31.7639 N.ar    1  UNL1       -0.2422
     37 C           8.8221   81.6984   32.3520 C.ar    1  UNL1        0.1002
     38 C           9.1432   80.4607   31.7888 C.ar    1  UNL1        0.0353
     39 C          10.2507   76.3659   29.3881 C.3     1  UNL1        0.0569
     40 C           8.9770   75.5781   29.5527 C.ar    1  UNL1       -0.0017
     41 C           8.7833   74.2434   29.2068 C.ar    1  UNL1        0.0681
     42 N           7.5306   73.8477   29.5257 N.ar    1  UNL1       -0.3523
     43 C           6.9282   74.9208   30.0656 C.ar    1  UNL1        0.0563
     44 C           5.6216   75.0014   30.5454 C.ar    1  UNL1        0.0170
     45 C           5.1866   76.2335   31.0658 C.ar    1  UNL1        0.0015
     46 C           6.0553   77.3466   31.0896 C.ar    1  UNL1        0.0001
     47 C           7.3679   77.2373   30.5962 C.ar    1  UNL1        0.0012
     48 C           7.7763   75.9992   30.0959 C.ar    1  UNL1        0.0131
     49 H           7.1183   72.8997   29.3784 H       1  UNL1        0.1660
@<TRIPOS>BOND
     1    25    26    1
     2    26    27    1
     3    26    18    1
     4    18    19   ar
     5    19    20   ar
     6    20    21   ar
     7    21    12    1
     8    12    13    1
     9    13    14    1
    10    14    15    1
    11    15     5    1
    12     5     6   ar
    13     6     7   ar
    14     7     8   ar
    15     8     1    1
    16     1     2    2
    17     1     3   am
    18     3    28    1
    19    28    39    1
    20    39    40    1
    21    40    41   ar
    22    41    42   ar
    23    42    43   ar
    24    43    44   ar
    25    44    45   ar
    26    45    46   ar
    27    46    47   ar
    28    47    48   ar
    29    28    29    1
    30    29    30    2
    31    29    31   am
    32    31    33    1
    33    33    34   ar
    34    34    35   ar
    35    35    36   ar
    36    36    37   ar
    37    37    38   ar
    38     8     9   ar
    39     9    10    1
    40     9    11   ar
    41    15    16    1
    42    16    17    1
    43    21    22   ar
    44    22    23   ar
    45    23    24    1
    46    23    18   ar
    47    17    12    1
    48    11     5   ar
    49    48    40   ar
    50    38    33   ar
    51    48    43   ar
    52     3     4    1
    53    42    49    1
    54    31    32    1
@<TRIPOS>MOLECULE
*****
 49 54 0 0 0
SMALL
GASTEIGER

@<TRIPOS>ATOM
      1 C           8.4735   75.7165   24.1815 C.2     1  UNL1        0.2483
      2 O           8.3491   74.7980   25.0374 O.2     1  UNL1       -0.2701
      3 N           7.7724   75.6257   22.9314 N.am    1  UNL1       -0.2945
      4 H           8.0939   76.2308   22.1458 H       1  UNL1        0.1501
      5 C          11.0248   79.0800   25.0133 C.ar    1  UNL1        0.0502
      6 C           9.6607   79.2639   24.7439 C.ar    1  UNL1        0.0148
      7 C           8.8402   78.1673   24.4669 C.ar    1  UNL1        0.0080
      8 C           9.3643   76.8637   24.4690 C.ar    1  UNL1        0.0808
      9 C          10.7372   76.6801   24.7281 C.ar    1  UNL1        0.1457
     10 F          11.3025   75.4472   24.6748 F       1  UNL1       -0.2040
     11 C          11.5548   77.7806   25.0028 C.ar    1  UNL1        0.0443
     12 N          13.1814   82.6228   24.7693 N.pl3   1  UNL1       -0.3040
     13 C          11.7280   82.6310   25.0106 C.3     1  UNL1        0.1122
     14 C          11.2987   81.4401   25.8684 C.3     1  UNL1        0.1122
     15 N          11.8680   80.2083   25.3105 N.pl3   1  UNL1       -0.3040
     16 C          13.2960   80.1560   24.9638 C.3     1  UNL1        0.1122
     17 C          14.0005   81.4924   25.2376 C.3     1  UNL1        0.1122
     18 C          15.0487   86.1272   23.1768 C.ar    1  UNL1       -0.0118
     19 C          15.0413   84.9172   22.4557 C.ar    1  UNL1       -0.0022
     20 C          14.4324   83.7745   22.9760 C.ar    1  UNL1        0.0142
     21 C          13.8149   83.8053   24.2346 C.ar    1  UNL1        0.0488
     22 C          13.8136   85.0081   24.9591 C.ar    1  UNL1        0.0256
     23 C          14.4209   86.1606   24.4456 C.ar    1  UNL1        0.0549
     24 CL         14.3572   87.6168   25.4360 Cl      1  UNL1       -0.0825
     25 C          17.0875   87.6111   23.2313 C.3     1  UNL1        0.0047
     26 C          15.7237   87.3553   22.5773 C.3     1  UNL1        0.0232
     27 C          15.8590   87.2233   21.0552 C.3     1  UNL1        0.0047
     28 C           6.7125   74.6362   22.6981 C.3     1  UNL1        0.1535
     29 C           5.3883   75.3141   22.4369 C.2     1  UNL1        0.2443
     30 O           4.4629   74.6803   21.8590 O.2     1  UNL1       -0.2730
     31 N           5.1914   76.6752   22.8533 N.am    1  UNL1       -0.2825
     32 H           6.0375   77.2240   23.1281 H       1  UNL1        0.1549
     33 C           3.9320   77.3682   22.7993 C.ar    1  UNL1        0.0535
     34 C           3.6410   78.1776   21.6923 C.ar    1  UNL1        0.0353
     35 C           2.4309   78.8735   21.6419 C.ar    1  UNL1        0.1002
     36 N           1.5469   78.7792   22.6698 N.ar    1  UNL1       -0.2422
     37 C           1.8083   78.0188   23.7654 C.ar    1  UNL1        0.1002
     38 C           3.0063   77.3054   23.8556 C.ar    1  UNL1        0.0353
     39 C           7.0819   73.6703   21.5505 C.3     1  UNL1        0.0569
     40 C           8.2924   72.8236   21.8471 C.ar    1  UNL1       -0.0017
     41 C           8.2917   71.4687   22.1675 C.ar    1  UNL1        0.0681
     42 N           9.5559   71.0201   22.3352 N.ar    1  UNL1       -0.3523
     43 C          10.3564   72.0797   22.1290 C.ar    1  UNL1        0.0563
     44 C          11.7487   72.1096   22.1953 C.ar    1  UNL1        0.0170
     45 C          12.3928   73.3359   21.9511 C.ar    1  UNL1        0.0015
     46 C          11.6394   74.4929   21.6551 C.ar    1  UNL1        0.0001
     47 C          10.2353   74.4342   21.5973 C.ar    1  UNL1        0.0012
     48 C           9.6233   73.2014   21.8330 C.ar    1  UNL1        0.0131
     49 H           9.8465   70.0470   22.5781 H       1  UNL1        0.1660
@<TRIPOS>BOND
     1    25    26    1
     2    26    27    1
     3    26    18    1
     4    18    19   ar
     5    19    20   ar
     6    20    21   ar
     7    21    12    1
     8    12    13    1
     9    13    14    1
    10    14    15    1
    11    15     5    1
    12     5     6   ar
    13     6     7   ar
    14     7     8   ar
    15     8     1    1
    16     1     2    2
    17     1     3   am
    18     3    28    1
    19    28    39    1
    20    39    40    1
    21    40    41   ar
    22    41    42   ar
    23    42    43   ar
    24    43    44   ar
    25    44    45   ar
    26    45    46   ar
    27    46    47   ar
    28    47    48   ar
    29    28    29    1
    30    29    30    2
    31    29    31   am
    32    31    33    1
    33    33    34   ar
    34    34    35   ar
    35    35    36   ar
    36    36    37   ar
    37    37    38   ar
    38     8     9   ar
    39     9    10    1
    40     9    11   ar
    41    15    16    1
    42    16    17    1
    43    21    22   ar
    44    22    23   ar
    45    23    24    1
    46    23    18   ar
    47    17    12    1
    48    11     5   ar
    49    48    40   ar
    50    38    33   ar
    51    48    43   ar
    52     3     4    1
    53    42    49    1
    54    31    32    1
@<TRIPOS>MOLECULE
*****
 49 54 0 0 0
SMALL
GASTEIGER

@<TRIPOS>ATOM
      1 C           9.0651   75.7305   23.7850 C.2     1  UNL1        0.2483
      2 O           9.1445   74.6992   24.5073 O.2     1  UNL1       -0.2701
      3 N           8.2113   75.7280   22.6302 N.am    1  UNL1       -0.2945
      4 H           8.3650   76.4631   21.9073 H       1  UNL1        0.1501
      5 C          11.3831   79.2157   24.7822 C.ar    1  UNL1        0.0502
      6 C           9.9819   79.2475   24.8336 C.ar    1  UNL1        0.0148
      7 C           9.2358   78.1140   24.5007 C.ar    1  UNL1        0.0080
      8 C           9.8765   76.9215   24.1247 C.ar    1  UNL1        0.0808
      9 C          11.2841   76.8930   24.0616 C.ar    1  UNL1        0.1457
     10 F          11.9452   75.7854   23.6393 F       1  UNL1       -0.2040
     11 C          12.0264   78.0305   24.3938 C.ar    1  UNL1        0.0443
     12 N          13.4038   82.8446   24.6827 N.pl3   1  UNL1       -0.3040
     13 C          11.9367   82.7930   24.8078 C.3     1  UNL1        0.1122
     14 C          11.4901   81.5890   25.6380 C.3     1  UNL1        0.1122
     15 N          12.1525   80.3796   25.1367 N.pl3   1  UNL1       -0.3040
     16 C          13.6046   80.3856   24.9049 C.3     1  UNL1        0.1122
     17 C          14.2291   81.7516   25.2233 C.3     1  UNL1        0.1122
     18 C          15.2445   86.4178   23.2173 C.ar    1  UNL1       -0.0118
     19 C          15.2265   85.2406   22.4439 C.ar    1  UNL1       -0.0022
     20 C          14.6263   84.0755   22.9228 C.ar    1  UNL1        0.0142
     21 C          14.0283   84.0502   24.1908 C.ar    1  UNL1        0.0488
     22 C          14.0376   85.2200   24.9675 C.ar    1  UNL1        0.0256
     23 C          14.6363   86.3947   24.4959 C.ar    1  UNL1        0.0549
     24 CL         14.5872   87.8058   25.5503 Cl      1  UNL1       -0.0825
     25 C          17.2938   87.8865   23.2871 C.3     1  UNL1        0.0047
     26 C          15.9095   87.6719   22.6621 C.3     1  UNL1        0.0232
     27 C          15.9987   87.6183   21.1318 C.3     1  UNL1        0.0047
     28 C           7.2259   74.6665   22.3872 C.3     1  UNL1        0.1535
     29 C           5.9171   74.9764   23.0744 C.2     1  UNL1        0.2443
     30 O           5.3433   74.0866   23.7606 O.2     1  UNL1       -0.2730
     31 N           5.3377   76.2850   22.9445 N.am    1  UNL1       -0.2825
     32 H           5.7253   76.9142   22.2053 H       1  UNL1        0.1549
     33 C           4.1850   76.7403   23.6748 C.ar    1  UNL1        0.0535
     34 C           3.0479   77.1596   22.9703 C.ar    1  UNL1        0.0353
     35 C           1.9324   77.6260   23.6698 C.ar    1  UNL1        0.1002
     36 N           1.9560   77.6886   25.0272 N.ar    1  UNL1       -0.2422
     37 C           3.0502   77.3082   25.7379 C.ar    1  UNL1        0.1002
     38 C           4.1868   76.8345   25.0776 C.ar    1  UNL1        0.0353
     39 C           7.0193   74.4203   20.8763 C.3     1  UNL1        0.0569
     40 C           5.5701   74.4089   20.4643 C.ar    1  UNL1       -0.0017
     41 C           4.6703   73.3619   20.6449 C.ar    1  UNL1        0.0681
     42 N           3.4445   73.7059   20.1904 N.ar    1  UNL1       -0.3523
     43 C           3.5614   74.9590   19.7192 C.ar    1  UNL1        0.0563
     44 C           2.5597   75.7399   19.1440 C.ar    1  UNL1        0.0170
     45 C           2.9025   77.0319   18.7063 C.ar    1  UNL1        0.0015
     46 C           4.2248   77.5071   18.8463 C.ar    1  UNL1        0.0001
     47 C           5.2161   76.6963   19.4281 C.ar    1  UNL1        0.0012
     48 C           4.8448   75.4226   19.8637 C.ar    1  UNL1        0.0131
     49 H           2.5846   73.1137   20.2029 H       1  UNL1        0.1660
@<TRIPOS>BOND
     1    25    26    1
     2    26    27    1
     3    26    18    1
     4    18    19   ar
     5    19    20   ar
     6    20    21   ar
     7    21    12    1
     8    12    13    1
     9    13    14    1
    10    14    15    1
    11    15     5    1
    12     5     6   ar
    13     6     7   ar
    14     7     8   ar
    15     8     1    1
    16     1     2    2
    17     1     3   am
    18     3    28    1
    19    28    39    1
    20    39    40    1
    21    40    41   ar
    22    41    42   ar
    23    42    43   ar
    24    43    44   ar
    25    44    45   ar
    26    45    46   ar
    27    46    47   ar
    28    47    48   ar
    29    28    29    1
    30    29    30    2
    31    29    31   am
    32    31    33    1
    33    33    34   ar
    34    34    35   ar
    35    35    36   ar
    36    36    37   ar
    37    37    38   ar
    38     8     9   ar
    39     9    10    1
    40     9    11   ar
    41    15    16    1
    42    16    17    1
    43    21    22   ar
    44    22    23   ar
    45    23    24    1
    46    23    18   ar
    47    17    12    1
    48    11     5   ar
    49    48    40   ar
    50    38    33   ar
    51    48    43   ar
    52     3     4    1
    53    42    49    1
    54    31    32    1
@<TRIPOS>MOLECULE
*****
 49 54 0 0 0
SMALL
GASTEIGER

@<TRIPOS>ATOM
      1 C           8.2498   75.5489   23.9129 C.2     1  UNL1        0.2483
      2 O           7.8308   74.7766   24.8182 O.2     1  UNL1       -0.2701
      3 N           7.8742   75.3153   22.5465 N.am    1  UNL1       -0.2945
      4 H           8.4361   75.7769   21.7996 H       1  UNL1        0.1501
      5 C          10.8226   78.8410   24.9404 C.ar    1  UNL1        0.0502
      6 C           9.5423   79.0684   24.4148 C.ar    1  UNL1        0.0148
      7 C           8.7156   77.9940   24.0762 C.ar    1  UNL1        0.0080
      8 C           9.1469   76.6711   24.2708 C.ar    1  UNL1        0.0808
      9 C          10.4378   76.4427   24.7878 C.ar    1  UNL1        0.1457
     10 F          10.9238   75.1833   24.9303 F       1  UNL1       -0.2040
     11 C          11.2623   77.5209   25.1234 C.ar    1  UNL1        0.0443
     12 N          12.9524   82.4083   24.9156 N.pl3   1  UNL1       -0.3040
     13 C          11.5081   82.3856   25.2058 C.3     1  UNL1        0.1122
     14 C          11.1144   81.1251   25.9768 C.3     1  UNL1        0.1122
     15 N          11.6701   79.9476   25.3007 N.pl3   1  UNL1       -0.3040
     16 C          13.0856   79.9348   24.9027 C.3     1  UNL1        0.1122
     17 C          13.7926   81.2497   25.2614 C.3     1  UNL1        0.1122
     18 C          14.7672   86.0408   23.5683 C.ar    1  UNL1       -0.0118
     19 C          14.3623   85.8851   24.9085 C.ar    1  UNL1       -0.0022
     20 C          13.7701   84.7001   25.3470 C.ar    1  UNL1        0.0142
     21 C          13.5614   83.6354   24.4587 C.ar    1  UNL1        0.0488
     22 C          13.9655   83.7798   23.1217 C.ar    1  UNL1        0.0256
     23 C          14.5616   84.9642   22.6717 C.ar    1  UNL1        0.0549
     24 CL         15.0342   85.0369   20.9756 Cl      1  UNL1       -0.0825
     25 C          14.7634   88.5497   23.8273 C.3     1  UNL1        0.0047
     26 C          15.4105   87.3495   23.1246 C.3     1  UNL1        0.0232
     27 C          16.9264   87.3266   23.3577 C.3     1  UNL1        0.0047
     28 C           6.8157   74.3669   22.1765 C.3     1  UNL1        0.1535
     29 C           5.6471   75.0822   21.5408 C.2     1  UNL1        0.2443
     30 O           5.3202   76.2315   21.9458 O.2     1  UNL1       -0.2730
     31 N           4.9192   74.4490   20.4759 N.am    1  UNL1       -0.2825
     32 H           5.0815   73.4283   20.3194 H       1  UNL1        0.1549
     33 C           3.8960   75.0919   19.6955 C.ar    1  UNL1        0.0535
     34 C           4.2668   75.9208   18.6274 C.ar    1  UNL1        0.0353
     35 C           3.2814   76.5685   17.8788 C.ar    1  UNL1        0.1002
     36 N           1.9694   76.4089   18.1954 N.ar    1  UNL1       -0.2422
     37 C           1.5790   75.6280   19.2369 C.ar    1  UNL1        0.1002
     38 C           2.5322   74.9612   20.0108 C.ar    1  UNL1        0.0353
     39 C           7.3535   73.2481   21.2571 C.3     1  UNL1        0.0569
     40 C           8.5762   72.5590   21.8050 C.ar    1  UNL1       -0.0017
     41 C           8.6416   71.2521   22.2808 C.ar    1  UNL1        0.0681
     42 N           9.9027   70.9485   22.6618 N.ar    1  UNL1       -0.3523
     43 C          10.6348   72.0527   22.4362 C.ar    1  UNL1        0.0563
     44 C          11.9974   72.2242   22.6771 C.ar    1  UNL1        0.0170
     45 C          12.5668   73.4742   22.3743 C.ar    1  UNL1        0.0015
     46 C          11.7698   74.5147   21.8489 C.ar    1  UNL1        0.0001
     47 C          10.3968   74.3144   21.6183 C.ar    1  UNL1        0.0012
     48 C           9.8608   73.0602   21.9176 C.ar    1  UNL1        0.0131
     49 H          10.2353   70.0396   23.0535 H       1  UNL1        0.1660
@<TRIPOS>BOND
     1    25    26    1
     2    26    27    1
     3    26    18    1
     4    18    19   ar
     5    19    20   ar
     6    20    21   ar
     7    21    12    1
     8    12    13    1
     9    13    14    1
    10    14    15    1
    11    15     5    1
    12     5     6   ar
    13     6     7   ar
    14     7     8   ar
    15     8     1    1
    16     1     2    2
    17     1     3   am
    18     3    28    1
    19    28    39    1
    20    39    40    1
    21    40    41   ar
    22    41    42   ar
    23    42    43   ar
    24    43    44   ar
    25    44    45   ar
    26    45    46   ar
    27    46    47   ar
    28    47    48   ar
    29    28    29    1
    30    29    30    2
    31    29    31   am
    32    31    33    1
    33    33    34   ar
    34    34    35   ar
    35    35    36   ar
    36    36    37   ar
    37    37    38   ar
    38     8     9   ar
    39     9    10    1
    40     9    11   ar
    41    15    16    1
    42    16    17    1
    43    21    22   ar
    44    22    23   ar
    45    23    24    1
    46    23    18   ar
    47    17    12    1
    48    11     5   ar
    49    48    40   ar
    50    38    33   ar
    51    48    43   ar
    52     3     4    1
    53    42    49    1
    54    31    32    1
@<TRIPOS>MOLECULE
*****
 49 54 0 0 0
SMALL
GASTEIGER

@<TRIPOS>ATOM
      1 C           9.9138   76.9174   25.1675 C.2     1  UNL1        0.2483
      2 O          10.9634   76.2546   25.3929 O.2     1  UNL1       -0.2701
      3 N           9.6529   78.1155   25.9152 N.am    1  UNL1       -0.2945
      4 H           8.6792   78.4877   25.9176 H       1  UNL1        0.1501
      5 C           7.1110   75.4705   22.2410 C.ar    1  UNL1        0.0502
      6 C           7.4714   74.6792   23.3415 C.ar    1  UNL1        0.0148
      7 C           8.3882   75.1530   24.2835 C.ar    1  UNL1        0.0080
      8 C           8.9513   76.4334   24.1519 C.ar    1  UNL1        0.0808
      9 C           8.5981   77.2238   23.0399 C.ar    1  UNL1        0.1457
     10 F           9.1663   78.4392   22.8341 F       1  UNL1       -0.2040
     11 C           7.6816   76.7447   22.0987 C.ar    1  UNL1        0.0443
     12 N           3.6048   74.5926   20.1921 N.pl3   1  UNL1       -0.3040
     13 C           4.2326   75.9218   20.0926 C.3     1  UNL1        0.1122
     14 C           5.7578   75.8225   20.1382 C.3     1  UNL1        0.1122
     15 N           6.1573   74.9877   21.2767 N.pl3   1  UNL1       -0.3040
     16 C           5.5101   73.6845   21.4887 C.3     1  UNL1        0.1122
     17 C           4.4355   73.4003   20.4296 C.3     1  UNL1        0.1122
     18 C          -0.5466   74.1667   19.2498 C.ar    1  UNL1       -0.0118
     19 C           0.1365   75.3713   18.9918 C.ar    1  UNL1       -0.0022
     20 C           1.4904   75.5095   19.2999 C.ar    1  UNL1        0.0142
     21 C           2.2025   74.4490   19.8782 C.ar    1  UNL1        0.0488
     22 C           1.5311   73.2428   20.1352 C.ar    1  UNL1        0.0256
     23 C           0.1729   73.0934   19.8290 C.ar    1  UNL1        0.0549
     24 CL         -0.5696   71.5363   20.1889 Cl      1  UNL1       -0.0825
     25 C          -2.7735   75.3506   19.2270 C.3     1  UNL1        0.0047
     26 C          -2.0258   74.0517   18.9004 C.3     1  UNL1        0.0232
     27 C          -2.2172   73.6612   17.4295 C.3     1  UNL1        0.0047
     28 C          10.6745   78.7508   26.7577 C.3     1  UNL1        0.1535
     29 C          11.8444   79.2213   25.9263 C.2     1  UNL1        0.2443
     30 O          11.9872   80.4514   25.6847 O.2     1  UNL1       -0.2730
     31 N          12.7888   78.2635   25.4207 N.am    1  UNL1       -0.2825
     32 H          12.5212   77.2539   25.4593 H       1  UNL1        0.1549
     33 C          14.0173   78.6059   24.7552 C.ar    1  UNL1        0.0535
     34 C          14.5561   77.7208   23.8111 C.ar    1  UNL1        0.0353
     35 C          15.7610   78.0332   23.1772 C.ar    1  UNL1        0.1002
     36 N          16.4164   79.1827   23.4870 N.ar    1  UNL1       -0.2422
     37 C          15.9302   80.0516   24.4121 C.ar    1  UNL1        0.1002
     38 C          14.7276   79.7781   25.0687 C.ar    1  UNL1        0.0353
     39 C          10.0812   79.9071   27.5927 C.3     1  UNL1        0.0569
     40 C           9.4919   79.4572   28.9043 C.ar    1  UNL1       -0.0017
     41 C          10.1123   79.5155   30.1494 C.ar    1  UNL1        0.0681
     42 N           9.2817   79.0623   31.1151 N.ar    1  UNL1       -0.3523
     43 C           8.1433   78.7132   30.4920 C.ar    1  UNL1        0.0563
     44 C           6.9911   78.1867   31.0744 C.ar    1  UNL1        0.0170
     45 C           5.9083   77.8805   30.2305 C.ar    1  UNL1        0.0015
     46 C           6.0021   78.0995   28.8387 C.ar    1  UNL1        0.0001
     47 C           7.1781   78.6295   28.2778 C.ar    1  UNL1        0.0012
     48 C           8.2328   78.9345   29.1406 C.ar    1  UNL1        0.0131
     49 H           9.4881   78.9966   32.1365 H       1  UNL1        0.1660
@<TRIPOS>BOND
     1    25    26    1
     2    26    27    1
     3    26    18    1
     4    18    19   ar
     5    19    20   ar
     6    20    21   ar
     7    21    12    1
     8    12    13    1
     9    13    14    1
    10    14    15    1
    11    15     5    1
    12     5     6   ar
    13     6     7   ar
    14     7     8   ar
    15     8     1    1
    16     1     2    2
    17     1     3   am
    18     3    28    1
    19    28    39    1
    20    39    40    1
    21    40    41   ar
    22    41    42   ar
    23    42    43   ar
    24    43    44   ar
    25    44    45   ar
    26    45    46   ar
    27    46    47   ar
    28    47    48   ar
    29    28    29    1
    30    29    30    2
    31    29    31   am
    32    31    33    1
    33    33    34   ar
    34    34    35   ar
    35    35    36   ar
    36    36    37   ar
    37    37    38   ar
    38     8     9   ar
    39     9    10    1
    40     9    11   ar
    41    15    16    1
    42    16    17    1
    43    21    22   ar
    44    22    23   ar
    45    23    24    1
    46    23    18   ar
    47    17    12    1
    48    11     5   ar
    49    48    40   ar
    50    38    33   ar
    51    48    43   ar
    52     3     4    1
    53    42    49    1
    54    31    32    1
