@<TRIPOS>MOLECULE
*****
 41 45 0 0 0
SMALL
GASTEIGER

@<TRIPOS>ATOM
      1 C         -61.5353  -43.7591  -29.3509 C.3     1  UNL1        0.2392
      2 O         -60.6340  -43.0804  -28.4695 O.3     1  UNL1       -0.4694
      3 C         -60.8789  -43.0016  -27.0959 C.ar    1  UNL1        0.1723
      4 C         -60.1654  -42.1085  -26.2938 C.ar    1  UNL1        0.0398
      5 C         -60.4475  -42.0208  -24.9267 C.ar    1  UNL1        0.0026
      6 C         -61.4392  -42.8369  -24.3497 C.ar    1  UNL1        0.0233
      7 C         -62.1494  -43.7357  -25.1656 C.ar    1  UNL1        0.0393
      8 C         -61.8543  -43.8293  -26.5284 C.ar    1  UNL1        0.1725
      9 O         -62.5262  -44.7453  -27.3420 O.3     1  UNL1       -0.4679
     10 C         -62.0635  -45.0489  -28.6626 C.3     1  UNL1        0.2305
     11 C         -61.7728  -42.7167  -22.8815 C.3     1  UNL1        0.2223
     12 O         -62.5287  -41.5257  -22.6540 O.3     1  UNL1       -0.4715
     13 C         -63.2041  -41.2948  -21.4509 C.ar    1  UNL1        0.1478
     14 C         -63.6438  -40.0045  -21.1522 C.ar    1  UNL1        0.0746
     15 C         -64.3100  -39.7394  -19.9432 C.ar    1  UNL1        0.1508
     16 C         -64.5237  -40.7858  -19.0329 C.ar    1  UNL1        0.1026
     17 BR        -65.4647  -40.4336  -17.3972 Br      1  UNL1       -0.0427
     18 C         -64.0827  -42.0890  -19.3266 C.ar    1  UNL1        0.1535
     19 C         -63.4421  -42.3537  -20.5573 C.ar    1  UNL1        0.1057
     20 C         -63.0399  -43.7205  -20.9793 C.2     1  UNL1        0.2095
     21 O         -63.1793  -44.7047  -20.2036 O.2     1  UNL1       -0.2884
     22 C         -62.5495  -43.9518  -22.3885 C.3     1  UNL1        0.2169
     23 O         -61.7093  -45.0774  -22.4343 O.3     1  UNL1       -0.3739
     24 H         -62.2978  -45.8750  -22.4916 H       1  UNL1        0.2110
     25 O         -64.7705  -38.4541  -19.6146 O.3     1  UNL1       -0.4707
     26 C         -63.9297  -37.3608  -19.2607 C.3     1  UNL1        0.2525
     27 O         -64.3006  -43.1147  -18.4039 O.3     1  UNL1       -0.4706
     28 C         -65.5719  -43.7411  -18.2798 C.3     1  UNL1        0.2525
     29 C         -63.1807  -45.6961  -29.4480 C.ar    1  UNL1        0.0241
     30 C         -63.9392  -44.9434  -30.3560 C.ar    1  UNL1        0.0026
     31 C         -64.9445  -45.5497  -31.1104 C.ar    1  UNL1        0.0398
     32 C         -65.2018  -46.9272  -30.9794 C.ar    1  UNL1        0.1724
     33 C         -64.4398  -47.6919  -30.0824 C.ar    1  UNL1        0.1722
     34 C         -63.4344  -47.0706  -29.3163 C.ar    1  UNL1        0.0393
     35 O         -66.2010  -47.5727  -31.7248 O.3     1  UNL1       -0.4684
     36 C         -66.1024  -47.8767  -33.1124 C.3     1  UNL1        0.2526
     37 O         -64.7073  -49.0668  -29.9849 O.3     1  UNL1       -0.4684
     38 C         -64.3580  -49.8794  -28.8690 C.3     1  UNL1        0.2526
     39 C         -60.8113  -44.0480  -30.6734 C.3     1  UNL1        0.1897
     40 C         -58.8456  -44.7797  -31.6290 C.3     1  UNL1        0.1743
     41 O         -59.5148  -44.5439  -30.4114 O.3     1  UNL1       -0.3471
@<TRIPOS>BOND
     1    40    41    1
     2    41    39    1
     3    39     1    1
     4     1     2    1
     5     2     3    1
     6     3     4   ar
     7     4     5   ar
     8     5     6   ar
     9     6    11    1
    10    11    12    1
    11    12    13    1
    12    13    14   ar
    13    14    15   ar
    14    15    25    1
    15    25    26    1
    16    15    16   ar
    17    16    17    1
    18    16    18   ar
    19    18    27    1
    20    27    28    1
    21    18    19   ar
    22    19    20    1
    23    20    21    2
    24    20    22    1
    25    22    23    1
    26     6     7   ar
    27     7     8   ar
    28     8     9    1
    29     9    10    1
    30    10    29    1
    31    29    30   ar
    32    30    31   ar
    33    31    32   ar
    34    32    35    1
    35    35    36    1
    36    32    33   ar
    37    33    37    1
    38    37    38    1
    39    33    34   ar
    40    10     1    1
    41    34    29   ar
    42     8     3   ar
    43    22    11    1
    44    19    13   ar
    45    23    24    1
@<TRIPOS>MOLECULE
*****
 41 45 0 0 0
SMALL
GASTEIGER

@<TRIPOS>ATOM
      1 C         -60.9110  -44.9839  -27.1549 C.3     1  UNL1        0.2392
      2 O         -60.1957  -44.9551  -25.9151 O.3     1  UNL1       -0.4694
      3 C         -60.6819  -44.2523  -24.8093 C.ar    1  UNL1        0.1723
      4 C         -59.8583  -43.9887  -23.7128 C.ar    1  UNL1        0.0398
      5 C         -60.3533  -43.2554  -22.6295 C.ar    1  UNL1        0.0026
      6 C         -61.6824  -42.7908  -22.6309 C.ar    1  UNL1        0.0233
      7 C         -62.5047  -43.0649  -23.7385 C.ar    1  UNL1        0.0393
      8 C         -62.0095  -43.8097  -24.8123 C.ar    1  UNL1        0.1725
      9 O         -62.8278  -44.1215  -25.9012 O.3     1  UNL1       -0.4679
     10 C         -62.4356  -45.0966  -26.8735 C.3     1  UNL1        0.2305
     11 C         -62.2077  -41.9656  -21.4800 C.3     1  UNL1        0.2223
     12 O         -62.0685  -40.5755  -21.7794 O.3     1  UNL1       -0.4715
     13 C         -62.7118  -39.5870  -21.0270 C.ar    1  UNL1        0.1478
     14 C         -62.2941  -38.2607  -21.1440 C.ar    1  UNL1        0.0746
     15 C         -62.9104  -37.2488  -20.3877 C.ar    1  UNL1        0.1508
     16 C         -63.9484  -37.5861  -19.5057 C.ar    1  UNL1        0.1026
     17 BR        -64.8156  -36.2012  -18.4981 Br      1  UNL1       -0.0427
     18 C         -64.3745  -38.9211  -19.3817 C.ar    1  UNL1        0.1535
     19 C         -63.7716  -39.9275  -20.1682 C.ar    1  UNL1        0.1057
     20 C         -64.2353  -41.3392  -20.1656 C.2     1  UNL1        0.2095
     21 O         -65.1468  -41.7195  -19.3817 O.2     1  UNL1       -0.2884
     22 C         -63.6788  -42.3088  -21.1803 C.3     1  UNL1        0.2169
     23 O         -63.7586  -43.6246  -20.6929 O.3     1  UNL1       -0.3739
     24 H         -64.6818  -43.9434  -20.8716 H       1  UNL1        0.2110
     25 O         -62.5185  -35.9039  -20.4861 O.3     1  UNL1       -0.4707
     26 C         -61.2321  -35.4666  -20.9123 C.3     1  UNL1        0.2525
     27 O         -65.4055  -39.2358  -18.4934 O.3     1  UNL1       -0.4706
     28 C         -65.1453  -39.9003  -17.2626 C.3     1  UNL1        0.2525
     29 C         -63.2604  -44.9140  -28.1265 C.ar    1  UNL1        0.0241
     30 C         -64.0261  -45.9738  -28.6336 C.ar    1  UNL1        0.0026
     31 C         -64.8188  -45.7938  -29.7679 C.ar    1  UNL1        0.0398
     32 C         -64.8703  -44.5426  -30.4104 C.ar    1  UNL1        0.1724
     33 C         -64.1174  -43.4720  -29.9034 C.ar    1  UNL1        0.1722
     34 C         -63.3111  -43.6647  -28.7648 C.ar    1  UNL1        0.0393
     35 O         -65.6598  -44.3223  -31.5501 O.3     1  UNL1       -0.4684
     36 C         -65.6787  -45.1699  -32.6941 C.3     1  UNL1        0.2526
     37 O         -64.2014  -42.2311  -30.5548 O.3     1  UNL1       -0.4684
     38 C         -64.8177  -41.0713  -30.0048 C.3     1  UNL1        0.2526
     39 C         -60.3790  -46.1447  -28.0070 C.3     1  UNL1        0.1897
     40 C         -59.5930  -44.4767  -29.3899 C.3     1  UNL1        0.1743
     41 O         -60.2389  -45.7286  -29.3496 O.3     1  UNL1       -0.3471
@<TRIPOS>BOND
     1    40    41    1
     2    41    39    1
     3    39     1    1
     4     1     2    1
     5     2     3    1
     6     3     4   ar
     7     4     5   ar
     8     5     6   ar
     9     6    11    1
    10    11    12    1
    11    12    13    1
    12    13    14   ar
    13    14    15   ar
    14    15    25    1
    15    25    26    1
    16    15    16   ar
    17    16    17    1
    18    16    18   ar
    19    18    27    1
    20    27    28    1
    21    18    19   ar
    22    19    20    1
    23    20    21    2
    24    20    22    1
    25    22    23    1
    26     6     7   ar
    27     7     8   ar
    28     8     9    1
    29     9    10    1
    30    10    29    1
    31    29    30   ar
    32    30    31   ar
    33    31    32   ar
    34    32    35    1
    35    35    36    1
    36    32    33   ar
    37    33    37    1
    38    37    38    1
    39    33    34   ar
    40    10     1    1
    41    34    29   ar
    42     8     3   ar
    43    22    11    1
    44    19    13   ar
    45    23    24    1
@<TRIPOS>MOLECULE
*****
 41 45 0 0 0
SMALL
GASTEIGER

@<TRIPOS>ATOM
      1 C         -63.2116  -41.8522  -19.7853 C.3     1  UNL1        0.2392
      2 O         -62.8595  -43.1877  -20.1623 O.3     1  UNL1       -0.4694
      3 C         -62.6942  -43.5470  -21.5027 C.ar    1  UNL1        0.1723
      4 C         -62.6377  -44.8905  -21.8797 C.ar    1  UNL1        0.0398
      5 C         -62.5048  -45.2306  -23.2298 C.ar    1  UNL1        0.0026
      6 C         -62.4149  -44.2263  -24.2125 C.ar    1  UNL1        0.0233
      7 C         -62.4690  -42.8763  -23.8219 C.ar    1  UNL1        0.0393
      8 C         -62.5882  -42.5415  -22.4703 C.ar    1  UNL1        0.1725
      9 O         -62.6045  -41.2041  -22.0659 O.3     1  UNL1       -0.4679
     10 C         -62.4544  -40.8396  -20.6894 C.3     1  UNL1        0.2305
     11 C         -62.3104  -44.5909  -25.6745 C.3     1  UNL1        0.2223
     12 O         -62.8318  -43.5287  -26.4755 O.3     1  UNL1       -0.4715
     13 C         -62.6179  -43.4680  -27.8567 C.ar    1  UNL1        0.1478
     14 C         -63.4047  -42.6152  -28.6319 C.ar    1  UNL1        0.0746
     15 C         -63.2241  -42.5460  -30.0242 C.ar    1  UNL1        0.1508
     16 C         -62.2469  -43.3500  -30.6307 C.ar    1  UNL1        0.1026
     17 BR        -61.9739  -43.2312  -32.5272 Br      1  UNL1       -0.0427
     18 C         -61.4504  -44.2128  -29.8559 C.ar    1  UNL1        0.1535
     19 C         -61.6165  -44.2534  -28.4539 C.ar    1  UNL1        0.1057
     20 C         -60.7463  -45.0628  -27.5619 C.2     1  UNL1        0.2095
     21 O         -59.8636  -45.8269  -28.0382 O.2     1  UNL1       -0.2884
     22 C         -60.8523  -44.8962  -26.0651 C.3     1  UNL1        0.2169
     23 O         -60.4326  -46.0681  -25.4126 O.3     1  UNL1       -0.3739
     24 H         -59.4416  -46.0314  -25.3621 H       1  UNL1        0.2110
     25 O         -63.9944  -41.6943  -30.8323 O.3     1  UNL1       -0.4707
     26 C         -64.9666  -40.7768  -30.3419 C.3     1  UNL1        0.2525
     27 O         -60.4875  -45.0087  -30.4807 O.3     1  UNL1       -0.4706
     28 C         -59.2723  -44.4537  -30.9700 C.3     1  UNL1        0.2525
     29 C         -62.9429  -39.4234  -20.4905 C.ar    1  UNL1        0.0241
     30 C         -64.0695  -39.1656  -19.6962 C.ar    1  UNL1        0.0026
     31 C         -64.4971  -37.8550  -19.4800 C.ar    1  UNL1        0.0398
     32 C         -63.7957  -36.7738  -20.0457 C.ar    1  UNL1        0.1724
     33 C         -62.6596  -37.0204  -20.8320 C.ar    1  UNL1        0.1722
     34 C         -62.2408  -38.3466  -21.0548 C.ar    1  UNL1        0.0393
     35 O         -64.1928  -35.4421  -19.8462 O.3     1  UNL1       -0.4684
     36 C         -65.2847  -35.0405  -19.0253 C.3     1  UNL1        0.2526
     37 O         -61.9701  -35.9218  -21.3695 O.3     1  UNL1       -0.4684
     38 C         -60.7994  -35.3463  -20.7988 C.3     1  UNL1        0.2526
     39 C         -62.9022  -41.6606  -18.2939 C.3     1  UNL1        0.1897
     40 C         -65.0688  -42.3563  -17.9275 C.3     1  UNL1        0.1743
     41 O         -64.0961  -41.3951  -17.5872 O.3     1  UNL1       -0.3471
@<TRIPOS>BOND
     1    40    41    1
     2    41    39    1
     3    39     1    1
     4     1     2    1
     5     2     3    1
     6     3     4   ar
     7     4     5   ar
     8     5     6   ar
     9     6    11    1
    10    11    12    1
    11    12    13    1
    12    13    14   ar
    13    14    15   ar
    14    15    25    1
    15    25    26    1
    16    15    16   ar
    17    16    17    1
    18    16    18   ar
    19    18    27    1
    20    27    28    1
    21    18    19   ar
    22    19    20    1
    23    20    21    2
    24    20    22    1
    25    22    23    1
    26     6     7   ar
    27     7     8   ar
    28     8     9    1
    29     9    10    1
    30    10    29    1
    31    29    30   ar
    32    30    31   ar
    33    31    32   ar
    34    32    35    1
    35    35    36    1
    36    32    33   ar
    37    33    37    1
    38    37    38    1
    39    33    34   ar
    40    10     1    1
    41    34    29   ar
    42     8     3   ar
    43    22    11    1
    44    19    13   ar
    45    23    24    1
@<TRIPOS>MOLECULE
*****
 41 45 0 0 0
SMALL
GASTEIGER

@<TRIPOS>ATOM
      1 C         -63.2502  -43.7033  -21.8704 C.3     1  UNL1        0.2392
      2 O         -62.7697  -44.6171  -22.8623 O.3     1  UNL1       -0.4694
      3 C         -62.5804  -44.2197  -24.1887 C.ar    1  UNL1        0.1723
      4 C         -62.3933  -45.1669  -25.1977 C.ar    1  UNL1        0.0398
      5 C         -62.2382  -44.7511  -26.5240 C.ar    1  UNL1        0.0026
      6 C         -62.2568  -43.3811  -26.8485 C.ar    1  UNL1        0.0233
      7 C         -62.4420  -42.4351  -25.8243 C.ar    1  UNL1        0.0393
      8 C         -62.5829  -42.8551  -24.4989 C.ar    1  UNL1        0.1725
      9 O         -62.7292  -41.9236  -23.4676 O.3     1  UNL1       -0.4679
     10 C         -62.6050  -42.3067  -22.0936 C.3     1  UNL1        0.2305
     11 C         -62.1284  -42.9311  -28.2846 C.3     1  UNL1        0.2223
     12 O         -61.1141  -43.6941  -28.9408 O.3     1  UNL1       -0.4715
     13 C         -60.9651  -43.6879  -30.3318 C.ar    1  UNL1        0.1478
     14 C         -59.7828  -44.1721  -30.8933 C.ar    1  UNL1        0.0746
     15 C         -59.5980  -44.1624  -32.2867 C.ar    1  UNL1        0.1508
     16 C         -60.6135  -43.6534  -33.1107 C.ar    1  UNL1        0.1026
     17 BR        -60.3782  -43.6718  -35.0158 Br      1  UNL1       -0.0427
     18 C         -61.8077  -43.1628  -32.5519 C.ar    1  UNL1        0.1535
     19 C         -61.9988  -43.2050  -31.1531 C.ar    1  UNL1        0.1057
     20 C         -63.2705  -42.7993  -30.5004 C.2     1  UNL1        0.2095
     21 O         -64.2170  -42.3105  -31.1749 O.2     1  UNL1       -0.2884
     22 C         -63.4707  -43.0651  -29.0277 C.3     1  UNL1        0.2169
     23 O         -64.3932  -42.1524  -28.4880 O.3     1  UNL1       -0.3739
     24 H         -65.2994  -42.5039  -28.6904 H       1  UNL1        0.2110
     25 O         -58.4234  -44.6475  -32.8841 O.3     1  UNL1       -0.4707
     26 C         -57.1063  -44.3628  -32.4243 C.3     1  UNL1        0.2525
     27 O         -62.8032  -42.6553  -33.3900 O.3     1  UNL1       -0.4706
     28 C         -63.2231  -43.3604  -34.5522 C.3     1  UNL1        0.2525
     29 C         -63.2306  -41.2448  -21.2192 C.ar    1  UNL1        0.0241
     30 C         -62.5107  -40.6888  -20.1519 C.ar    1  UNL1        0.0026
     31 C         -63.0736  -39.6800  -19.3691 C.ar    1  UNL1        0.0398
     32 C         -64.3662  -39.1982  -19.6484 C.ar    1  UNL1        0.1724
     33 C         -65.0901  -39.7394  -20.7222 C.ar    1  UNL1        0.1722
     34 C         -64.5195  -40.7651  -21.5007 C.ar    1  UNL1        0.0393
     35 O         -64.9631  -38.1813  -18.8864 O.3     1  UNL1       -0.4684
     36 C         -64.6646  -36.7952  -19.0167 C.3     1  UNL1        0.2526
     37 O         -66.3703  -39.2277  -20.9877 O.3     1  UNL1       -0.4684
     38 C         -67.2812  -39.7827  -21.9311 C.3     1  UNL1        0.2526
     39 C         -62.9492  -44.2788  -20.4794 C.3     1  UNL1        0.1897
     40 C         -65.0525  -44.2018  -19.5397 C.3     1  UNL1        0.1743
     41 O         -64.0438  -45.0528  -20.0341 O.3     1  UNL1       -0.3471
@<TRIPOS>BOND
     1    40    41    1
     2    41    39    1
     3    39     1    1
     4     1     2    1
     5     2     3    1
     6     3     4   ar
     7     4     5   ar
     8     5     6   ar
     9     6    11    1
    10    11    12    1
    11    12    13    1
    12    13    14   ar
    13    14    15   ar
    14    15    25    1
    15    25    26    1
    16    15    16   ar
    17    16    17    1
    18    16    18   ar
    19    18    27    1
    20    27    28    1
    21    18    19   ar
    22    19    20    1
    23    20    21    2
    24    20    22    1
    25    22    23    1
    26     6     7   ar
    27     7     8   ar
    28     8     9    1
    29     9    10    1
    30    10    29    1
    31    29    30   ar
    32    30    31   ar
    33    31    32   ar
    34    32    35    1
    35    35    36    1
    36    32    33   ar
    37    33    37    1
    38    37    38    1
    39    33    34   ar
    40    10     1    1
    41    34    29   ar
    42     8     3   ar
    43    22    11    1
    44    19    13   ar
    45    23    24    1
@<TRIPOS>MOLECULE
*****
 41 45 0 0 0
SMALL
GASTEIGER

@<TRIPOS>ATOM
      1 C         -62.5221  -41.6757  -20.4093 C.3     1  UNL1        0.2392
      2 O         -61.9724  -42.8277  -21.0577 O.3     1  UNL1       -0.4694
      3 C         -62.1214  -43.0310  -22.4324 C.ar    1  UNL1        0.1723
      4 C         -61.8426  -44.2740  -23.0044 C.ar    1  UNL1        0.0398
      5 C         -62.0291  -44.4673  -24.3769 C.ar    1  UNL1        0.0026
      6 C         -62.4852  -43.4122  -25.1900 C.ar    1  UNL1        0.0233
      7 C         -62.7595  -42.1632  -24.6046 C.ar    1  UNL1        0.0393
      8 C         -62.5585  -41.9712  -23.2351 C.ar    1  UNL1        0.1725
      9 O         -62.7908  -40.7245  -22.6483 O.3     1  UNL1       -0.4679
     10 C         -62.3414  -40.4298  -21.3211 C.3     1  UNL1        0.2305
     11 C         -62.7246  -43.6291  -26.6655 C.3     1  UNL1        0.2223
     12 O         -63.1295  -44.9800  -26.8955 O.3     1  UNL1       -0.4715
     13 C         -63.6780  -45.3921  -28.1146 C.ar    1  UNL1        0.1478
     14 C         -63.7495  -46.7553  -28.4043 C.ar    1  UNL1        0.0746
     15 C         -64.2798  -47.1981  -29.6285 C.ar    1  UNL1        0.1508
     16 C         -64.7320  -46.2538  -30.5628 C.ar    1  UNL1        0.1026
     17 BR        -65.4895  -46.8570  -32.2203 Br      1  UNL1       -0.0427
     18 C         -64.6625  -44.8778  -30.2782 C.ar    1  UNL1        0.1535
     19 C         -64.1575  -44.4420  -29.0332 C.ar    1  UNL1        0.1057
     20 C         -64.1467  -43.0140  -28.6227 C.2     1  UNL1        0.2095
     21 O         -64.5154  -42.1088  -29.4192 O.2     1  UNL1       -0.2884
     22 C         -63.7836  -42.6489  -27.2034 C.3     1  UNL1        0.2169
     23 O         -63.2739  -41.3402  -27.1512 O.3     1  UNL1       -0.3739
     24 H         -64.0544  -40.7270  -27.1258 H       1  UNL1        0.2110
     25 O         -64.3717  -48.5622  -29.9488 O.3     1  UNL1       -0.4707
     26 C         -64.3184  -49.6206  -28.9977 C.3     1  UNL1        0.2525
     27 O         -65.1128  -43.9546  -31.2248 O.3     1  UNL1       -0.4706
     28 C         -66.4817  -43.5731  -31.2939 C.3     1  UNL1        0.2525
     29 C         -63.0893  -39.2266  -20.7950 C.ar    1  UNL1        0.0241
     30 C         -64.3672  -39.3730  -20.2364 C.ar    1  UNL1        0.0026
     31 C         -65.0413  -38.2682  -19.7145 C.ar    1  UNL1        0.0398
     32 C         -64.4422  -36.9947  -19.7301 C.ar    1  UNL1        0.1724
     33 C         -63.1583  -36.8398  -20.2756 C.ar    1  UNL1        0.1722
     34 C         -62.4889  -37.9577  -20.8106 C.ar    1  UNL1        0.0393
     35 O         -65.0872  -35.8615  -19.2098 O.3     1  UNL1       -0.4684
     36 C         -64.6407  -35.1305  -18.0724 C.3     1  UNL1        0.2526
     37 O         -62.5786  -35.5611  -20.2623 O.3     1  UNL1       -0.4684
     38 C         -61.2947  -35.2518  -20.7947 C.3     1  UNL1        0.2526
     39 C         -61.8488  -41.5096  -19.0398 C.3     1  UNL1        0.1897
     40 C         -63.9622  -42.0444  -18.2916 C.3     1  UNL1        0.1743
     41 O         -62.8259  -41.2453  -18.0545 O.3     1  UNL1       -0.3471
@<TRIPOS>BOND
     1    40    41    1
     2    41    39    1
     3    39     1    1
     4     1     2    1
     5     2     3    1
     6     3     4   ar
     7     4     5   ar
     8     5     6   ar
     9     6    11    1
    10    11    12    1
    11    12    13    1
    12    13    14   ar
    13    14    15   ar
    14    15    25    1
    15    25    26    1
    16    15    16   ar
    17    16    17    1
    18    16    18   ar
    19    18    27    1
    20    27    28    1
    21    18    19   ar
    22    19    20    1
    23    20    21    2
    24    20    22    1
    25    22    23    1
    26     6     7   ar
    27     7     8   ar
    28     8     9    1
    29     9    10    1
    30    10    29    1
    31    29    30   ar
    32    30    31   ar
    33    31    32   ar
    34    32    35    1
    35    35    36    1
    36    32    33   ar
    37    33    37    1
    38    37    38    1
    39    33    34   ar
    40    10     1    1
    41    34    29   ar
    42     8     3   ar
    43    22    11    1
    44    19    13   ar
    45    23    24    1
@<TRIPOS>MOLECULE
*****
 41 45 0 0 0
SMALL
GASTEIGER

@<TRIPOS>ATOM
      1 C         -60.5723  -45.6452  -26.8373 C.3     1  UNL1        0.2392
      2 O         -59.8058  -45.3977  -25.6537 O.3     1  UNL1       -0.4694
      3 C         -60.3379  -44.6835  -24.5768 C.ar    1  UNL1        0.1723
      4 C         -59.5096  -44.2008  -23.5614 C.ar    1  UNL1        0.0398
      5 C         -60.0564  -43.4599  -22.5087 C.ar    1  UNL1        0.0026
      6 C         -61.4406  -43.2073  -22.4584 C.ar    1  UNL1        0.0233
      7 C         -62.2667  -43.7011  -23.4840 C.ar    1  UNL1        0.0393
      8 C         -61.7173  -44.4524  -24.5265 C.ar    1  UNL1        0.1725
      9 O         -62.5324  -44.9810  -25.5308 O.3     1  UNL1       -0.4679
     10 C         -62.0425  -45.9660  -26.4473 C.3     1  UNL1        0.2305
     11 C         -62.0284  -42.3748  -21.3436 C.3     1  UNL1        0.2223
     12 O         -61.9494  -40.9889  -21.6827 O.3     1  UNL1       -0.4715
     13 C         -62.6545  -40.0109  -20.9734 C.ar    1  UNL1        0.1478
     14 C         -62.2981  -38.6700  -21.1228 C.ar    1  UNL1        0.0746
     15 C         -62.9774  -37.6670  -20.4097 C.ar    1  UNL1        0.1508
     16 C         -64.0163  -38.0278  -19.5380 C.ar    1  UNL1        0.1026
     17 BR        -64.9691  -36.6571  -18.5902 Br      1  UNL1       -0.0427
     18 C         -64.3807  -39.3775  -19.3815 C.ar    1  UNL1        0.1535
     19 C         -63.7144  -40.3765  -20.1252 C.ar    1  UNL1        0.1057
     20 C         -64.1104  -41.8082  -20.0883 C.2     1  UNL1        0.2095
     21 O         -65.0187  -42.2086  -19.3109 O.2     1  UNL1       -0.2884
     22 C         -63.4874  -42.7795  -21.0620 C.3     1  UNL1        0.2169
     23 O         -63.5145  -44.0826  -20.5362 O.3     1  UNL1       -0.3739
     24 H         -64.4176  -44.4506  -20.7229 H       1  UNL1        0.2110
     25 O         -62.6480  -36.3083  -20.5416 O.3     1  UNL1       -0.4707
     26 C         -61.3704  -35.8220  -20.9398 C.3     1  UNL1        0.2525
     27 O         -65.4138  -39.7151  -18.5042 O.3     1  UNL1       -0.4706
     28 C         -65.1438  -40.1960  -17.1927 C.3     1  UNL1        0.2525
     29 C         -62.9513  -46.0235  -27.6534 C.ar    1  UNL1        0.0241
     30 C         -63.3989  -44.8423  -28.2624 C.ar    1  UNL1        0.0026
     31 C         -64.2057  -44.8953  -29.3998 C.ar    1  UNL1        0.0398
     32 C         -64.5701  -46.1348  -29.9583 C.ar    1  UNL1        0.1724
     33 C         -64.1170  -47.3226  -29.3635 C.ar    1  UNL1        0.1722
     34 C         -63.3123  -47.2610  -28.2092 C.ar    1  UNL1        0.0393
     35 O         -65.3757  -46.2276  -31.1043 O.3     1  UNL1       -0.4684
     36 C         -65.4126  -45.2563  -32.1448 C.3     1  UNL1        0.2526
     37 O         -64.4823  -48.5438  -29.9521 O.3     1  UNL1       -0.4684
     38 C         -64.5601  -49.7835  -29.2558 C.3     1  UNL1        0.2526
     39 C         -59.9087  -46.7808  -27.6289 C.3     1  UNL1        0.1897
     40 C         -59.6809  -45.2503  -29.3372 C.3     1  UNL1        0.1743
     41 O         -59.0197  -46.2422  -28.5854 O.3     1  UNL1       -0.3471
@<TRIPOS>BOND
     1    40    41    1
     2    41    39    1
     3    39     1    1
     4     1     2    1
     5     2     3    1
     6     3     4   ar
     7     4     5   ar
     8     5     6   ar
     9     6    11    1
    10    11    12    1
    11    12    13    1
    12    13    14   ar
    13    14    15   ar
    14    15    25    1
    15    25    26    1
    16    15    16   ar
    17    16    17    1
    18    16    18   ar
    19    18    27    1
    20    27    28    1
    21    18    19   ar
    22    19    20    1
    23    20    21    2
    24    20    22    1
    25    22    23    1
    26     6     7   ar
    27     7     8   ar
    28     8     9    1
    29     9    10    1
    30    10    29    1
    31    29    30   ar
    32    30    31   ar
    33    31    32   ar
    34    32    35    1
    35    35    36    1
    36    32    33   ar
    37    33    37    1
    38    37    38    1
    39    33    34   ar
    40    10     1    1
    41    34    29   ar
    42     8     3   ar
    43    22    11    1
    44    19    13   ar
    45    23    24    1
@<TRIPOS>MOLECULE
*****
 41 45 0 0 0
SMALL
GASTEIGER

@<TRIPOS>ATOM
      1 C         -61.4952  -46.0861  -26.9978 C.3     1  UNL1        0.2392
      2 O         -61.3755  -46.5498  -25.6486 O.3     1  UNL1       -0.4694
      3 C         -61.6016  -45.6994  -24.5629 C.ar    1  UNL1        0.1723
      4 C         -61.2087  -46.0673  -23.2743 C.ar    1  UNL1        0.0398
      5 C         -61.4140  -45.1889  -22.2055 C.ar    1  UNL1        0.0026
      6 C         -62.0263  -43.9389  -22.4175 C.ar    1  UNL1        0.0233
      7 C         -62.4217  -43.5796  -23.7186 C.ar    1  UNL1        0.0393
      8 C         -62.2268  -44.4665  -24.7808 C.ar    1  UNL1        0.1725
      9 O         -62.6499  -44.1372  -26.0712 O.3     1  UNL1       -0.4679
     10 C         -62.7083  -45.1205  -27.1103 C.3     1  UNL1        0.2305
     11 C         -62.2139  -42.9725  -21.2720 C.3     1  UNL1        0.2223
     12 O         -62.2801  -41.6362  -21.7736 O.3     1  UNL1       -0.4715
     13 C         -62.7188  -40.5686  -20.9831 C.ar    1  UNL1        0.1478
     14 C         -62.4588  -39.2615  -21.3970 C.ar    1  UNL1        0.0746
     15 C         -62.8724  -38.1693  -20.6147 C.ar    1  UNL1        0.1508
     16 C         -63.5454  -38.4058  -19.4063 C.ar    1  UNL1        0.1026
     17 BR        -64.1427  -36.9157  -18.3537 Br      1  UNL1       -0.0427
     18 C         -63.8104  -39.7207  -18.9820 C.ar    1  UNL1        0.1535
     19 C         -63.4195  -40.8121  -19.7889 C.ar    1  UNL1        0.1057
     20 C         -63.7534  -42.2212  -19.4562 C.2     1  UNL1        0.2095
     21 O         -64.3351  -42.5107  -18.3756 O.2     1  UNL1       -0.2884
     22 C         -63.4821  -43.3102  -20.4662 C.3     1  UNL1        0.2169
     23 O         -63.3050  -44.5444  -19.8175 O.3     1  UNL1       -0.3739
     24 H         -64.2108  -44.9112  -19.6422 H       1  UNL1        0.2110
     25 O         -62.6322  -36.8420  -21.0051 O.3     1  UNL1       -0.4707
     26 C         -61.3430  -36.2416  -21.0756 C.3     1  UNL1        0.2525
     27 O         -64.4764  -39.9337  -17.7728 O.3     1  UNL1       -0.4706
     28 C         -65.8754  -40.1893  -17.7332 C.3     1  UNL1        0.2525
     29 C         -62.7615  -44.4280  -28.4525 C.ar    1  UNL1        0.0241
     30 C         -61.6451  -43.7316  -28.9372 C.ar    1  UNL1        0.0026
     31 C         -61.6807  -43.1258  -30.1938 C.ar    1  UNL1        0.0398
     32 C         -62.8330  -43.2168  -30.9967 C.ar    1  UNL1        0.1724
     33 C         -63.9514  -43.9222  -30.5260 C.ar    1  UNL1        0.1722
     34 C         -63.9117  -44.5214  -29.2520 C.ar    1  UNL1        0.0393
     35 O         -62.9041  -42.6249  -32.2678 O.3     1  UNL1       -0.4684
     36 C         -62.2804  -43.1470  -33.4365 C.3     1  UNL1        0.2526
     37 O         -65.0808  -44.0107  -31.3554 O.3     1  UNL1       -0.4684
     38 C         -65.4259  -45.1553  -32.1289 C.3     1  UNL1        0.2526
     39 C         -61.6165  -47.2999  -27.9299 C.3     1  UNL1        0.1897
     40 C         -63.5700  -48.4785  -28.2573 C.3     1  UNL1        0.1743
     41 O         -62.5005  -48.2482  -27.3690 O.3     1  UNL1       -0.3471
@<TRIPOS>BOND
     1    40    41    1
     2    41    39    1
     3    39     1    1
     4     1     2    1
     5     2     3    1
     6     3     4   ar
     7     4     5   ar
     8     5     6   ar
     9     6    11    1
    10    11    12    1
    11    12    13    1
    12    13    14   ar
    13    14    15   ar
    14    15    25    1
    15    25    26    1
    16    15    16   ar
    17    16    17    1
    18    16    18   ar
    19    18    27    1
    20    27    28    1
    21    18    19   ar
    22    19    20    1
    23    20    21    2
    24    20    22    1
    25    22    23    1
    26     6     7   ar
    27     7     8   ar
    28     8     9    1
    29     9    10    1
    30    10    29    1
    31    29    30   ar
    32    30    31   ar
    33    31    32   ar
    34    32    35    1
    35    35    36    1
    36    32    33   ar
    37    33    37    1
    38    37    38    1
    39    33    34   ar
    40    10     1    1
    41    34    29   ar
    42     8     3   ar
    43    22    11    1
    44    19    13   ar
    45    23    24    1
@<TRIPOS>MOLECULE
*****
 41 45 0 0 0
SMALL
GASTEIGER

@<TRIPOS>ATOM
      1 C         -61.4646  -42.1304  -21.1731 C.3     1  UNL1        0.2392
      2 O         -60.7092  -43.0640  -21.9526 O.3     1  UNL1       -0.4694
      3 C         -61.0275  -43.3239  -23.2884 C.ar    1  UNL1        0.1723
      4 C         -60.4839  -44.4270  -23.9499 C.ar    1  UNL1        0.0398
      5 C         -60.8399  -44.6892  -25.2768 C.ar    1  UNL1        0.0026
      6 C         -61.7346  -43.8402  -25.9559 C.ar    1  UNL1        0.0233
      7 C         -62.2735  -42.7298  -25.2818 C.ar    1  UNL1        0.0393
      8 C         -61.9041  -42.4644  -23.9604 C.ar    1  UNL1        0.1725
      9 O         -62.4027  -41.3431  -23.2921 O.3     1  UNL1       -0.4679
     10 C         -61.8403  -40.9036  -22.0509 C.3     1  UNL1        0.2305
     11 C         -62.1508  -44.1427  -27.3760 C.3     1  UNL1        0.2223
     12 O         -62.7431  -45.4415  -27.4393 O.3     1  UNL1       -0.4715
     13 C         -63.4622  -45.8745  -28.5584 C.ar    1  UNL1        0.1478
     14 C         -63.7332  -47.2350  -28.7105 C.ar    1  UNL1        0.0746
     15 C         -64.4387  -47.7012  -29.8334 C.ar    1  UNL1        0.1508
     16 C         -64.8636  -46.7842  -30.8069 C.ar    1  UNL1        0.1026
     17 BR        -65.8582  -47.4138  -32.3233 Br      1  UNL1       -0.0427
     18 C         -64.5935  -45.4113  -30.6610 C.ar    1  UNL1        0.1535
     19 C         -63.9117  -44.9469  -29.5145 C.ar    1  UNL1        0.1057
     20 C         -63.6798  -43.5045  -29.2432 C.2     1  UNL1        0.2095
     21 O         -64.0130  -42.6261  -30.0841 O.2     1  UNL1       -0.2884
     22 C         -63.1289  -43.0768  -27.9041 C.3     1  UNL1        0.2169
     23 O         -62.4568  -41.8481  -28.0228 O.3     1  UNL1       -0.3739
     24 H         -63.1477  -41.1361  -27.9834 H       1  UNL1        0.2110
     25 O         -64.7332  -49.0623  -30.0138 O.3     1  UNL1       -0.4707
     26 C         -64.4571  -50.0818  -29.0589 C.3     1  UNL1        0.2525
     27 O         -65.0204  -44.5165  -31.6449 O.3     1  UNL1       -0.4706
     28 C         -66.3717  -44.0760  -31.7089 C.3     1  UNL1        0.2525
     29 C         -62.8181  -39.9848  -21.3557 C.ar    1  UNL1        0.0241
     30 C         -62.3744  -38.7956  -20.7595 C.ar    1  UNL1        0.0026
     31 C         -63.2828  -37.9276  -20.1522 C.ar    1  UNL1        0.0398
     32 C         -64.6578  -38.2279  -20.1415 C.ar    1  UNL1        0.1724
     33 C         -65.1135  -39.4095  -20.7465 C.ar    1  UNL1        0.1722
     34 C         -64.1892  -40.2860  -21.3476 C.ar    1  UNL1        0.0393
     35 O         -65.6017  -37.3768  -19.5450 O.3     1  UNL1       -0.4684
     36 C         -65.3804  -35.9988  -19.2631 C.3     1  UNL1        0.2526
     37 O         -66.4922  -39.6748  -20.7354 O.3     1  UNL1       -0.4684
     38 C         -67.2829  -39.8843  -21.9010 C.3     1  UNL1        0.2526
     39 C         -60.6457  -41.7428  -19.9339 C.3     1  UNL1        0.1897
     40 C         -62.6595  -42.1842  -18.9032 C.3     1  UNL1        0.1743
     41 O         -61.5134  -41.3643  -18.8854 O.3     1  UNL1       -0.3471
@<TRIPOS>BOND
     1    40    41    1
     2    41    39    1
     3    39     1    1
     4     1     2    1
     5     2     3    1
     6     3     4   ar
     7     4     5   ar
     8     5     6   ar
     9     6    11    1
    10    11    12    1
    11    12    13    1
    12    13    14   ar
    13    14    15   ar
    14    15    25    1
    15    25    26    1
    16    15    16   ar
    17    16    17    1
    18    16    18   ar
    19    18    27    1
    20    27    28    1
    21    18    19   ar
    22    19    20    1
    23    20    21    2
    24    20    22    1
    25    22    23    1
    26     6     7   ar
    27     7     8   ar
    28     8     9    1
    29     9    10    1
    30    10    29    1
    31    29    30   ar
    32    30    31   ar
    33    31    32   ar
    34    32    35    1
    35    35    36    1
    36    32    33   ar
    37    33    37    1
    38    37    38    1
    39    33    34   ar
    40    10     1    1
    41    34    29   ar
    42     8     3   ar
    43    22    11    1
    44    19    13   ar
    45    23    24    1
@<TRIPOS>MOLECULE
*****
 41 45 0 0 0
SMALL
GASTEIGER

@<TRIPOS>ATOM
      1 C         -61.4687  -41.7343  -22.1511 C.3     1  UNL1        0.2392
      2 O         -60.5909  -41.7832  -23.2811 O.3     1  UNL1       -0.4694
      3 C         -61.0406  -42.2043  -24.5355 C.ar    1  UNL1        0.1723
      4 C         -60.1338  -42.5233  -25.5485 C.ar    1  UNL1        0.0398
      5 C         -60.6022  -42.9744  -26.7867 C.ar    1  UNL1        0.0026
      6 C         -61.9846  -43.0976  -27.0241 C.ar    1  UNL1        0.0233
      7 C         -62.8895  -42.7702  -25.9985 C.ar    1  UNL1        0.0393
      8 C         -62.4168  -42.3069  -24.7676 C.ar    1  UNL1        0.1725
      9 O         -63.3065  -41.9420  -23.7539 O.3     1  UNL1       -0.4679
     10 C         -62.8654  -41.2195  -22.5991 C.3     1  UNL1        0.2305
     11 C         -62.4920  -43.6213  -28.3469 C.3     1  UNL1        0.2223
     12 O         -62.9388  -44.9698  -28.1930 O.3     1  UNL1       -0.4715
     13 C         -63.7039  -45.6134  -29.1714 C.ar    1  UNL1        0.1478
     14 C         -63.8338  -47.0023  -29.1313 C.ar    1  UNL1        0.0746
     15 C         -64.5822  -47.6778  -30.1109 C.ar    1  UNL1        0.1508
     16 C         -65.1938  -46.9414  -31.1370 C.ar    1  UNL1        0.1026
     17 BR        -66.2457  -47.8579  -32.4556 Br      1  UNL1       -0.0427
     18 C         -65.0666  -45.5412  -31.1845 C.ar    1  UNL1        0.1535
     19 C         -64.3394  -44.8668  -30.1789 C.ar    1  UNL1        0.1057
     20 C         -64.2465  -43.3855  -30.1069 C.2     1  UNL1        0.2095
     21 O         -64.7510  -42.6609  -31.0070 O.2     1  UNL1       -0.2884
     22 C         -63.6272  -42.7354  -28.8931 C.3     1  UNL1        0.2169
     23 O         -63.1102  -41.4717  -29.2267 O.3     1  UNL1       -0.3739
     24 H         -63.8699  -40.8328  -29.2005 H       1  UNL1        0.2110
     25 O         -64.7378  -49.0733  -30.0963 O.3     1  UNL1       -0.4707
     26 C         -64.4509  -49.9063  -28.9777 C.3     1  UNL1        0.2525
     27 O         -65.6788  -44.8282  -32.2179 O.3     1  UNL1       -0.4706
     28 C         -65.0510  -44.6762  -33.4856 C.3     1  UNL1        0.2525
     29 C         -63.8977  -41.3488  -21.5031 C.ar    1  UNL1        0.0241
     30 C         -64.5153  -40.2078  -20.9708 C.ar    1  UNL1        0.0026
     31 C         -65.4972  -40.3295  -19.9868 C.ar    1  UNL1        0.0398
     32 C         -65.8900  -41.5996  -19.5248 C.ar    1  UNL1        0.1724
     33 C         -65.2869  -42.7484  -20.0601 C.ar    1  UNL1        0.1722
     34 C         -64.2887  -42.6169  -21.0449 C.ar    1  UNL1        0.0393
     35 O         -66.8775  -41.7617  -18.5402 O.3     1  UNL1       -0.4684
     36 C         -66.6200  -41.8138  -17.1408 C.3     1  UNL1        0.2526
     37 O         -65.7106  -44.0027  -19.5924 O.3     1  UNL1       -0.4684
     38 C         -64.8522  -45.1210  -19.3924 C.3     1  UNL1        0.2526
     39 C         -60.8325  -40.8523  -21.0675 C.3     1  UNL1        0.1897
     40 C         -61.6536  -41.4093  -18.9870 C.3     1  UNL1        0.1743
     41 O         -60.6021  -41.6166  -19.9020 O.3     1  UNL1       -0.3471
@<TRIPOS>BOND
     1    40    41    1
     2    41    39    1
     3    39     1    1
     4     1     2    1
     5     2     3    1
     6     3     4   ar
     7     4     5   ar
     8     5     6   ar
     9     6    11    1
    10    11    12    1
    11    12    13    1
    12    13    14   ar
    13    14    15   ar
    14    15    25    1
    15    25    26    1
    16    15    16   ar
    17    16    17    1
    18    16    18   ar
    19    18    27    1
    20    27    28    1
    21    18    19   ar
    22    19    20    1
    23    20    21    2
    24    20    22    1
    25    22    23    1
    26     6     7   ar
    27     7     8   ar
    28     8     9    1
    29     9    10    1
    30    10    29    1
    31    29    30   ar
    32    30    31   ar
    33    31    32   ar
    34    32    35    1
    35    35    36    1
    36    32    33   ar
    37    33    37    1
    38    37    38    1
    39    33    34   ar
    40    10     1    1
    41    34    29   ar
    42     8     3   ar
    43    22    11    1
    44    19    13   ar
    45    23    24    1
