@<TRIPOS>MOLECULE
*****
 46 50 0 0 0
SMALL
GASTEIGER

@<TRIPOS>ATOM
      1 C          -6.7851  -10.0897   30.0686 C.3     1  UNL1        0.1562
      2 C          -7.4381   -8.8642   29.4172 C.3     1  UNL1        0.0622
      3 C          -8.8169   -8.7172   30.1073 C.3     1  UNL1        0.1301
      4 O          -9.7266   -9.6016   29.4933 O.3     1  UNL1       -0.3808
      5 C          -8.5277   -9.2577   31.5337 C.3     1  UNL1        0.1348
      6 N          -7.5024  -10.2821   31.3240 N.am    1  UNL1       -0.2536
      7 C          -7.0845  -11.2374   32.3202 C.2     1  UNL1        0.3081
      8 O          -5.8850  -11.6217   32.3494 O.2     1  UNL1       -0.2522
      9 N          -7.9950  -11.7294   33.3137 N.am    1  UNL1       -0.2681
     10 H          -9.8648   -9.2945   28.5584 H       1  UNL1        0.2107
     11 H          -7.6181  -11.9005   34.2733 H       1  UNL1        0.1564
     12 C          -9.4314   -7.3063   30.0793 C.ar    1  UNL1        0.0310
     13 C          -8.6773   -6.1589   29.7423 C.ar    1  UNL1        0.0026
     14 C          -9.2784   -4.8980   29.6943 C.ar    1  UNL1        0.0295
     15 C         -10.6418   -4.7590   29.9515 C.ar    1  UNL1        0.1424
     16 F         -11.2210   -3.5343   29.9000 F       1  UNL1       -0.2041
     17 C         -11.4130   -5.8845   30.2401 C.ar    1  UNL1        0.0590
     18 C         -10.8216   -7.1503   30.2901 C.ar    1  UNL1        0.1406
     19 F         -11.6121   -8.2252   30.5375 F       1  UNL1       -0.2044
     20 C          -9.3602  -12.0875   33.0450 C.ar    1  UNL1        0.0516
     21 C          -9.8599  -12.1330   31.7307 C.ar    1  UNL1        0.0156
     22 C         -11.1946  -12.4742   31.4946 C.ar    1  UNL1        0.0127
     23 C         -12.0380  -12.7871   32.5650 C.ar    1  UNL1        0.0578
     24 CL        -13.7132  -13.2137   32.2672 Cl      1  UNL1       -0.0822
     25 C         -11.5425  -12.7661   33.8725 C.ar    1  UNL1        0.0127
     26 C         -10.2079  -12.4236   34.1110 C.ar    1  UNL1        0.0156
     27 O          -7.9915  -11.8967   29.0464 O.2     1  UNL1       -0.2730
     28 C          -6.8794  -11.3235   29.2040 C.2     1  UNL1        0.2454
     29 N          -5.6879  -11.8846   28.6300 N.am    1  UNL1       -0.2680
     30 H          -4.7658  -11.5776   29.0136 H       1  UNL1        0.1563
     31 C          -5.6793  -12.9424   27.6591 C.ar    1  UNL1        0.1346
     32 C          -6.5788  -14.0186   27.7335 C.ar    1  UNL1        0.0406
     33 C          -6.5478  -15.0097   26.7513 C.ar    1  UNL1        0.0736
     34 C          -5.6370  -14.9206   25.6892 C.ar    1  UNL1        0.2466
     35 C          -4.7677  -13.8210   25.6418 C.ar    1  UNL1        0.1691
     36 N          -4.8152  -12.8681   26.6100 N.ar    1  UNL1       -0.2228
     37 N          -5.5871  -15.9408   24.6712 N.am    1  UNL1       -0.0841
     38 C          -4.4621  -16.7142   24.5670 C.2     1  UNL1        0.2905
     39 C          -4.3752  -17.7197   23.6022 C.2     1  UNL1        0.0758
     40 C          -5.4456  -17.9330   22.7375 C.2     1  UNL1        0.0161
     41 C          -6.5863  -17.1401   22.8417 C.2     1  UNL1        0.1156
     42 C          -6.6445  -16.1374   23.8160 C.2     1  UNL1        0.4230
     43 O          -7.6737  -15.4106   23.8845 O.2     1  UNL1       -0.2135
     44 C          -7.9941   -8.1844   32.5118 C.3     1  UNL1        0.1596
     45 O          -7.6311   -8.7773   33.7277 O.3     1  UNL1       -0.3801
     46 H          -7.2660   -8.0483   34.2936 H       1  UNL1        0.2105
@<TRIPOS>BOND
     1    27    28    2
     2    28    29   am
     3    29    31    1
     4    31    32   ar
     5    32    33   ar
     6    33    34   ar
     7    34    37    1
     8    37    38    1
     9    38    39    2
    10    39    40    1
    11    40    41    2
    12    41    42    1
    13    42    43    2
    14    34    35   ar
    15    35    36   ar
    16    28     1    1
    17     1     2    1
    18     2     3    1
    19     3     4    1
    20     3    12    1
    21    12    13   ar
    22    13    14   ar
    23    14    15   ar
    24    15    16    1
    25    15    17   ar
    26    17    18   ar
    27    18    19    1
    28     3     5    1
    29     5    44    1
    30    44    45    1
    31     5     6    1
    32     6     7   am
    33     7     8    2
    34     7     9   am
    35     9    20    1
    36    20    21   ar
    37    21    22   ar
    38    22    23   ar
    39    23    24    1
    40    23    25   ar
    41    25    26   ar
    42    36    31   ar
    43     6     1    1
    44    26    20   ar
    45    42    37    1
    46    18    12   ar
    47    29    30    1
    48     4    10    1
    49    45    46    1
    50     9    11    1
@<TRIPOS>MOLECULE
*****
 46 50 0 0 0
SMALL
GASTEIGER

@<TRIPOS>ATOM
      1 C          -7.6055  -10.6514   30.1409 C.3     1  UNL1        0.1562
      2 C          -8.0907   -9.3806   29.4321 C.3     1  UNL1        0.0622
      3 C          -9.3103   -8.8922   30.2524 C.3     1  UNL1        0.1301
      4 O         -10.4474   -9.6215   29.8502 O.3     1  UNL1       -0.3808
      5 C          -8.9427   -9.3515   31.6893 C.3     1  UNL1        0.1348
      6 N          -8.1719  -10.5795   31.4831 N.am    1  UNL1       -0.2536
      7 C          -7.8169  -11.5078   32.5280 C.2     1  UNL1        0.3081
      8 O          -6.7212  -12.1266   32.4649 O.2     1  UNL1       -0.2522
      9 N          -8.6640  -11.7114   33.6677 N.am    1  UNL1       -0.2681
     10 H         -10.6474   -9.3770   28.9081 H       1  UNL1        0.2107
     11 H          -8.2024  -11.8703   34.5918 H       1  UNL1        0.1564
     12 C          -9.6389   -7.3932   30.1334 C.ar    1  UNL1        0.0310
     13 C          -8.6752   -6.4359   29.7420 C.ar    1  UNL1        0.0026
     14 C          -9.0197   -5.0876   29.6120 C.ar    1  UNL1        0.0295
     15 C         -10.3311   -4.6721   29.8400 C.ar    1  UNL1        0.1424
     16 F         -10.6612   -3.3636   29.7088 F       1  UNL1       -0.2041
     17 C         -11.3072   -5.6076   30.1816 C.ar    1  UNL1        0.0590
     18 C         -10.9731   -6.9587   30.3137 C.ar    1  UNL1        0.1406
     19 F         -11.9583   -7.8434   30.6109 F       1  UNL1       -0.2044
     20 C         -10.0962  -11.8034   33.5978 C.ar    1  UNL1        0.0516
     21 C         -10.8863  -10.6861   33.2718 C.ar    1  UNL1        0.0156
     22 C         -12.2786  -10.7974   33.2200 C.ar    1  UNL1        0.0127
     23 C         -12.8938  -12.0262   33.4781 C.ar    1  UNL1        0.0578
     24 CL        -14.6413  -12.1640   33.4141 Cl      1  UNL1       -0.0822
     25 C         -12.1136  -13.1466   33.7806 C.ar    1  UNL1        0.0127
     26 C         -10.7206  -13.0372   33.8344 C.ar    1  UNL1        0.0156
     27 O          -9.2410  -12.3104   29.5594 O.2     1  UNL1       -0.2730
     28 C          -8.0509  -11.9113   29.4389 C.2     1  UNL1        0.2454
     29 N          -7.0964  -12.6926   28.7022 N.am    1  UNL1       -0.2680
     30 H          -6.0808  -12.5100   28.8660 H       1  UNL1        0.1563
     31 C          -7.4396  -13.8028   27.8589 C.ar    1  UNL1        0.1346
     32 C          -6.4650  -14.5028   27.1289 C.ar    1  UNL1        0.0406
     33 C          -6.8451  -15.5913   26.3424 C.ar    1  UNL1        0.0736
     34 C          -8.1878  -15.9926   26.2967 C.ar    1  UNL1        0.2466
     35 C          -9.1273  -15.2781   27.0541 C.ar    1  UNL1        0.1691
     36 N          -8.7342  -14.2206   27.8122 N.ar    1  UNL1       -0.2228
     37 N          -8.5975  -17.1100   25.4823 N.am    1  UNL1       -0.0841
     38 C          -9.3929  -18.0754   26.0390 C.2     1  UNL1        0.2905
     39 C          -9.8209  -19.1691   25.2841 C.2     1  UNL1        0.0758
     40 C          -9.4301  -19.2762   23.9518 C.2     1  UNL1        0.0161
     41 C          -8.6153  -18.2957   23.3901 C.2     1  UNL1        0.1156
     42 C          -8.1988  -17.2122   24.1713 C.2     1  UNL1        0.4230
     43 O          -7.4417  -16.3433   23.6574 O.2     1  UNL1       -0.2135
     44 C          -8.0861   -8.3282   32.4719 C.3     1  UNL1        0.1596
     45 O          -7.6931   -8.8690   33.7027 O.3     1  UNL1       -0.3801
     46 H          -7.1213   -8.1837   34.1368 H       1  UNL1        0.2105
@<TRIPOS>BOND
     1    27    28    2
     2    28    29   am
     3    29    31    1
     4    31    32   ar
     5    32    33   ar
     6    33    34   ar
     7    34    37    1
     8    37    38    1
     9    38    39    2
    10    39    40    1
    11    40    41    2
    12    41    42    1
    13    42    43    2
    14    34    35   ar
    15    35    36   ar
    16    28     1    1
    17     1     2    1
    18     2     3    1
    19     3     4    1
    20     3    12    1
    21    12    13   ar
    22    13    14   ar
    23    14    15   ar
    24    15    16    1
    25    15    17   ar
    26    17    18   ar
    27    18    19    1
    28     3     5    1
    29     5    44    1
    30    44    45    1
    31     5     6    1
    32     6     7   am
    33     7     8    2
    34     7     9   am
    35     9    20    1
    36    20    21   ar
    37    21    22   ar
    38    22    23   ar
    39    23    24    1
    40    23    25   ar
    41    25    26   ar
    42    36    31   ar
    43     6     1    1
    44    26    20   ar
    45    42    37    1
    46    18    12   ar
    47    29    30    1
    48     4    10    1
    49    45    46    1
    50     9    11    1
@<TRIPOS>MOLECULE
*****
 46 50 0 0 0
SMALL
GASTEIGER

@<TRIPOS>ATOM
      1 C          -6.1747   -8.9429   29.7419 C.3     1  UNL1        0.1562
      2 C          -7.0108   -7.7444   29.2758 C.3     1  UNL1        0.0622
      3 C          -8.4030   -7.9360   29.9268 C.3     1  UNL1        0.1301
      4 O          -9.1495   -8.8374   29.1412 O.3     1  UNL1       -0.3808
      5 C          -8.0463   -8.6561   31.2552 C.3     1  UNL1        0.1348
      6 N          -6.8656   -9.4550   30.9200 N.am    1  UNL1       -0.2536
      7 C          -6.3094  -10.4858   31.7613 C.2     1  UNL1        0.3081
      8 O          -5.0638  -10.6746   31.7733 O.2     1  UNL1       -0.2522
      9 N          -7.1392  -11.2759   32.6245 N.am    1  UNL1       -0.2681
     10 H          -9.3249   -8.4032   28.2648 H       1  UNL1        0.2107
     11 H          -6.7506  -11.5441   33.5569 H       1  UNL1        0.1564
     12 C          -9.2385   -6.6560   30.1070 C.ar    1  UNL1        0.0310
     13 C          -8.7935   -5.3921   29.6566 C.ar    1  UNL1        0.0026
     14 C          -9.5953   -4.2572   29.8075 C.ar    1  UNL1        0.0295
     15 C         -10.8619   -4.3626   30.3810 C.ar    1  UNL1        0.1424
     16 F         -11.6374   -3.2595   30.5217 F       1  UNL1       -0.2041
     17 C         -11.3385   -5.6079   30.7894 C.ar    1  UNL1        0.0590
     18 C         -10.5446   -6.7493   30.6425 C.ar    1  UNL1        0.1406
     19 F         -11.0582   -7.9481   31.0177 F       1  UNL1       -0.2044
     20 C          -8.4247  -11.7955   32.2481 C.ar    1  UNL1        0.0516
     21 C          -8.7668  -11.9950   30.8982 C.ar    1  UNL1        0.0156
     22 C         -10.0275  -12.4920   30.5557 C.ar    1  UNL1        0.0127
     23 C         -10.9519  -12.8082   31.5560 C.ar    1  UNL1        0.0578
     24 CL        -12.5341  -13.4304   31.1246 Cl      1  UNL1       -0.0822
     25 C         -10.6107  -12.6339   32.9010 C.ar    1  UNL1        0.0127
     26 C          -9.3506  -12.1354   33.2457 C.ar    1  UNL1        0.0156
     27 O          -5.9180   -9.6866   27.4733 O.2     1  UNL1       -0.2730
     28 C          -6.0569  -10.0127   28.6835 C.2     1  UNL1        0.2454
     29 N          -6.1840  -11.3959   29.0505 N.am    1  UNL1       -0.2680
     30 H          -6.5918  -11.6208   29.9858 H       1  UNL1        0.1563
     31 C          -5.9180  -12.4947   28.1654 C.ar    1  UNL1        0.1346
     32 C          -6.7202  -13.6476   28.1597 C.ar    1  UNL1        0.0406
     33 C          -6.4360  -14.6785   27.2628 C.ar    1  UNL1        0.0736
     34 C          -5.3682  -14.5546   26.3627 C.ar    1  UNL1        0.2466
     35 C          -4.6023  -13.3801   26.3884 C.ar    1  UNL1        0.1691
     36 N          -4.8970  -12.3895   27.2713 N.ar    1  UNL1       -0.2228
     37 N          -5.0567  -15.6145   25.4356 N.am    1  UNL1       -0.0841
     38 C          -4.2765  -16.6556   25.8619 C.2     1  UNL1        0.2905
     39 C          -3.9586  -17.7075   25.0005 C.2     1  UNL1        0.0758
     40 C          -4.4405  -17.6919   23.6941 C.2     1  UNL1        0.0161
     41 C          -5.2287  -16.6278   23.2613 C.2     1  UNL1        0.1156
     42 C          -5.5287  -15.5855   24.1454 C.2     1  UNL1        0.4230
     43 O          -6.2238  -14.6161   23.7341 O.2     1  UNL1       -0.2135
     44 C          -7.7059   -7.6919   32.4162 C.3     1  UNL1        0.1596
     45 O          -7.5331   -8.4108   33.6057 O.3     1  UNL1       -0.3801
     46 H          -7.2830   -7.7453   34.2982 H       1  UNL1        0.2105
@<TRIPOS>BOND
     1    27    28    2
     2    28    29   am
     3    29    31    1
     4    31    32   ar
     5    32    33   ar
     6    33    34   ar
     7    34    37    1
     8    37    38    1
     9    38    39    2
    10    39    40    1
    11    40    41    2
    12    41    42    1
    13    42    43    2
    14    34    35   ar
    15    35    36   ar
    16    28     1    1
    17     1     2    1
    18     2     3    1
    19     3     4    1
    20     3    12    1
    21    12    13   ar
    22    13    14   ar
    23    14    15   ar
    24    15    16    1
    25    15    17   ar
    26    17    18   ar
    27    18    19    1
    28     3     5    1
    29     5    44    1
    30    44    45    1
    31     5     6    1
    32     6     7   am
    33     7     8    2
    34     7     9   am
    35     9    20    1
    36    20    21   ar
    37    21    22   ar
    38    22    23   ar
    39    23    24    1
    40    23    25   ar
    41    25    26   ar
    42    36    31   ar
    43     6     1    1
    44    26    20   ar
    45    42    37    1
    46    18    12   ar
    47    29    30    1
    48     4    10    1
    49    45    46    1
    50     9    11    1
@<TRIPOS>MOLECULE
*****
 46 50 0 0 0
SMALL
GASTEIGER

@<TRIPOS>ATOM
      1 C          -7.6349  -10.6795   30.0952 C.3     1  UNL1        0.1562
      2 C          -8.1418   -9.4270   29.3693 C.3     1  UNL1        0.0622
      3 C          -9.3647   -8.9438   30.1876 C.3     1  UNL1        0.1301
      4 O         -10.4928   -9.6956   29.8018 O.3     1  UNL1       -0.3808
      5 C          -8.9842   -9.3755   31.6296 C.3     1  UNL1        0.1348
      6 N          -8.1966  -10.5953   31.4387 N.am    1  UNL1       -0.2536
      7 C          -7.8235  -11.5021   32.4961 C.2     1  UNL1        0.3081
      8 O          -6.7192  -12.1059   32.4375 O.2     1  UNL1       -0.2522
      9 N          -8.6626  -11.7005   33.6427 N.am    1  UNL1       -0.2681
     10 H         -10.7005   -9.4686   28.8570 H       1  UNL1        0.2107
     11 H          -8.1946  -11.8385   34.5669 H       1  UNL1        0.1564
     12 C          -9.7157   -7.4518   30.0472 C.ar    1  UNL1        0.0310
     13 C         -11.0190   -6.9558   30.2796 C.ar    1  UNL1        0.0026
     14 C         -11.2921   -5.5890   30.1755 C.ar    1  UNL1        0.0295
     15 C         -10.2718   -4.6898   29.8677 C.ar    1  UNL1        0.1424
     16 F         -10.5410   -3.3645   29.7715 F       1  UNL1       -0.2041
     17 C          -8.9699   -5.1532   29.6805 C.ar    1  UNL1        0.0590
     18 C          -8.6861   -6.5183   29.7829 C.ar    1  UNL1        0.1406
     19 F          -7.4006   -6.9257   29.6309 F       1  UNL1       -0.2044
     20 C         -10.0935  -11.8143   33.5808 C.ar    1  UNL1        0.0516
     21 C         -10.7422  -13.0365   33.8348 C.ar    1  UNL1        0.0156
     22 C         -12.1350  -13.1254   33.7585 C.ar    1  UNL1        0.0127
     23 C         -12.8934  -11.9939   33.4430 C.ar    1  UNL1        0.0578
     24 CL        -14.6411  -12.1073   33.3461 Cl      1  UNL1       -0.0822
     25 C         -12.2571  -10.7703   33.2114 C.ar    1  UNL1        0.0127
     26 C         -10.8637  -10.6795   33.2858 C.ar    1  UNL1        0.0156
     27 O          -9.2330  -12.3987   29.5891 O.2     1  UNL1       -0.2730
     28 C          -8.0651  -11.9565   29.4146 C.2     1  UNL1        0.2454
     29 N          -7.1168  -12.7037   28.6358 N.am    1  UNL1       -0.2680
     30 H          -6.1022  -12.4835   28.7533 H       1  UNL1        0.1563
     31 C          -7.4567  -13.8274   27.8093 C.ar    1  UNL1        0.1346
     32 C          -6.4844  -14.5167   27.0661 C.ar    1  UNL1        0.0406
     33 C          -6.8605  -15.6189   26.2970 C.ar    1  UNL1        0.0736
     34 C          -8.1963  -16.0445   26.2818 C.ar    1  UNL1        0.2466
     35 C          -9.1332  -15.3399   27.0517 C.ar    1  UNL1        0.1691
     36 N          -8.7442  -14.2687   27.7924 N.ar    1  UNL1       -0.2228
     37 N          -8.6021  -17.1764   25.4857 N.am    1  UNL1       -0.0841
     38 C          -9.4399  -18.1065   26.0403 C.2     1  UNL1        0.2905
     39 C          -9.8654  -19.2126   25.3022 C.2     1  UNL1        0.0758
     40 C          -9.4286  -19.3685   23.9892 C.2     1  UNL1        0.0161
     41 C          -8.5709  -18.4238   23.4298 C.2     1  UNL1        0.1156
     42 C          -8.1580  -17.3269   24.1941 C.2     1  UNL1        0.4230
     43 O          -7.3623  -16.4911   23.6837 O.2     1  UNL1       -0.2135
     44 C          -8.1392   -8.3281   32.3926 C.3     1  UNL1        0.1596
     45 O          -7.7282   -8.8462   33.6272 O.3     1  UNL1       -0.3801
     46 H          -7.1648   -8.1459   34.0482 H       1  UNL1        0.2105
@<TRIPOS>BOND
     1    27    28    2
     2    28    29   am
     3    29    31    1
     4    31    32   ar
     5    32    33   ar
     6    33    34   ar
     7    34    37    1
     8    37    38    1
     9    38    39    2
    10    39    40    1
    11    40    41    2
    12    41    42    1
    13    42    43    2
    14    34    35   ar
    15    35    36   ar
    16    28     1    1
    17     1     2    1
    18     2     3    1
    19     3     4    1
    20     3    12    1
    21    12    13   ar
    22    13    14   ar
    23    14    15   ar
    24    15    16    1
    25    15    17   ar
    26    17    18   ar
    27    18    19    1
    28     3     5    1
    29     5    44    1
    30    44    45    1
    31     5     6    1
    32     6     7   am
    33     7     8    2
    34     7     9   am
    35     9    20    1
    36    20    21   ar
    37    21    22   ar
    38    22    23   ar
    39    23    24    1
    40    23    25   ar
    41    25    26   ar
    42    36    31   ar
    43     6     1    1
    44    26    20   ar
    45    42    37    1
    46    18    12   ar
    47    29    30    1
    48     4    10    1
    49    45    46    1
    50     9    11    1
