@<TRIPOS>MOLECULE
*****
 50 55 0 0 0
SMALL
GASTEIGER

@<TRIPOS>ATOM
      1 O         -60.8075  -47.7546  -24.1732 O.2     1  UNL1       -0.2701
      2 C         -61.9113  -47.1502  -24.2622 C.2     1  UNL1        0.2483
      3 N         -62.9678  -47.7078  -25.0598 N.am    1  UNL1       -0.2945
      4 H         -63.7984  -47.1131  -25.2796 H       1  UNL1        0.1501
      5 C         -62.0853  -45.8548  -23.5679 C.ar    1  UNL1        0.0808
      6 C         -62.5134  -45.8377  -22.2308 C.ar    1  UNL1        0.0080
      7 C         -62.6793  -44.6278  -21.5526 C.ar    1  UNL1        0.0148
      8 C         -62.4296  -43.4048  -22.1995 C.ar    1  UNL1        0.0502
      9 C         -62.0233  -43.4223  -23.5451 C.ar    1  UNL1        0.0443
     10 C         -61.8543  -44.6321  -24.2259 C.ar    1  UNL1        0.1457
     11 F         -61.5122  -44.5983  -25.5389 F       1  UNL1       -0.2040
     12 N         -62.6053  -42.1520  -21.5007 N.pl3   1  UNL1       -0.3040
     13 C         -61.8945  -40.9468  -21.9509 C.3     1  UNL1        0.1123
     14 C         -62.7235  -39.6892  -21.6679 C.3     1  UNL1        0.1136
     15 N         -63.2132  -39.6550  -20.2794 N.pl3   1  UNL1       -0.2897
     16 C         -63.1051  -40.8567  -19.4398 C.3     1  UNL1        0.1136
     17 C         -63.3984  -42.1153  -20.2620 C.3     1  UNL1        0.1123
     18 C         -63.6694  -38.4138  -19.6952 C.ar    1  UNL1        0.1341
     19 C         -64.7451  -38.3814  -18.7916 C.ar    1  UNL1        0.0344
     20 C         -65.1569  -37.1633  -18.2492 C.ar    1  UNL1        0.0106
     21 C         -64.5029  -35.9725  -18.6037 C.ar    1  UNL1        0.1173
     22 C         -63.4264  -36.0470  -19.5027 C.ar    1  UNL1        0.2273
     23 F         -62.7530  -34.9273  -19.8679 F       1  UNL1       -0.1832
     24 N         -63.0451  -37.2460  -20.0165 N.ar    1  UNL1       -0.2031
     25 C         -64.9185  -34.6404  -18.0286 C.3     1  UNL1        0.4221
     26 F         -65.2157  -34.7917  -16.6865 F       1  UNL1       -0.1657
     27 F         -63.8820  -33.7342  -18.1624 F       1  UNL1       -0.1657
     28 F         -66.0326  -34.1299  -18.6726 F       1  UNL1       -0.1657
     29 C         -62.8853  -49.0629  -25.6193 C.3     1  UNL1        0.1535
     30 C         -63.9647  -49.9418  -25.0256 C.2     1  UNL1        0.2443
     31 O         -65.1743  -49.6783  -25.2650 O.2     1  UNL1       -0.2730
     32 N         -63.6495  -51.1495  -24.3133 N.am    1  UNL1       -0.2825
     33 H         -64.3687  -51.9077  -24.2998 H       1  UNL1        0.1549
     34 C         -62.3689  -51.4316  -23.7335 C.ar    1  UNL1        0.0535
     35 C         -61.7255  -52.6403  -24.0244 C.ar    1  UNL1        0.0353
     36 C         -60.4852  -52.9165  -23.4435 C.ar    1  UNL1        0.1002
     37 N         -59.9198  -52.0248  -22.5866 N.ar    1  UNL1       -0.2422
     38 C         -60.5356  -50.8556  -22.2668 C.ar    1  UNL1        0.1002
     39 C         -61.7771  -50.5422  -22.8250 C.ar    1  UNL1        0.0353
     40 C         -63.0332  -49.0330  -27.1515 C.3     1  UNL1        0.0569
     41 C         -62.9763  -47.6260  -27.6713 C.ar    1  UNL1       -0.0017
     42 C         -64.0516  -46.7641  -27.8653 C.ar    1  UNL1        0.0681
     43 N         -63.6145  -45.5474  -28.2642 N.ar    1  UNL1       -0.3523
     44 C         -62.2735  -45.6313  -28.3127 C.ar    1  UNL1        0.0563
     45 C         -61.3740  -44.6205  -28.6495 C.ar    1  UNL1        0.0170
     46 C         -60.0001  -44.9232  -28.6113 C.ar    1  UNL1        0.0015
     47 C         -59.5613  -46.2135  -28.2392 C.ar    1  UNL1        0.0001
     48 C         -60.4920  -47.2129  -27.9037 C.ar    1  UNL1        0.0012
     49 C         -61.8466  -46.8837  -27.9539 C.ar    1  UNL1        0.0131
     50 H         -64.2024  -44.7103  -28.4744 H       1  UNL1        0.1660
@<TRIPOS>BOND
     1     1     2    2
     2     2     3   am
     3     3    29    1
     4    29    40    1
     5    40    41    1
     6    41    42   ar
     7    42    43   ar
     8    43    44   ar
     9    44    45   ar
    10    45    46   ar
    11    46    47   ar
    12    47    48   ar
    13    48    49   ar
    14    29    30    1
    15    30    31    2
    16    30    32   am
    17    32    34    1
    18    34    35   ar
    19    35    36   ar
    20    36    37   ar
    21    37    38   ar
    22    38    39   ar
    23     2     5    1
    24     5     6   ar
    25     6     7   ar
    26     7     8   ar
    27     8    12    1
    28    12    13    1
    29    13    14    1
    30    14    15    1
    31    15    18    1
    32    18    19   ar
    33    19    20   ar
    34    20    21   ar
    35    21    25    1
    36    25    26    1
    37    25    27    1
    38    25    28    1
    39    21    22   ar
    40    22    23    1
    41    22    24   ar
    42    15    16    1
    43    16    17    1
    44     8     9   ar
    45     9    10   ar
    46    10    11    1
    47    49    41   ar
    48    39    34   ar
    49    10     5   ar
    50    49    44   ar
    51    17    12    1
    52    24    18   ar
    53     3     4    1
    54    43    50    1
    55    32    33    1
@<TRIPOS>MOLECULE
*****
 50 55 0 0 0
SMALL
GASTEIGER

@<TRIPOS>ATOM
      1 O         -60.9751  -45.5665  -27.7106 O.2     1  UNL1       -0.2701
      2 C         -62.1345  -45.4620  -27.2242 C.2     1  UNL1        0.2483
      3 N         -63.1992  -46.2791  -27.7363 N.am    1  UNL1       -0.2945
      4 H         -64.1820  -46.0520  -27.4636 H       1  UNL1        0.1501
      5 C         -62.3841  -44.4706  -26.1541 C.ar    1  UNL1        0.0808
      6 C         -61.9700  -44.7490  -24.8417 C.ar    1  UNL1        0.0080
      7 C         -62.1892  -43.8264  -23.8161 C.ar    1  UNL1        0.0148
      8 C         -62.8368  -42.6063  -24.0774 C.ar    1  UNL1        0.0502
      9 C         -63.2715  -42.3385  -25.3873 C.ar    1  UNL1        0.0443
     10 C         -63.0515  -43.2593  -26.4165 C.ar    1  UNL1        0.1457
     11 F         -63.5355  -42.9813  -27.6536 F       1  UNL1       -0.2040
     12 N         -63.0686  -41.6526  -23.0165 N.pl3   1  UNL1       -0.3040
     13 C         -62.0153  -41.3709  -22.0307 C.3     1  UNL1        0.1123
     14 C         -62.0997  -39.9198  -21.5447 C.3     1  UNL1        0.1136
     15 N         -63.4664  -39.5568  -21.1336 N.pl3   1  UNL1       -0.2897
     16 C         -64.5858  -40.4533  -21.4561 C.3     1  UNL1        0.1136
     17 C         -64.4046  -41.0592  -22.8513 C.3     1  UNL1        0.1123
     18 C         -63.6956  -38.3998  -20.2976 C.ar    1  UNL1        0.1341
     19 C         -64.6998  -38.3939  -19.3145 C.ar    1  UNL1        0.0344
     20 C         -64.8911  -37.2574  -18.5275 C.ar    1  UNL1        0.0106
     21 C         -64.0870  -36.1219  -18.7152 C.ar    1  UNL1        0.1173
     22 C         -63.0880  -36.1698  -19.7013 C.ar    1  UNL1        0.2273
     23 F         -62.2761  -35.1039  -19.9140 F       1  UNL1       -0.1832
     24 N         -62.9223  -37.2889  -20.4543 N.ar    1  UNL1       -0.2031
     25 C         -64.2629  -34.8804  -17.8751 C.3     1  UNL1        0.4221
     26 F         -63.0726  -34.1773  -17.8388 F       1  UNL1       -0.1657
     27 F         -65.2439  -34.0795  -18.4316 F       1  UNL1       -0.1657
     28 F         -64.6333  -35.1888  -16.5773 F       1  UNL1       -0.1657
     29 C         -62.9495  -47.3818  -28.6732 C.3     1  UNL1        0.1535
     30 C         -63.7808  -48.5886  -28.2959 C.2     1  UNL1        0.2443
     31 O         -64.5471  -49.1018  -29.1558 O.2     1  UNL1       -0.2730
     32 N         -63.6189  -49.2530  -27.0319 N.am    1  UNL1       -0.2825
     33 H         -63.8690  -50.2664  -26.9798 H       1  UNL1        0.1549
     34 C         -63.0168  -48.6521  -25.8776 C.ar    1  UNL1        0.0535
     35 C         -61.6349  -48.7574  -25.6807 C.ar    1  UNL1        0.0353
     36 C         -61.0562  -48.1838  -24.5457 C.ar    1  UNL1        0.1002
     37 N         -61.8352  -47.5466  -23.6312 N.ar    1  UNL1       -0.2422
     38 C         -63.1828  -47.4530  -23.7852 C.ar    1  UNL1        0.1002
     39 C         -63.8005  -48.0142  -24.9053 C.ar    1  UNL1        0.0353
     40 C         -63.2819  -46.9606  -30.1163 C.3     1  UNL1        0.0569
     41 C         -63.9911  -45.6379  -30.1421 C.ar    1  UNL1       -0.0017
     42 C         -65.2955  -45.3823  -29.7297 C.ar    1  UNL1        0.0681
     43 N         -65.5668  -44.0597  -29.8168 N.ar    1  UNL1       -0.3523
     44 C         -64.4423  -43.4782  -30.2698 C.ar    1  UNL1        0.0563
     45 C         -64.2254  -42.1201  -30.4998 C.ar    1  UNL1        0.0170
     46 C         -62.9537  -41.7252  -30.9552 C.ar    1  UNL1        0.0015
     47 C         -61.9386  -42.6850  -31.1657 C.ar    1  UNL1        0.0001
     48 C         -62.1863  -44.0481  -30.9242 C.ar    1  UNL1        0.0012
     49 C         -63.4571  -44.4090  -30.4764 C.ar    1  UNL1        0.0131
     50 H         -66.4641  -43.5880  -29.5659 H       1  UNL1        0.1660
@<TRIPOS>BOND
     1     1     2    2
     2     2     3   am
     3     3    29    1
     4    29    40    1
     5    40    41    1
     6    41    42   ar
     7    42    43   ar
     8    43    44   ar
     9    44    45   ar
    10    45    46   ar
    11    46    47   ar
    12    47    48   ar
    13    48    49   ar
    14    29    30    1
    15    30    31    2
    16    30    32   am
    17    32    34    1
    18    34    35   ar
    19    35    36   ar
    20    36    37   ar
    21    37    38   ar
    22    38    39   ar
    23     2     5    1
    24     5     6   ar
    25     6     7   ar
    26     7     8   ar
    27     8    12    1
    28    12    13    1
    29    13    14    1
    30    14    15    1
    31    15    18    1
    32    18    19   ar
    33    19    20   ar
    34    20    21   ar
    35    21    25    1
    36    25    26    1
    37    25    27    1
    38    25    28    1
    39    21    22   ar
    40    22    23    1
    41    22    24   ar
    42    15    16    1
    43    16    17    1
    44     8     9   ar
    45     9    10   ar
    46    10    11    1
    47    49    41   ar
    48    39    34   ar
    49    10     5   ar
    50    49    44   ar
    51    17    12    1
    52    24    18   ar
    53     3     4    1
    54    43    50    1
    55    32    33    1
@<TRIPOS>MOLECULE
*****
 50 55 0 0 0
SMALL
GASTEIGER

@<TRIPOS>ATOM
      1 O         -59.7256  -46.4037  -25.9618 O.2     1  UNL1       -0.2701
      2 C         -60.5521  -45.5195  -26.3177 C.2     1  UNL1        0.2483
      3 N         -60.9845  -45.4565  -27.6861 N.am    1  UNL1       -0.2945
      4 H         -61.5127  -44.6143  -28.0075 H       1  UNL1        0.1501
      5 C         -61.0360  -44.5378  -25.3215 C.ar    1  UNL1        0.0808
      6 C         -60.6916  -43.1837  -25.4597 C.ar    1  UNL1        0.0080
      7 C         -61.1412  -42.2376  -24.5355 C.ar    1  UNL1        0.0148
      8 C         -61.9390  -42.6256  -23.4449 C.ar    1  UNL1        0.0502
      9 C         -62.2641  -43.9850  -23.2947 C.ar    1  UNL1        0.0443
     10 C         -61.8172  -44.9340  -24.2196 C.ar    1  UNL1        0.1457
     11 F         -62.1113  -46.2415  -24.0050 F       1  UNL1       -0.2040
     12 N         -62.4011  -41.6488  -22.4852 N.pl3   1  UNL1       -0.3040
     13 C         -61.5508  -41.2672  -21.3487 C.3     1  UNL1        0.1123
     14 C         -61.7949  -39.8067  -20.9533 C.3     1  UNL1        0.1136
     15 N         -63.2295  -39.5120  -20.7989 N.pl3   1  UNL1       -0.2897
     16 C         -64.2270  -40.4860  -21.2649 C.3     1  UNL1        0.1136
     17 C         -63.7753  -41.1315  -22.5785 C.3     1  UNL1        0.1123
     18 C         -63.6611  -38.3405  -20.0697 C.ar    1  UNL1        0.1341
     19 C         -64.8000  -38.3683  -19.2470 C.ar    1  UNL1        0.0344
     20 C         -65.1854  -37.2166  -18.5596 C.ar    1  UNL1        0.0106
     21 C         -64.4420  -36.0324  -18.6881 C.ar    1  UNL1        0.1173
     22 C         -63.3049  -36.0470  -19.5124 C.ar    1  UNL1        0.2273
     23 F         -62.5452  -34.9328  -19.6607 F       1  UNL1       -0.1832
     24 N         -62.9511  -37.1820  -20.1709 N.ar    1  UNL1       -0.2031
     25 C         -64.8275  -34.7726  -17.9517 C.3     1  UNL1        0.4221
     26 F         -65.1666  -35.0874  -16.6485 F       1  UNL1       -0.1657
     27 F         -63.7572  -33.8963  -17.9409 F       1  UNL1       -0.1657
     28 F         -65.9051  -34.1405  -18.5480 F       1  UNL1       -0.1657
     29 C         -60.6553  -46.5113  -28.6533 C.3     1  UNL1        0.1535
     30 C         -59.2522  -46.3153  -29.1852 C.2     1  UNL1        0.2443
     31 O         -58.3020  -46.9647  -28.6699 O.2     1  UNL1       -0.2730
     32 N         -58.9903  -45.5180  -30.3518 N.am    1  UNL1       -0.2825
     33 H         -58.1377  -45.7428  -30.9129 H       1  UNL1        0.1549
     34 C         -59.8871  -44.5245  -30.8661 C.ar    1  UNL1        0.0535
     35 C         -60.5884  -43.6968  -29.9814 C.ar    1  UNL1        0.0353
     36 C         -61.4731  -42.7415  -30.4881 C.ar    1  UNL1        0.1002
     37 N         -61.6645  -42.6332  -31.8300 N.ar    1  UNL1       -0.2422
     38 C         -61.0159  -43.4421  -32.7095 C.ar    1  UNL1        0.1002
     39 C         -60.1240  -44.4109  -32.2436 C.ar    1  UNL1        0.0353
     40 C         -60.7687  -47.9034  -28.0057 C.3     1  UNL1        0.0569
     41 C         -62.1440  -48.1279  -27.4476 C.ar    1  UNL1       -0.0017
     42 C         -63.3540  -47.9335  -28.1069 C.ar    1  UNL1        0.0681
     43 N         -64.3860  -48.3198  -27.3219 N.ar    1  UNL1       -0.3523
     44 C         -63.8370  -48.7659  -26.1785 C.ar    1  UNL1        0.0563
     45 C         -64.5001  -49.2914  -25.0701 C.ar    1  UNL1        0.0170
     46 C         -63.7202  -49.7236  -23.9812 C.ar    1  UNL1        0.0015
     47 C         -62.3116  -49.6244  -24.0252 C.ar    1  UNL1        0.0001
     48 C         -61.6704  -49.0908  -25.1573 C.ar    1  UNL1        0.0012
     49 C         -62.4701  -48.6681  -26.2192 C.ar    1  UNL1        0.0131
     50 H         -65.4011  -48.2912  -27.5653 H       1  UNL1        0.1660
@<TRIPOS>BOND
     1     1     2    2
     2     2     3   am
     3     3    29    1
     4    29    40    1
     5    40    41    1
     6    41    42   ar
     7    42    43   ar
     8    43    44   ar
     9    44    45   ar
    10    45    46   ar
    11    46    47   ar
    12    47    48   ar
    13    48    49   ar
    14    29    30    1
    15    30    31    2
    16    30    32   am
    17    32    34    1
    18    34    35   ar
    19    35    36   ar
    20    36    37   ar
    21    37    38   ar
    22    38    39   ar
    23     2     5    1
    24     5     6   ar
    25     6     7   ar
    26     7     8   ar
    27     8    12    1
    28    12    13    1
    29    13    14    1
    30    14    15    1
    31    15    18    1
    32    18    19   ar
    33    19    20   ar
    34    20    21   ar
    35    21    25    1
    36    25    26    1
    37    25    27    1
    38    25    28    1
    39    21    22   ar
    40    22    23    1
    41    22    24   ar
    42    15    16    1
    43    16    17    1
    44     8     9   ar
    45     9    10   ar
    46    10    11    1
    47    49    41   ar
    48    39    34   ar
    49    10     5   ar
    50    49    44   ar
    51    17    12    1
    52    24    18   ar
    53     3     4    1
    54    43    50    1
    55    32    33    1
@<TRIPOS>MOLECULE
*****
 50 55 0 0 0
SMALL
GASTEIGER

@<TRIPOS>ATOM
      1 O         -60.7356  -45.5055  -27.4118 O.2     1  UNL1       -0.2701
      2 C         -61.9337  -45.2850  -27.0840 C.2     1  UNL1        0.2483
      3 N         -62.9978  -45.9600  -27.7735 N.am    1  UNL1       -0.2945
      4 H         -63.9788  -45.6312  -27.6273 H       1  UNL1        0.1501
      5 C         -62.2227  -44.3045  -26.0138 C.ar    1  UNL1        0.0808
      6 C         -61.7670  -44.5494  -24.7085 C.ar    1  UNL1        0.0080
      7 C         -62.0223  -43.6360  -23.6830 C.ar    1  UNL1        0.0148
      8 C         -62.7483  -42.4593  -23.9371 C.ar    1  UNL1        0.0502
      9 C         -63.2239  -42.2261  -25.2394 C.ar    1  UNL1        0.0443
     10 C         -62.9680  -43.1377  -26.2685 C.ar    1  UNL1        0.1457
     11 F         -63.4920  -42.8970  -27.4971 F       1  UNL1       -0.2040
     12 N         -63.0174  -41.5155  -22.8762 N.pl3   1  UNL1       -0.3040
     13 C         -61.9659  -41.1678  -21.9098 C.3     1  UNL1        0.1123
     14 C         -62.1266  -39.7217  -21.4284 C.3     1  UNL1        0.1136
     15 N         -63.5050  -39.4369  -20.9953 N.pl3   1  UNL1       -0.2897
     16 C         -64.5754  -40.3988  -21.2949 C.3     1  UNL1        0.1136
     17 C         -64.3829  -41.0001  -22.6905 C.3     1  UNL1        0.1123
     18 C         -63.7873  -38.2911  -20.1601 C.ar    1  UNL1        0.1341
     19 C         -64.8875  -38.2751  -19.2860 C.ar    1  UNL1        0.0344
     20 C         -65.1275  -37.1499  -18.4961 C.ar    1  UNL1        0.0106
     21 C         -64.2767  -36.0356  -18.5728 C.ar    1  UNL1        0.1173
     22 C         -63.1825  -36.0934  -19.4516 C.ar    1  UNL1        0.2273
     23 F         -62.3234  -35.0484  -19.5541 F       1  UNL1       -0.1832
     24 N         -62.9710  -37.2012  -20.2098 N.ar    1  UNL1       -0.2031
     25 C         -64.5040  -34.8071  -17.7261 C.3     1  UNL1        0.4221
     26 F         -64.7547  -35.1884  -16.4207 F       1  UNL1       -0.1657
     27 F         -63.3745  -34.0091  -17.7546 F       1  UNL1       -0.1657
     28 F         -65.5780  -34.0623  -18.1826 F       1  UNL1       -0.1657
     29 C         -62.7394  -47.0551  -28.7170 C.3     1  UNL1        0.1535
     30 C         -63.6426  -48.2311  -28.4151 C.2     1  UNL1        0.2443
     31 O         -64.4120  -48.6638  -29.3155 O.2     1  UNL1       -0.2730
     32 N         -63.5490  -48.9587  -27.1793 N.am    1  UNL1       -0.2825
     33 H         -63.8532  -49.9585  -27.1795 H       1  UNL1        0.1549
     34 C         -62.9465  -48.4428  -25.9848 C.ar    1  UNL1        0.0535
     35 C         -61.5751  -48.6191  -25.7664 C.ar    1  UNL1        0.0353
     36 C         -60.9968  -48.1284  -24.5929 C.ar    1  UNL1        0.1002
     37 N         -61.7670  -47.5030  -23.6630 N.ar    1  UNL1       -0.2422
     38 C         -63.1057  -47.3419  -23.8385 C.ar    1  UNL1        0.1002
     39 C         -63.7226  -47.8192  -24.9972 C.ar    1  UNL1        0.0353
     40 C         -62.9664  -46.5932  -30.1680 C.3     1  UNL1        0.0569
     41 C         -62.7289  -45.1175  -30.3075 C.ar    1  UNL1       -0.0017
     42 C         -61.5242  -44.4916  -30.6136 C.ar    1  UNL1        0.0681
     43 N         -61.7056  -43.1569  -30.7414 N.ar    1  UNL1       -0.3523
     44 C         -63.0151  -42.9374  -30.5295 C.ar    1  UNL1        0.0563
     45 C         -63.6872  -41.7167  -30.5781 C.ar    1  UNL1        0.0170
     46 C         -65.0753  -41.7205  -30.3457 C.ar    1  UNL1        0.0015
     47 C         -65.7527  -42.9305  -30.0757 C.ar    1  UNL1        0.0001
     48 C         -65.0483  -44.1470  -30.0341 C.ar    1  UNL1        0.0012
     49 C         -63.6732  -44.1108  -30.2653 C.ar    1  UNL1        0.0131
     50 H         -60.9763  -42.4467  -30.9742 H       1  UNL1        0.1660
@<TRIPOS>BOND
     1     1     2    2
     2     2     3   am
     3     3    29    1
     4    29    40    1
     5    40    41    1
     6    41    42   ar
     7    42    43   ar
     8    43    44   ar
     9    44    45   ar
    10    45    46   ar
    11    46    47   ar
    12    47    48   ar
    13    48    49   ar
    14    29    30    1
    15    30    31    2
    16    30    32   am
    17    32    34    1
    18    34    35   ar
    19    35    36   ar
    20    36    37   ar
    21    37    38   ar
    22    38    39   ar
    23     2     5    1
    24     5     6   ar
    25     6     7   ar
    26     7     8   ar
    27     8    12    1
    28    12    13    1
    29    13    14    1
    30    14    15    1
    31    15    18    1
    32    18    19   ar
    33    19    20   ar
    34    20    21   ar
    35    21    25    1
    36    25    26    1
    37    25    27    1
    38    25    28    1
    39    21    22   ar
    40    22    23    1
    41    22    24   ar
    42    15    16    1
    43    16    17    1
    44     8     9   ar
    45     9    10   ar
    46    10    11    1
    47    49    41   ar
    48    39    34   ar
    49    10     5   ar
    50    49    44   ar
    51    17    12    1
    52    24    18   ar
    53     3     4    1
    54    43    50    1
    55    32    33    1
@<TRIPOS>MOLECULE
*****
 50 55 0 0 0
SMALL
GASTEIGER

@<TRIPOS>ATOM
      1 O         -73.5256  -56.2729  -25.3905 O.2     1  UNL1       -0.2701
      2 C         -72.4265  -56.0889  -24.7993 C.2     1  UNL1        0.2483
      3 N         -71.2039  -56.0768  -25.5535 N.am    1  UNL1       -0.2945
      4 H         -70.2957  -56.1156  -25.0382 H       1  UNL1        0.1501
      5 C         -72.4143  -55.9231  -23.3287 C.ar    1  UNL1        0.0808
      6 C         -73.5023  -56.3845  -22.5706 C.ar    1  UNL1        0.0080
      7 C         -73.5110  -56.2445  -21.1808 C.ar    1  UNL1        0.0148
      8 C         -72.4347  -55.6306  -20.5167 C.ar    1  UNL1        0.0502
      9 C         -71.3564  -55.1483  -21.2788 C.ar    1  UNL1        0.0443
     10 C         -71.3439  -55.2890  -22.6700 C.ar    1  UNL1        0.1457
     11 F         -70.3071  -54.7611  -23.3688 F       1  UNL1       -0.2040
     12 N         -72.4443  -55.4808  -19.0792 N.pl3   1  UNL1       -0.3040
     13 C         -71.5011  -56.2430  -18.2488 C.3     1  UNL1        0.1123
     14 C         -71.1186  -55.4507  -16.9938 C.3     1  UNL1        0.1136
     15 N         -72.3031  -54.9288  -16.2915 N.pl3   1  UNL1       -0.2897
     16 C         -73.6176  -54.9753  -16.9478 C.3     1  UNL1        0.1136
     17 C         -73.4846  -54.6594  -18.4407 C.3     1  UNL1        0.1123
     18 C         -72.2070  -54.5011  -14.9138 C.ar    1  UNL1        0.1341
     19 C         -72.3848  -53.1552  -14.5508 C.ar    1  UNL1        0.0344
     20 C         -72.2836  -52.7810  -13.2101 C.ar    1  UNL1        0.0106
     21 C         -72.0037  -53.7418  -12.2253 C.ar    1  UNL1        0.1173
     22 C         -71.8418  -55.0780  -12.6266 C.ar    1  UNL1        0.2273
     23 F         -71.5824  -56.0468  -11.7130 F       1  UNL1       -0.1832
     24 N         -71.9454  -55.4162  -13.9388 N.ar    1  UNL1       -0.2031
     25 C         -71.8962  -53.3709  -10.7663 C.3     1  UNL1        0.4221
     26 F         -72.3733  -52.0861  -10.5822 F       1  UNL1       -0.1657
     27 F         -72.6528  -54.2466  -10.0085 F       1  UNL1       -0.1657
     28 F         -70.5868  -53.4239  -10.3198 F       1  UNL1       -0.1657
     29 C         -71.1980  -56.0701  -27.0218 C.3     1  UNL1        0.1535
     30 C         -71.4664  -54.6742  -27.5407 C.2     1  UNL1        0.2443
     31 O         -70.9526  -53.6873  -26.9475 O.2     1  UNL1       -0.2730
     32 N         -72.1735  -54.4479  -28.7712 N.am    1  UNL1       -0.2825
     33 H         -71.9738  -53.5636  -29.2912 H       1  UNL1        0.1549
     34 C         -73.0335  -55.4111  -29.3946 C.ar    1  UNL1        0.0535
     35 C         -72.6586  -55.9924  -30.6116 C.ar    1  UNL1        0.0353
     36 C         -73.5084  -56.9182  -31.2223 C.ar    1  UNL1        0.1002
     37 N         -74.6990  -57.2344  -30.6464 N.ar    1  UNL1       -0.2422
     38 C         -75.0988  -56.6647  -29.4784 C.ar    1  UNL1        0.1002
     39 C         -74.2789  -55.7336  -28.8365 C.ar    1  UNL1        0.0353
     40 C         -69.8472  -56.5690  -27.5666 C.3     1  UNL1        0.0569
     41 C         -68.7022  -55.9440  -26.8236 C.ar    1  UNL1       -0.0017
     42 C         -67.9204  -54.8723  -27.2442 C.ar    1  UNL1        0.0681
     43 N         -67.0380  -54.5251  -26.2791 N.ar    1  UNL1       -0.3523
     44 C         -67.2640  -55.3609  -25.2504 C.ar    1  UNL1        0.0563
     45 C         -66.6160  -55.3777  -24.0158 C.ar    1  UNL1        0.0170
     46 C         -67.0319  -56.3311  -23.0678 C.ar    1  UNL1        0.0015
     47 C         -68.0755  -57.2339  -23.3706 C.ar    1  UNL1        0.0001
     48 C         -68.7114  -57.1926  -24.6242 C.ar    1  UNL1        0.0012
     49 C         -68.2751  -56.2388  -25.5440 C.ar    1  UNL1        0.0131
     50 H         -66.3366  -53.7527  -26.3223 H       1  UNL1        0.1660
@<TRIPOS>BOND
     1     1     2    2
     2     2     3   am
     3     3    29    1
     4    29    40    1
     5    40    41    1
     6    41    42   ar
     7    42    43   ar
     8    43    44   ar
     9    44    45   ar
    10    45    46   ar
    11    46    47   ar
    12    47    48   ar
    13    48    49   ar
    14    29    30    1
    15    30    31    2
    16    30    32   am
    17    32    34    1
    18    34    35   ar
    19    35    36   ar
    20    36    37   ar
    21    37    38   ar
    22    38    39   ar
    23     2     5    1
    24     5     6   ar
    25     6     7   ar
    26     7     8   ar
    27     8    12    1
    28    12    13    1
    29    13    14    1
    30    14    15    1
    31    15    18    1
    32    18    19   ar
    33    19    20   ar
    34    20    21   ar
    35    21    25    1
    36    25    26    1
    37    25    27    1
    38    25    28    1
    39    21    22   ar
    40    22    23    1
    41    22    24   ar
    42    15    16    1
    43    16    17    1
    44     8     9   ar
    45     9    10   ar
    46    10    11    1
    47    49    41   ar
    48    39    34   ar
    49    10     5   ar
    50    49    44   ar
    51    17    12    1
    52    24    18   ar
    53     3     4    1
    54    43    50    1
    55    32    33    1
@<TRIPOS>MOLECULE
*****
 50 55 0 0 0
SMALL
GASTEIGER

@<TRIPOS>ATOM
      1 O         -61.3237  -40.2436  -21.8806 O.2     1  UNL1       -0.2701
      2 C         -62.4853  -40.6799  -22.1084 C.2     1  UNL1        0.2483
      3 N         -63.5377  -40.4350  -21.1618 N.am    1  UNL1       -0.2945
      4 H         -64.4369  -40.9572  -21.2645 H       1  UNL1        0.1501
      5 C         -62.7347  -41.4690  -23.3353 C.ar    1  UNL1        0.0808
      6 C         -63.7355  -41.0594  -24.2308 C.ar    1  UNL1        0.0080
      7 C         -63.9853  -41.7845  -25.3983 C.ar    1  UNL1        0.0148
      8 C         -63.2455  -42.9429  -25.6933 C.ar    1  UNL1        0.0502
      9 C         -62.2594  -43.3651  -24.7846 C.ar    1  UNL1        0.0443
     10 C         -62.0056  -42.6400  -23.6161 C.ar    1  UNL1        0.1457
     11 F         -61.0813  -43.1145  -22.7429 F       1  UNL1       -0.2040
     12 N         -63.5059  -43.6969  -26.8984 N.pl3   1  UNL1       -0.3040
     13 C         -62.9286  -45.0374  -27.0728 C.3     1  UNL1        0.1123
     14 C         -63.8570  -45.9245  -27.9094 C.3     1  UNL1        0.1136
     15 N         -64.2887  -45.2541  -29.1476 N.pl3   1  UNL1       -0.2897
     16 C         -64.0352  -43.8169  -29.3234 C.3     1  UNL1        0.1136
     17 C         -64.2460  -43.0683  -28.0037 C.3     1  UNL1        0.1123
     18 C         -64.8320  -46.0233  -30.2445 C.ar    1  UNL1        0.1341
     19 C         -65.0909  -45.4348  -31.4942 C.ar    1  UNL1        0.0344
     20 C         -65.6164  -46.2103  -32.5286 C.ar    1  UNL1        0.0106
     21 C         -65.8883  -47.5726  -32.3253 C.ar    1  UNL1        0.1173
     22 C         -65.6074  -48.1262  -31.0654 C.ar    1  UNL1        0.2273
     23 F         -65.8402  -49.4403  -30.8211 F       1  UNL1       -0.1832
     24 N         -65.0958  -47.3492  -30.0747 N.ar    1  UNL1       -0.2031
     25 C         -66.4488  -48.4402  -33.4258 C.3     1  UNL1        0.4221
     26 F         -67.6335  -47.8935  -33.8840 F       1  UNL1       -0.1657
     27 F         -65.5458  -48.5027  -34.4719 F       1  UNL1       -0.1657
     28 F         -66.6983  -49.7286  -32.9851 F       1  UNL1       -0.1657
     29 C         -63.3634  -39.5195  -20.0271 C.3     1  UNL1        0.1535
     30 C         -64.6326  -38.7300  -19.7908 C.2     1  UNL1        0.2443
     31 O         -65.7457  -39.3184  -19.8598 O.2     1  UNL1       -0.2730
     32 N         -64.6014  -37.3620  -19.3517 N.am    1  UNL1       -0.2825
     33 H         -65.4223  -37.0059  -18.8117 H       1  UNL1        0.1549
     34 C         -63.4669  -36.4966  -19.4927 C.ar    1  UNL1        0.0535
     35 C         -62.7640  -36.4643  -20.7028 C.ar    1  UNL1        0.0353
     36 C         -61.6495  -35.6311  -20.8289 C.ar    1  UNL1        0.1002
     37 N         -61.2414  -34.8742  -19.7755 N.ar    1  UNL1       -0.2422
     38 C         -61.8905  -34.9067  -18.5812 C.ar    1  UNL1        0.1002
     39 C         -63.0083  -35.7274  -18.4136 C.ar    1  UNL1        0.0353
     40 C         -62.9960  -40.2949  -18.7488 C.3     1  UNL1        0.0569
     41 C         -64.0256  -41.3424  -18.4389 C.ar    1  UNL1       -0.0017
     42 C         -65.0790  -41.2355  -17.5358 C.ar    1  UNL1        0.0681
     43 N         -65.8541  -42.3435  -17.5824 N.ar    1  UNL1       -0.3523
     44 C         -65.3053  -43.1425  -18.5141 C.ar    1  UNL1        0.0563
     45 C         -65.7640  -44.3901  -18.9354 C.ar    1  UNL1        0.0170
     46 C         -65.0430  -45.0478  -19.9495 C.ar    1  UNL1        0.0015
     47 C         -63.8947  -44.4495  -20.5147 C.ar    1  UNL1        0.0001
     48 C         -63.4562  -43.1895  -20.0701 C.ar    1  UNL1        0.0012
     49 C         -64.1897  -42.5639  -19.0618 C.ar    1  UNL1        0.0131
     50 H         -66.7135  -42.5289  -17.0189 H       1  UNL1        0.1660
@<TRIPOS>BOND
     1     1     2    2
     2     2     3   am
     3     3    29    1
     4    29    40    1
     5    40    41    1
     6    41    42   ar
     7    42    43   ar
     8    43    44   ar
     9    44    45   ar
    10    45    46   ar
    11    46    47   ar
    12    47    48   ar
    13    48    49   ar
    14    29    30    1
    15    30    31    2
    16    30    32   am
    17    32    34    1
    18    34    35   ar
    19    35    36   ar
    20    36    37   ar
    21    37    38   ar
    22    38    39   ar
    23     2     5    1
    24     5     6   ar
    25     6     7   ar
    26     7     8   ar
    27     8    12    1
    28    12    13    1
    29    13    14    1
    30    14    15    1
    31    15    18    1
    32    18    19   ar
    33    19    20   ar
    34    20    21   ar
    35    21    25    1
    36    25    26    1
    37    25    27    1
    38    25    28    1
    39    21    22   ar
    40    22    23    1
    41    22    24   ar
    42    15    16    1
    43    16    17    1
    44     8     9   ar
    45     9    10   ar
    46    10    11    1
    47    49    41   ar
    48    39    34   ar
    49    10     5   ar
    50    49    44   ar
    51    17    12    1
    52    24    18   ar
    53     3     4    1
    54    43    50    1
    55    32    33    1
@<TRIPOS>MOLECULE
*****
 50 55 0 0 0
SMALL
GASTEIGER

@<TRIPOS>ATOM
      1 O         -61.4402  -40.2795  -21.5215 O.2     1  UNL1       -0.2701
      2 C         -62.6214  -40.5135  -21.8977 C.2     1  UNL1        0.2483
      3 N         -63.7272  -40.0517  -21.1056 N.am    1  UNL1       -0.2945
      4 H         -64.6842  -40.4114  -21.3213 H       1  UNL1        0.1501
      5 C         -62.8460  -41.2928  -23.1356 C.ar    1  UNL1        0.0808
      6 C         -63.6576  -40.7617  -24.1508 C.ar    1  UNL1        0.0080
      7 C         -63.8796  -41.4759  -25.3306 C.ar    1  UNL1        0.0148
      8 C         -63.3018  -42.7436  -25.5191 C.ar    1  UNL1        0.0502
      9 C         -62.5081  -43.2844  -24.4925 C.ar    1  UNL1        0.0443
     10 C         -62.2824  -42.5708  -23.3113 C.ar    1  UNL1        0.1457
     11 F         -61.5533  -43.1548  -22.3267 F       1  UNL1       -0.2040
     12 N         -63.5343  -43.4859  -26.7372 N.pl3   1  UNL1       -0.3040
     13 C         -62.8816  -44.7859  -26.9484 C.3     1  UNL1        0.1123
     14 C         -63.7679  -45.7083  -27.7925 C.3     1  UNL1        0.1136
     15 N         -64.2555  -45.0384  -29.0100 N.pl3   1  UNL1       -0.2897
     16 C         -64.0894  -43.5853  -29.1573 C.3     1  UNL1        0.1136
     17 C         -64.3255  -42.8787  -27.8189 C.3     1  UNL1        0.1123
     18 C         -64.7678  -45.8149  -30.1166 C.ar    1  UNL1        0.1341
     19 C         -65.0462  -45.2224  -31.3602 C.ar    1  UNL1        0.0344
     20 C         -65.5407  -46.0052  -32.4044 C.ar    1  UNL1        0.0106
     21 C         -65.7622  -47.3790  -32.2169 C.ar    1  UNL1        0.1173
     22 C         -65.4632  -47.9358  -30.9626 C.ar    1  UNL1        0.2273
     23 F         -65.6474  -49.2603  -30.7335 F       1  UNL1       -0.1832
     24 N         -64.9825  -47.1515  -29.9622 N.ar    1  UNL1       -0.2031
     25 C         -66.2881  -48.2543  -33.3282 C.3     1  UNL1        0.4221
     26 F         -67.5183  -47.7793  -33.7446 F       1  UNL1       -0.1657
     27 F         -65.4085  -48.2268  -34.3955 F       1  UNL1       -0.1657
     28 F         -66.4379  -49.5680  -32.9179 F       1  UNL1       -0.1657
     29 C         -63.5411  -39.1383  -19.9709 C.3     1  UNL1        0.1535
     30 C         -64.8394  -38.4304  -19.6495 C.2     1  UNL1        0.2443
     31 O         -64.8554  -37.5556  -18.7416 O.2     1  UNL1       -0.2730
     32 N         -66.0224  -38.6238  -20.4423 N.am    1  UNL1       -0.2825
     33 H         -66.7232  -37.8490  -20.4668 H       1  UNL1        0.1549
     34 C         -66.2410  -39.7512  -21.3009 C.ar    1  UNL1        0.0535
     35 C         -66.4041  -39.5550  -22.6772 C.ar    1  UNL1        0.0353
     36 C         -66.6330  -40.6559  -23.5065 C.ar    1  UNL1        0.1002
     37 N         -66.7165  -41.9046  -22.9747 N.ar    1  UNL1       -0.2422
     38 C         -66.5879  -42.1197  -21.6383 C.ar    1  UNL1        0.1002
     39 C         -66.3595  -41.0457  -20.7748 C.ar    1  UNL1        0.0353
     40 C         -63.0517  -39.9022  -18.7271 C.3     1  UNL1        0.0569
     41 C         -64.0487  -40.9425  -18.3063 C.ar    1  UNL1       -0.0017
     42 C         -65.0930  -40.7794  -17.4011 C.ar    1  UNL1        0.0681
     43 N         -65.8387  -41.9063  -17.3335 N.ar    1  UNL1       -0.3523
     44 C         -65.2805  -42.7740  -18.1957 C.ar    1  UNL1        0.0563
     45 C         -65.7109  -44.0666  -18.4931 C.ar    1  UNL1        0.0170
     46 C         -64.9854  -44.7967  -19.4529 C.ar    1  UNL1        0.0015
     47 C         -63.8608  -44.2243  -20.0882 C.ar    1  UNL1        0.0001
     48 C         -63.4507  -42.9176  -19.7685 C.ar    1  UNL1        0.0012
     49 C         -64.1878  -42.2203  -18.8113 C.ar    1  UNL1        0.0131
     50 H         -66.6856  -42.0607  -16.7423 H       1  UNL1        0.1660
@<TRIPOS>BOND
     1     1     2    2
     2     2     3   am
     3     3    29    1
     4    29    40    1
     5    40    41    1
     6    41    42   ar
     7    42    43   ar
     8    43    44   ar
     9    44    45   ar
    10    45    46   ar
    11    46    47   ar
    12    47    48   ar
    13    48    49   ar
    14    29    30    1
    15    30    31    2
    16    30    32   am
    17    32    34    1
    18    34    35   ar
    19    35    36   ar
    20    36    37   ar
    21    37    38   ar
    22    38    39   ar
    23     2     5    1
    24     5     6   ar
    25     6     7   ar
    26     7     8   ar
    27     8    12    1
    28    12    13    1
    29    13    14    1
    30    14    15    1
    31    15    18    1
    32    18    19   ar
    33    19    20   ar
    34    20    21   ar
    35    21    25    1
    36    25    26    1
    37    25    27    1
    38    25    28    1
    39    21    22   ar
    40    22    23    1
    41    22    24   ar
    42    15    16    1
    43    16    17    1
    44     8     9   ar
    45     9    10   ar
    46    10    11    1
    47    49    41   ar
    48    39    34   ar
    49    10     5   ar
    50    49    44   ar
    51    17    12    1
    52    24    18   ar
    53     3     4    1
    54    43    50    1
    55    32    33    1
@<TRIPOS>MOLECULE
*****
 50 55 0 0 0
SMALL
GASTEIGER

@<TRIPOS>ATOM
      1 O         -60.3675  -47.2189  -24.1767 O.2     1  UNL1       -0.2701
      2 C         -61.4773  -46.6426  -24.3432 C.2     1  UNL1        0.2483
      3 N         -62.4121  -47.1587  -25.3041 N.am    1  UNL1       -0.2945
      4 H         -63.2354  -46.5722  -25.5688 H       1  UNL1        0.1501
      5 C         -61.7821  -45.4201  -23.5667 C.ar    1  UNL1        0.0808
      6 C         -62.1477  -44.2443  -24.2414 C.ar    1  UNL1        0.0080
      7 C         -62.4456  -43.0796  -23.5300 C.ar    1  UNL1        0.0148
      8 C         -62.3758  -43.0610  -22.1261 C.ar    1  UNL1        0.0502
      9 C         -61.9874  -44.2324  -21.4528 C.ar    1  UNL1        0.0443
     10 C         -61.6906  -45.4004  -22.1622 C.ar    1  UNL1        0.1457
     11 F         -61.2689  -46.4913  -21.4736 F       1  UNL1       -0.2040
     12 N         -62.6792  -41.8555  -21.3888 N.pl3   1  UNL1       -0.3040
     13 C         -61.6863  -40.7760  -21.2933 C.3     1  UNL1        0.1123
     14 C         -62.3753  -39.4096  -21.2082 C.3     1  UNL1        0.1136
     15 N         -63.4330  -39.3907  -20.1837 N.pl3   1  UNL1       -0.2897
     16 C         -63.8815  -40.6523  -19.5772 C.3     1  UNL1        0.1136
     17 C         -63.9357  -41.7649  -20.6287 C.3     1  UNL1        0.1123
     18 C         -63.9329  -38.1344  -19.6718 C.ar    1  UNL1        0.1341
     19 C         -63.1387  -37.3061  -18.8605 C.ar    1  UNL1        0.0344
     20 C         -63.6572  -36.1009  -18.3849 C.ar    1  UNL1        0.0106
     21 C         -64.9669  -35.7147  -18.7117 C.ar    1  UNL1        0.1173
     22 C         -65.7259  -36.5650  -19.5324 C.ar    1  UNL1        0.2273
     23 F         -66.9922  -36.2322  -19.8876 F       1  UNL1       -0.1832
     24 N         -65.1975  -37.7333  -19.9825 N.ar    1  UNL1       -0.2031
     25 C         -65.5539  -34.4139  -18.2203 C.3     1  UNL1        0.4221
     26 F         -65.6215  -34.4328  -16.8391 F       1  UNL1       -0.1657
     27 F         -64.7485  -33.3622  -18.6188 F       1  UNL1       -0.1657
     28 F         -66.8272  -34.2051  -18.7219 F       1  UNL1       -0.1657
     29 C         -62.2113  -48.4555  -25.9631 C.3     1  UNL1        0.1535
     30 C         -63.3576  -49.3897  -25.6420 C.2     1  UNL1        0.2443
     31 O         -64.4632  -49.2318  -26.2275 O.2     1  UNL1       -0.2730
     32 N         -63.1831  -50.5376  -24.7952 N.am    1  UNL1       -0.2825
     33 H         -63.8273  -51.3484  -24.9364 H       1  UNL1        0.1549
     34 C         -62.1052  -50.6939  -23.8626 C.ar    1  UNL1        0.0535
     35 C         -61.9879  -49.8115  -22.7823 C.ar    1  UNL1        0.0353
     36 C         -60.9261  -49.9589  -21.8861 C.ar    1  UNL1        0.1002
     37 N         -60.0043  -50.9402  -22.0764 N.ar    1  UNL1       -0.2422
     38 C         -60.0803  -51.7938  -23.1320 C.ar    1  UNL1        0.1002
     39 C         -61.1255  -51.6793  -24.0516 C.ar    1  UNL1        0.0353
     40 C         -62.1017  -48.2834  -27.4891 C.3     1  UNL1        0.0569
     41 C         -61.4473  -46.9786  -27.8390 C.ar    1  UNL1       -0.0017
     42 C         -60.0881  -46.7531  -28.0356 C.ar    1  UNL1        0.0681
     43 N         -59.8735  -45.4744  -28.4222 N.ar    1  UNL1       -0.3523
     44 C         -61.0855  -44.8953  -28.4817 C.ar    1  UNL1        0.0563
     45 C         -61.3797  -43.5849  -28.8567 C.ar    1  UNL1        0.0170
     46 C         -62.7313  -43.1928  -28.8712 C.ar    1  UNL1        0.0015
     47 C         -63.7465  -44.1092  -28.5171 C.ar    1  UNL1        0.0001
     48 C         -63.4196  -45.4250  -28.1439 C.ar    1  UNL1        0.0012
     49 C         -62.0714  -45.7831  -28.1362 C.ar    1  UNL1        0.0131
     50 H         -58.9527  -45.0351  -28.6448 H       1  UNL1        0.1660
@<TRIPOS>BOND
     1     1     2    2
     2     2     3   am
     3     3    29    1
     4    29    40    1
     5    40    41    1
     6    41    42   ar
     7    42    43   ar
     8    43    44   ar
     9    44    45   ar
    10    45    46   ar
    11    46    47   ar
    12    47    48   ar
    13    48    49   ar
    14    29    30    1
    15    30    31    2
    16    30    32   am
    17    32    34    1
    18    34    35   ar
    19    35    36   ar
    20    36    37   ar
    21    37    38   ar
    22    38    39   ar
    23     2     5    1
    24     5     6   ar
    25     6     7   ar
    26     7     8   ar
    27     8    12    1
    28    12    13    1
    29    13    14    1
    30    14    15    1
    31    15    18    1
    32    18    19   ar
    33    19    20   ar
    34    20    21   ar
    35    21    25    1
    36    25    26    1
    37    25    27    1
    38    25    28    1
    39    21    22   ar
    40    22    23    1
    41    22    24   ar
    42    15    16    1
    43    16    17    1
    44     8     9   ar
    45     9    10   ar
    46    10    11    1
    47    49    41   ar
    48    39    34   ar
    49    10     5   ar
    50    49    44   ar
    51    17    12    1
    52    24    18   ar
    53     3     4    1
    54    43    50    1
    55    32    33    1
@<TRIPOS>MOLECULE
*****
 50 55 0 0 0
SMALL
GASTEIGER

@<TRIPOS>ATOM
      1 O         -59.9632  -46.7533  -24.8664 O.2     1  UNL1       -0.2701
      2 C         -60.5292  -45.7347  -25.3498 C.2     1  UNL1        0.2483
      3 N         -60.6659  -45.6028  -26.7737 N.am    1  UNL1       -0.2945
      4 H         -60.9590  -44.6800  -27.1666 H       1  UNL1        0.1501
      5 C         -61.0127  -44.6739  -24.4381 C.ar    1  UNL1        0.0808
      6 C         -60.5591  -43.3559  -24.6067 C.ar    1  UNL1        0.0080
      7 C         -61.0057  -42.3366  -23.7624 C.ar    1  UNL1        0.0148
      8 C         -61.9104  -42.6136  -22.7226 C.ar    1  UNL1        0.0502
      9 C         -62.3462  -43.9377  -22.5403 C.ar    1  UNL1        0.0443
     10 C         -61.9024  -44.9598  -23.3853 C.ar    1  UNL1        0.1457
     11 F         -62.3083  -46.2311  -23.1386 F       1  UNL1       -0.2040
     12 N         -62.3699  -41.5610  -21.8454 N.pl3   1  UNL1       -0.3040
     13 C         -61.4075  -40.7934  -21.0422 C.3     1  UNL1        0.1123
     14 C         -61.8962  -39.3554  -20.8361 C.3     1  UNL1        0.1136
     15 N         -63.2914  -39.3114  -20.3668 N.pl3   1  UNL1       -0.2897
     16 C         -64.1088  -40.5328  -20.3983 C.3     1  UNL1        0.1136
     17 C         -63.8137  -41.3447  -21.6633 C.3     1  UNL1        0.1123
     18 C         -63.8175  -38.1153  -19.7482 C.ar    1  UNL1        0.1341
     19 C         -65.1729  -38.0106  -19.3918 C.ar    1  UNL1        0.0344
     20 C         -65.6434  -36.8390  -18.7971 C.ar    1  UNL1        0.0106
     21 C         -64.7700  -35.7665  -18.5557 C.ar    1  UNL1        0.1173
     22 C         -63.4208  -35.9130  -18.9176 C.ar    1  UNL1        0.2273
     23 F         -62.5334  -34.9113  -18.6944 F       1  UNL1       -0.1832
     24 N         -62.9879  -37.0644  -19.4953 N.ar    1  UNL1       -0.2031
     25 C         -65.2458  -34.4896  -17.9068 C.3     1  UNL1        0.4221
     26 F         -66.5075  -34.1766  -18.3786 F       1  UNL1       -0.1657
     27 F         -65.3060  -34.6612  -16.5355 F       1  UNL1       -0.1657
     28 F         -64.3972  -33.4301  -18.1788 F       1  UNL1       -0.1657
     29 C         -60.3504  -46.7067  -27.6892 C.3     1  UNL1        0.1535
     30 C         -61.3285  -47.8449  -27.4945 C.2     1  UNL1        0.2443
     31 O         -60.8901  -48.9904  -27.2018 O.2     1  UNL1       -0.2730
     32 N         -62.7493  -47.6292  -27.4944 N.am    1  UNL1       -0.2825
     33 H         -63.3431  -48.3017  -26.9584 H       1  UNL1        0.1549
     34 C         -63.3898  -46.4831  -28.0707 C.ar    1  UNL1        0.0535
     35 C         -63.4576  -45.2874  -27.3460 C.ar    1  UNL1        0.0353
     36 C         -64.0973  -44.1788  -27.9064 C.ar    1  UNL1        0.1002
     37 N         -64.6664  -44.2703  -29.1380 N.ar    1  UNL1       -0.2422
     38 C         -64.6377  -45.4272  -29.8517 C.ar    1  UNL1        0.1002
     39 C         -64.0092  -46.5588  -29.3266 C.ar    1  UNL1        0.0353
     40 C         -60.3976  -46.2345  -29.1537 C.3     1  UNL1        0.0569
     41 C         -60.6543  -44.7578  -29.2361 C.ar    1  UNL1       -0.0017
     42 C         -60.1663  -43.7770  -28.3779 C.ar    1  UNL1        0.0681
     43 N         -60.5327  -42.5481  -28.8095 N.ar    1  UNL1       -0.3523
     44 C         -61.2377  -42.7449  -29.9374 C.ar    1  UNL1        0.0563
     45 C         -61.8068  -41.7733  -30.7599 C.ar    1  UNL1        0.0170
     46 C         -62.4870  -42.2049  -31.9140 C.ar    1  UNL1        0.0015
     47 C         -62.5797  -43.5815  -32.2177 C.ar    1  UNL1        0.0001
     48 C         -61.9947  -44.5388  -31.3696 C.ar    1  UNL1        0.0012
     49 C         -61.3301  -44.0806  -30.2320 C.ar    1  UNL1        0.0131
     50 H         -60.2988  -41.6336  -28.3631 H       1  UNL1        0.1660
@<TRIPOS>BOND
     1     1     2    2
     2     2     3   am
     3     3    29    1
     4    29    40    1
     5    40    41    1
     6    41    42   ar
     7    42    43   ar
     8    43    44   ar
     9    44    45   ar
    10    45    46   ar
    11    46    47   ar
    12    47    48   ar
    13    48    49   ar
    14    29    30    1
    15    30    31    2
    16    30    32   am
    17    32    34    1
    18    34    35   ar
    19    35    36   ar
    20    36    37   ar
    21    37    38   ar
    22    38    39   ar
    23     2     5    1
    24     5     6   ar
    25     6     7   ar
    26     7     8   ar
    27     8    12    1
    28    12    13    1
    29    13    14    1
    30    14    15    1
    31    15    18    1
    32    18    19   ar
    33    19    20   ar
    34    20    21   ar
    35    21    25    1
    36    25    26    1
    37    25    27    1
    38    25    28    1
    39    21    22   ar
    40    22    23    1
    41    22    24   ar
    42    15    16    1
    43    16    17    1
    44     8     9   ar
    45     9    10   ar
    46    10    11    1
    47    49    41   ar
    48    39    34   ar
    49    10     5   ar
    50    49    44   ar
    51    17    12    1
    52    24    18   ar
    53     3     4    1
    54    43    50    1
    55    32    33    1
