@<TRIPOS>MOLECULE
*****
 36 41 0 0 0
SMALL
GASTEIGER

@<TRIPOS>ATOM
      1 C          46.6496   12.3719  -23.7987 C.ar    1  UNL1        0.1379
      2 N          45.2957   12.5158  -23.6775 N.ar    1  UNL1       -0.2089
      3 C          44.4499   12.3699  -24.7442 C.ar    1  UNL1        0.2014
      4 N          44.9449   12.1065  -25.9878 N.ar    1  UNL1       -0.2050
      5 C          46.2841   11.9598  -26.1228 C.ar    1  UNL1        0.1654
      6 C          47.1461   12.0552  -25.0708 C.ar    1  UNL1        0.0865
      7 C          48.3975   11.8277  -25.6357 C.ar    1  UNL1        0.1095
      8 N          48.2506   11.6376  -26.9710 N.ar    1  UNL1       -0.1677
      9 N          46.9571   11.7149  -27.2570 N.ar    1  UNL1       -0.2319
     10 C          46.4019   11.5996  -28.5988 C.3     1  UNL1        0.1554
     11 C          49.6871   11.6783  -24.9516 C.ar    1  UNL1        0.0577
     12 C          50.2752   10.4938  -24.5592 C.ar    1  UNL1        0.1231
     13 N          51.5126   10.7453  -24.0897 N.ar    1  UNL1       -0.1676
     14 N          51.7261   12.0492  -24.1781 N.ar    1  UNL1       -0.2488
     15 C          52.9657   12.6797  -23.7368 C.3     1  UNL1        0.1537
     16 C          50.6469   12.6501  -24.7294 C.ar    1  UNL1        0.0809
     17 C          50.5185   14.0941  -25.0303 C.ar    1  UNL1        0.0174
     18 C          50.7033   15.0520  -24.0212 C.ar    1  UNL1        0.0012
     19 C          50.5992   16.4153  -24.3127 C.ar    1  UNL1       -0.0042
     20 C          50.3019   16.8399  -25.6160 C.ar    1  UNL1       -0.0218
     21 C          50.2319   18.3033  -25.9369 C.3     1  UNL1        0.0310
     22 C          50.1441   15.8854  -26.6314 C.ar    1  UNL1       -0.0042
     23 C          50.2478   14.5225  -26.3400 C.ar    1  UNL1        0.0012
     24 C          48.1936   11.7175  -21.8431 C.3     1  UNL1        0.0887
     25 C          48.8461   12.5561  -20.7272 C.3     1  UNL1        0.0773
     26 C          48.9406   13.9712  -21.3167 C.3     1  UNL1        0.0391
     27 C          47.7342   14.0601  -22.2408 C.3     1  UNL1        0.0936
     28 N          47.5040   12.6942  -22.6878 N.pl3   1  UNL1       -0.2933
     29 N          50.1105   11.9363  -20.2413 N.3     1  UNL1       -0.2724
     30 C          51.3859   12.6665  -20.4218 C.3     1  UNL1        0.0721
     31 C          51.7497   13.5645  -19.2204 C.3     1  UNL1        0.0174
     32 C          51.6348   12.8097  -17.8967 C.3     1  UNL1        0.0029
     33 C          50.2556   12.1658  -17.7691 C.3     1  UNL1        0.0174
     34 C          50.0106   11.2257  -18.9502 C.3     1  UNL1        0.0721
     35 C          47.8357    9.1791  -21.4064 C.3     1  UNL1        0.0018
     36 C          47.2662   10.6002  -21.3047 C.3     1  UNL1        0.0211
@<TRIPOS>BOND
     1    35    36    1
     2    36    24    1
     3    24    25    1
     4    25    29    1
     5    29    30    1
     6    30    31    1
     7    31    32    1
     8    32    33    1
     9    33    34    1
    10    25    26    1
    11    26    27    1
    12    27    28    1
    13    28     1    1
    14     1     2   ar
    15     2     3   ar
    16     3     4   ar
    17     4     5   ar
    18     5     6   ar
    19     6     7   ar
    20     7    11    1
    21    11    12   ar
    22    12    13   ar
    23    13    14   ar
    24    14    15    1
    25    14    16   ar
    26    16    17    1
    27    17    18   ar
    28    18    19   ar
    29    19    20   ar
    30    20    21    1
    31    20    22   ar
    32    22    23   ar
    33     7     8   ar
    34     8     9   ar
    35     9    10    1
    36    28    24    1
    37     6     1   ar
    38    16    11   ar
    39    23    17   ar
    40    34    29    1
    41     9     5   ar
@<TRIPOS>MOLECULE
*****
 36 41 0 0 0
SMALL
GASTEIGER

@<TRIPOS>ATOM
      1 C          50.2718   15.8399  -25.0372 C.ar    1  UNL1        0.1379
      2 N          51.5254   16.3534  -25.2200 N.ar    1  UNL1       -0.2089
      3 C          51.7385   17.5383  -25.8720 C.ar    1  UNL1        0.2014
      4 N          50.6908   18.2360  -26.3979 N.ar    1  UNL1       -0.2050
      5 C          49.4430   17.7402  -26.2232 C.ar    1  UNL1        0.1654
      6 C          49.1970   16.5864  -25.5399 C.ar    1  UNL1        0.0865
      7 C          47.8123   16.4548  -25.5832 C.ar    1  UNL1        0.1095
      8 N          47.2933   17.4877  -26.2936 N.ar    1  UNL1       -0.1677
      9 N          48.2960   18.2688  -26.6749 N.ar    1  UNL1       -0.2319
     10 C          48.1433   19.4653  -27.4916 C.3     1  UNL1        0.1554
     11 C          46.9739   15.4657  -24.8964 C.ar    1  UNL1        0.0577
     12 C          46.6641   15.4444  -23.5523 C.ar    1  UNL1        0.1231
     13 N          45.7627   14.4710  -23.3185 N.ar    1  UNL1       -0.1676
     14 N          45.4898   13.8810  -24.4722 N.ar    1  UNL1       -0.2488
     15 C          44.5613   12.7614  -24.5882 C.3     1  UNL1        0.1537
     16 C          46.1854   14.4808  -25.4651 C.ar    1  UNL1        0.0809
     17 C          46.1174   14.1337  -26.9029 C.ar    1  UNL1        0.0174
     18 C          46.4694   12.8483  -27.3435 C.ar    1  UNL1        0.0012
     19 C          46.3868   12.5184  -28.6995 C.ar    1  UNL1       -0.0042
     20 C          45.9577   13.4712  -29.6351 C.ar    1  UNL1       -0.0218
     21 C          45.8293   13.1040  -31.0835 C.3     1  UNL1        0.0310
     22 C          45.5794   14.7475  -29.1933 C.ar    1  UNL1       -0.0042
     23 C          45.6624   15.0775  -27.8379 C.ar    1  UNL1        0.0012
     24 C          50.1752   14.1803  -23.0693 C.3     1  UNL1        0.0887
     25 C          50.0961   12.6421  -23.0284 C.3     1  UNL1        0.0773
     26 C          49.4519   12.2556  -24.3680 C.3     1  UNL1        0.0391
     27 C          49.9283   13.3393  -25.3251 C.3     1  UNL1        0.0936
     28 N          50.1143   14.5185  -24.4922 N.pl3   1  UNL1       -0.2933
     29 N          49.4276   12.1583  -21.7882 N.3     1  UNL1       -0.2724
     30 C          47.9755   12.3900  -21.6158 C.3     1  UNL1        0.0721
     31 C          47.1059   11.2295  -22.1443 C.3     1  UNL1        0.0174
     32 C          47.5963    9.8772  -21.6287 C.3     1  UNL1        0.0029
     33 C          49.0829    9.6994  -21.9312 C.3     1  UNL1        0.0174
     34 C          49.8810   10.8404  -21.2988 C.3     1  UNL1        0.0721
     35 C          52.6170   13.7850  -22.2669 C.3     1  UNL1        0.0018
     36 C          51.4247   14.7470  -22.3510 C.3     1  UNL1        0.0211
@<TRIPOS>BOND
     1    35    36    1
     2    36    24    1
     3    24    25    1
     4    25    29    1
     5    29    30    1
     6    30    31    1
     7    31    32    1
     8    32    33    1
     9    33    34    1
    10    25    26    1
    11    26    27    1
    12    27    28    1
    13    28     1    1
    14     1     2   ar
    15     2     3   ar
    16     3     4   ar
    17     4     5   ar
    18     5     6   ar
    19     6     7   ar
    20     7    11    1
    21    11    12   ar
    22    12    13   ar
    23    13    14   ar
    24    14    15    1
    25    14    16   ar
    26    16    17    1
    27    17    18   ar
    28    18    19   ar
    29    19    20   ar
    30    20    21    1
    31    20    22   ar
    32    22    23   ar
    33     7     8   ar
    34     8     9   ar
    35     9    10    1
    36    28    24    1
    37     6     1   ar
    38    16    11   ar
    39    23    17   ar
    40    34    29    1
    41     9     5   ar
@<TRIPOS>MOLECULE
*****
 36 41 0 0 0
SMALL
GASTEIGER

@<TRIPOS>ATOM
      1 C          50.7297   12.9589  -25.3563 C.ar    1  UNL1        0.1379
      2 N          51.9907   13.3084  -25.7516 N.ar    1  UNL1       -0.2089
      3 C          52.7625   12.4889  -26.5309 C.ar    1  UNL1        0.2014
      4 N          52.3012   11.2634  -26.9134 N.ar    1  UNL1       -0.2050
      5 C          51.0531   10.9042  -26.5305 C.ar    1  UNL1        0.1654
      6 C          50.2454   11.7178  -25.7925 C.ar    1  UNL1        0.0865
      7 C          49.0731   10.9837  -25.6390 C.ar    1  UNL1        0.1095
      8 N          49.2235    9.7804  -26.2475 N.ar    1  UNL1       -0.1677
      9 N          50.4329    9.7441  -26.7926 N.ar    1  UNL1       -0.2319
     10 C          50.9809    8.5981  -27.5054 C.3     1  UNL1        0.1554
     11 C          47.8039   11.4168  -25.0435 C.ar    1  UNL1        0.0577
     12 C          47.5283   11.5378  -23.6973 C.ar    1  UNL1        0.1231
     13 N          46.3104   12.0918  -23.5403 N.ar    1  UNL1       -0.1676
     14 N          45.8111   12.3292  -24.7436 N.ar    1  UNL1       -0.2488
     15 C          44.4894   12.9114  -24.9510 C.3     1  UNL1        0.1537
     16 C          46.7065   11.9603  -25.6880 C.ar    1  UNL1        0.0809
     17 C          46.5325   12.1066  -27.1510 C.ar    1  UNL1        0.0174
     18 C          46.5566   10.9802  -27.9882 C.ar    1  UNL1        0.0012
     19 C          46.3741   11.1200  -29.3671 C.ar    1  UNL1       -0.0042
     20 C          46.1718   12.3889  -29.9294 C.ar    1  UNL1       -0.0218
     21 C          45.9342   12.5335  -31.4032 C.3     1  UNL1        0.0310
     22 C          46.1200   13.5125  -29.0916 C.ar    1  UNL1       -0.0042
     23 C          46.3029   13.3729  -27.7131 C.ar    1  UNL1        0.0012
     24 C          49.0942   14.8550  -24.7515 C.3     1  UNL1        0.0887
     25 C          48.7347   15.5075  -23.4027 C.3     1  UNL1        0.0773
     26 C          49.0496   14.4266  -22.3580 C.3     1  UNL1        0.0391
     27 C          50.2137   13.6598  -22.9696 C.3     1  UNL1        0.0936
     28 N          50.0258   13.7794  -24.4081 N.pl3   1  UNL1       -0.2933
     29 N          47.3523   16.0623  -23.4111 N.3     1  UNL1       -0.2724
     30 C          47.1381   17.4678  -22.9977 C.3     1  UNL1        0.0721
     31 C          47.1929   18.4648  -24.1747 C.3     1  UNL1        0.0174
     32 C          46.3182   18.0084  -25.3416 C.3     1  UNL1        0.0029
     33 C          46.6754   16.5799  -25.7477 C.3     1  UNL1        0.0174
     34 C          46.5101   15.6433  -24.5500 C.3     1  UNL1        0.0721
     35 C          50.5928   16.9318  -25.2024 C.3     1  UNL1        0.0018
     36 C          49.6619   15.8598  -25.7841 C.3     1  UNL1        0.0211
@<TRIPOS>BOND
     1    35    36    1
     2    36    24    1
     3    24    25    1
     4    25    29    1
     5    29    30    1
     6    30    31    1
     7    31    32    1
     8    32    33    1
     9    33    34    1
    10    25    26    1
    11    26    27    1
    12    27    28    1
    13    28     1    1
    14     1     2   ar
    15     2     3   ar
    16     3     4   ar
    17     4     5   ar
    18     5     6   ar
    19     6     7   ar
    20     7    11    1
    21    11    12   ar
    22    12    13   ar
    23    13    14   ar
    24    14    15    1
    25    14    16   ar
    26    16    17    1
    27    17    18   ar
    28    18    19   ar
    29    19    20   ar
    30    20    21    1
    31    20    22   ar
    32    22    23   ar
    33     7     8   ar
    34     8     9   ar
    35     9    10    1
    36    28    24    1
    37     6     1   ar
    38    16    11   ar
    39    23    17   ar
    40    34    29    1
    41     9     5   ar
@<TRIPOS>MOLECULE
*****
 36 41 0 0 0
SMALL
GASTEIGER

@<TRIPOS>ATOM
      1 C          47.3892   14.3591  -26.2313 C.ar    1  UNL1        0.1379
      2 N          46.7915   15.4515  -26.7952 N.ar    1  UNL1       -0.2089
      3 C          46.1180   15.3796  -27.9851 C.ar    1  UNL1        0.2014
      4 N          46.0523   14.2028  -28.6720 N.ar    1  UNL1       -0.2050
      5 C          46.6386   13.1118  -28.1248 C.ar    1  UNL1        0.1654
      6 C          47.2771   13.1437  -26.9206 C.ar    1  UNL1        0.0865
      7 C          47.7097   11.8346  -26.7310 C.ar    1  UNL1        0.1095
      8 N          47.3515   11.0915  -27.8081 N.ar    1  UNL1       -0.1677
      9 N          46.6940   11.8788  -28.6501 N.ar    1  UNL1       -0.2319
     10 C          46.1780   11.4526  -29.9439 C.3     1  UNL1        0.1554
     11 C          48.3404   11.2519  -25.5412 C.ar    1  UNL1        0.0577
     12 C          47.7797   11.1432  -24.2855 C.ar    1  UNL1        0.1231
     13 N          48.6026   10.4318  -23.4906 N.ar    1  UNL1       -0.1676
     14 N          49.6614   10.0838  -24.2056 N.ar    1  UNL1       -0.2488
     15 C          50.7725    9.3168  -23.6521 C.3     1  UNL1        0.1537
     16 C          49.5241   10.5383  -25.4721 C.ar    1  UNL1        0.0809
     17 C          50.4797   10.3160  -26.5810 C.ar    1  UNL1        0.0174
     18 C          51.6133   11.1320  -26.7198 C.ar    1  UNL1        0.0012
     19 C          52.5231   10.9080  -27.7573 C.ar    1  UNL1       -0.0042
     20 C          52.3086    9.8691  -28.6749 C.ar    1  UNL1       -0.0218
     21 C          53.3066    9.6029  -29.7624 C.3     1  UNL1        0.0310
     22 C          51.1912    9.0355  -28.5217 C.ar    1  UNL1       -0.0042
     23 C          50.2814    9.2597  -27.4848 C.ar    1  UNL1        0.0012
     24 C          47.7285   14.6918  -23.6994 C.3     1  UNL1        0.0887
     25 C          48.9923   14.9666  -22.8618 C.3     1  UNL1        0.0773
     26 C          50.1422   14.3948  -23.7042 C.3     1  UNL1        0.0391
     27 C          49.6713   14.5878  -25.1388 C.3     1  UNL1        0.0936
     28 N          48.2190   14.5205  -25.0679 N.pl3   1  UNL1       -0.2933
     29 N          48.8510   14.4567  -21.4693 N.3     1  UNL1       -0.2724
     30 C          48.4770   13.0401  -21.2559 C.3     1  UNL1        0.0721
     31 C          49.6948   12.1008  -21.1264 C.3     1  UNL1        0.0174
     32 C          50.7206   12.6411  -20.1309 C.3     1  UNL1        0.0029
     33 C          51.1043   14.0758  -20.4879 C.3     1  UNL1        0.0174
     34 C          49.8547   14.9573  -20.5081 C.3     1  UNL1        0.0721
     35 C          47.1873   17.2337  -23.6059 C.3     1  UNL1        0.0018
     36 C          46.6519   15.7964  -23.5611 C.3     1  UNL1        0.0211
@<TRIPOS>BOND
     1    35    36    1
     2    36    24    1
     3    24    25    1
     4    25    29    1
     5    29    30    1
     6    30    31    1
     7    31    32    1
     8    32    33    1
     9    33    34    1
    10    25    26    1
    11    26    27    1
    12    27    28    1
    13    28     1    1
    14     1     2   ar
    15     2     3   ar
    16     3     4   ar
    17     4     5   ar
    18     5     6   ar
    19     6     7   ar
    20     7    11    1
    21    11    12   ar
    22    12    13   ar
    23    13    14   ar
    24    14    15    1
    25    14    16   ar
    26    16    17    1
    27    17    18   ar
    28    18    19   ar
    29    19    20   ar
    30    20    21    1
    31    20    22   ar
    32    22    23   ar
    33     7     8   ar
    34     8     9   ar
    35     9    10    1
    36    28    24    1
    37     6     1   ar
    38    16    11   ar
    39    23    17   ar
    40    34    29    1
    41     9     5   ar
@<TRIPOS>MOLECULE
*****
 36 41 0 0 0
SMALL
GASTEIGER

@<TRIPOS>ATOM
      1 C          46.4938   12.0307  -23.9825 C.ar    1  UNL1        0.1379
      2 N          45.1488   12.1343  -23.7613 N.ar    1  UNL1       -0.2089
      3 C          44.2599   12.3657  -24.7766 C.ar    1  UNL1        0.2014
      4 N          44.7013   12.5375  -26.0559 N.ar    1  UNL1       -0.2050
      5 C          46.0310   12.4361  -26.2904 C.ar    1  UNL1        0.1654
      6 C          46.9344   12.1620  -25.3067 C.ar    1  UNL1        0.0865
      7 C          48.1582   12.1315  -25.9687 C.ar    1  UNL1        0.1095
      8 N          47.9563   12.4078  -27.2816 N.ar    1  UNL1       -0.1677
      9 N          46.6548   12.5868  -27.4683 N.ar    1  UNL1       -0.2319
     10 C          46.0464   12.9385  -28.7442 C.3     1  UNL1        0.1554
     11 C          49.4695   11.7493  -25.4324 C.ar    1  UNL1        0.0577
     12 C          49.9354   10.4650  -25.2419 C.ar    1  UNL1        0.1231
     13 N          51.2278   10.5116  -24.8646 N.ar    1  UNL1       -0.1676
     14 N          51.5937   11.7833  -24.8161 N.ar    1  UNL1       -0.2488
     15 C          52.9331   12.2067  -24.4215 C.3     1  UNL1        0.1537
     16 C          50.5571   12.5691  -25.1870 C.ar    1  UNL1        0.0809
     17 C          50.5855   14.0451  -25.2994 C.ar    1  UNL1        0.0174
     18 C          50.2286   14.6757  -26.5016 C.ar    1  UNL1        0.0012
     19 C          50.2392   16.0702  -26.5989 C.ar    1  UNL1       -0.0042
     20 C          50.6134   16.8539  -25.4974 C.ar    1  UNL1       -0.0218
     21 C          50.5839   18.3506  -25.5896 C.3     1  UNL1        0.0310
     22 C          50.9437   16.2268  -24.2872 C.ar    1  UNL1       -0.0042
     23 C          50.9336   14.8326  -24.1900 C.ar    1  UNL1        0.0012
     24 C          47.7851   13.0741  -22.0128 C.3     1  UNL1        0.0887
     25 C          48.8652   12.4998  -21.0759 C.3     1  UNL1        0.0773
     26 C          48.6216   10.9835  -21.0941 C.3     1  UNL1        0.0391
     27 C          48.0798   10.7203  -22.4922 C.3     1  UNL1        0.0936
     28 N          47.3966   11.9500  -22.8661 N.pl3   1  UNL1       -0.2933
     29 N          48.8560   13.1738  -19.7474 N.3     1  UNL1       -0.2724
     30 C          47.9124   12.7032  -18.7080 C.3     1  UNL1        0.0721
     31 C          48.5109   11.6189  -17.7870 C.3     1  UNL1        0.0174
     32 C          49.8852   12.0251  -17.2566 C.3     1  UNL1        0.0029
     33 C          50.8090   12.4091  -18.4107 C.3     1  UNL1        0.0174
     34 C          50.1840   13.5471  -19.2190 C.3     1  UNL1        0.0721
     35 C          47.1450   15.2740  -23.2429 C.3     1  UNL1        0.0018
     36 C          48.2613   14.3169  -22.8045 C.3     1  UNL1        0.0211
@<TRIPOS>BOND
     1    35    36    1
     2    36    24    1
     3    24    25    1
     4    25    29    1
     5    29    30    1
     6    30    31    1
     7    31    32    1
     8    32    33    1
     9    33    34    1
    10    25    26    1
    11    26    27    1
    12    27    28    1
    13    28     1    1
    14     1     2   ar
    15     2     3   ar
    16     3     4   ar
    17     4     5   ar
    18     5     6   ar
    19     6     7   ar
    20     7    11    1
    21    11    12   ar
    22    12    13   ar
    23    13    14   ar
    24    14    15    1
    25    14    16   ar
    26    16    17    1
    27    17    18   ar
    28    18    19   ar
    29    19    20   ar
    30    20    21    1
    31    20    22   ar
    32    22    23   ar
    33     7     8   ar
    34     8     9   ar
    35     9    10    1
    36    28    24    1
    37     6     1   ar
    38    16    11   ar
    39    23    17   ar
    40    34    29    1
    41     9     5   ar
@<TRIPOS>MOLECULE
*****
 36 41 0 0 0
SMALL
GASTEIGER

@<TRIPOS>ATOM
      1 C          50.9501   12.8371  -25.4270 C.ar    1  UNL1        0.1379
      2 N          52.3116   12.9529  -25.3909 N.ar    1  UNL1       -0.2089
      3 C          53.1350   12.0620  -26.0258 C.ar    1  UNL1        0.2014
      4 N          52.6127   10.9944  -26.6953 N.ar    1  UNL1       -0.2050
      5 C          51.2654   10.8675  -26.7407 C.ar    1  UNL1        0.1654
      6 C          50.4203   11.7635  -26.1562 C.ar    1  UNL1        0.0865
      7 C          49.1509   11.2750  -26.4509 C.ar    1  UNL1        0.1095
      8 N          49.2747   10.1227  -27.1564 N.ar    1  UNL1       -0.1677
      9 N          50.5685    9.8858  -27.3323 N.ar    1  UNL1       -0.2319
     10 C          51.1064    8.7167  -28.0147 C.3     1  UNL1        0.1554
     11 C          47.8530   11.9069  -26.1877 C.ar    1  UNL1        0.0577
     12 C          47.0316   12.5117  -27.1164 C.ar    1  UNL1        0.1231
     13 N          45.8685   12.8515  -26.5276 N.ar    1  UNL1       -0.1676
     14 N          45.9275   12.4759  -25.2592 N.ar    1  UNL1       -0.2488
     15 C          44.8401   12.7072  -24.3141 C.3     1  UNL1        0.1537
     16 C          47.1111   11.8662  -25.0202 C.ar    1  UNL1        0.0809
     17 C          47.5350   11.2713  -23.7324 C.ar    1  UNL1        0.0174
     18 C          48.6202   10.3827  -23.6803 C.ar    1  UNL1        0.0012
     19 C          49.0291    9.8367  -22.4600 C.ar    1  UNL1       -0.0042
     20 C          48.3543   10.1662  -21.2754 C.ar    1  UNL1       -0.0218
     21 C          48.8198    9.6131  -19.9613 C.3     1  UNL1        0.0310
     22 C          47.2872   11.0752  -21.3215 C.ar    1  UNL1       -0.0042
     23 C          46.8781   11.6206  -22.5414 C.ar    1  UNL1        0.0012
     24 C          49.1687   14.6725  -25.1203 C.3     1  UNL1        0.0887
     25 C          48.6841   15.4323  -23.8705 C.3     1  UNL1        0.0773
     26 C          48.9944   14.4852  -22.7019 C.3     1  UNL1        0.0391
     27 C          50.2394   13.7391  -23.1609 C.3     1  UNL1        0.0936
     28 N          50.1385   13.7007  -24.6125 N.pl3   1  UNL1       -0.2933
     29 N          47.2746   15.8911  -24.0177 N.3     1  UNL1       -0.2724
     30 C          46.7704   16.9642  -23.1308 C.3     1  UNL1        0.0721
     31 C          46.9469   18.3783  -23.7236 C.3     1  UNL1        0.0174
     32 C          46.4369   18.4547  -25.1620 C.3     1  UNL1        0.0029
     33 C          47.0803   17.3622  -26.0137 C.3     1  UNL1        0.0174
     34 C          46.7839   15.9897  -25.4075 C.3     1  UNL1        0.0721
     35 C          50.6630   16.7185  -25.7061 C.3     1  UNL1        0.0018
     36 C          49.7414   15.6035  -26.2174 C.3     1  UNL1        0.0211
@<TRIPOS>BOND
     1    35    36    1
     2    36    24    1
     3    24    25    1
     4    25    29    1
     5    29    30    1
     6    30    31    1
     7    31    32    1
     8    32    33    1
     9    33    34    1
    10    25    26    1
    11    26    27    1
    12    27    28    1
    13    28     1    1
    14     1     2   ar
    15     2     3   ar
    16     3     4   ar
    17     4     5   ar
    18     5     6   ar
    19     6     7   ar
    20     7    11    1
    21    11    12   ar
    22    12    13   ar
    23    13    14   ar
    24    14    15    1
    25    14    16   ar
    26    16    17    1
    27    17    18   ar
    28    18    19   ar
    29    19    20   ar
    30    20    21    1
    31    20    22   ar
    32    22    23   ar
    33     7     8   ar
    34     8     9   ar
    35     9    10    1
    36    28    24    1
    37     6     1   ar
    38    16    11   ar
    39    23    17   ar
    40    34    29    1
    41     9     5   ar
@<TRIPOS>MOLECULE
*****
 36 41 0 0 0
SMALL
GASTEIGER

@<TRIPOS>ATOM
      1 C          51.4215   12.5419  -23.3872 C.ar    1  UNL1        0.1379
      2 N          52.7160   12.6614  -22.9648 N.ar    1  UNL1       -0.2089
      3 C          53.7774   12.4714  -23.8086 C.ar    1  UNL1        0.2014
      4 N          53.5711   12.1171  -25.1097 N.ar    1  UNL1       -0.2050
      5 C          52.2938   11.9965  -25.5427 C.ar    1  UNL1        0.1654
      6 C          51.2176   12.2233  -24.7370 C.ar    1  UNL1        0.0865
      7 C          50.1212   12.0090  -25.5668 C.ar    1  UNL1        0.1095
      8 N          50.5635   11.6446  -26.7966 N.ar    1  UNL1       -0.1677
      9 N          51.8903   11.6452  -26.7727 N.ar    1  UNL1       -0.2319
     10 C          52.7345   11.2707  -27.8992 C.3     1  UNL1        0.1554
     11 C          48.7024   12.2395  -25.2717 C.ar    1  UNL1        0.0577
     12 C          47.8150   11.3247  -24.7439 C.ar    1  UNL1        0.1231
     13 N          46.6438   11.9384  -24.4858 N.ar    1  UNL1       -0.1676
     14 N          46.7654   13.2116  -24.8286 N.ar    1  UNL1       -0.2488
     15 C          45.6747   14.1726  -24.7021 C.3     1  UNL1        0.1537
     16 C          48.0183   13.4424  -25.2831 C.ar    1  UNL1        0.0809
     17 C          48.5534   14.7512  -25.7223 C.ar    1  UNL1        0.0174
     18 C          48.0986   15.3453  -26.9099 C.ar    1  UNL1        0.0012
     19 C          48.5928   16.5896  -27.3124 C.ar    1  UNL1       -0.0042
     20 C          49.5539   17.2542  -26.5366 C.ar    1  UNL1       -0.0218
     21 C          50.0524   18.6079  -26.9472 C.3     1  UNL1        0.0310
     22 C          49.9892   16.6751  -25.3358 C.ar    1  UNL1       -0.0042
     23 C          49.4956   15.4310  -24.9335 C.ar    1  UNL1        0.0012
     24 C          49.9393   11.4817  -21.5664 C.3     1  UNL1        0.0887
     25 C          48.6763   11.9925  -20.8466 C.3     1  UNL1        0.0773
     26 C          48.7770   13.5225  -20.9352 C.3     1  UNL1        0.0391
     27 C          49.5051   13.7622  -22.2504 C.3     1  UNL1        0.0936
     28 N          50.3506   12.5908  -22.4286 N.pl3   1  UNL1       -0.2933
     29 N          48.5392   11.3979  -19.4877 N.3     1  UNL1       -0.2724
     30 C          49.7607   11.0946  -18.7079 C.3     1  UNL1        0.0721
     31 C          50.2062   12.2573  -17.7957 C.3     1  UNL1        0.0174
     32 C          49.0439   12.7996  -16.9651 C.3     1  UNL1        0.0029
     33 C          47.8674   13.1627  -17.8690 C.3     1  UNL1        0.0174
     34 C          47.4317   11.9358  -18.6714 C.3     1  UNL1        0.0721
     35 C          48.5622    9.2882  -21.7998 C.3     1  UNL1        0.0018
     36 C          49.7120   10.1543  -22.3310 C.3     1  UNL1        0.0211
@<TRIPOS>BOND
     1    35    36    1
     2    36    24    1
     3    24    25    1
     4    25    29    1
     5    29    30    1
     6    30    31    1
     7    31    32    1
     8    32    33    1
     9    33    34    1
    10    25    26    1
    11    26    27    1
    12    27    28    1
    13    28     1    1
    14     1     2   ar
    15     2     3   ar
    16     3     4   ar
    17     4     5   ar
    18     5     6   ar
    19     6     7   ar
    20     7    11    1
    21    11    12   ar
    22    12    13   ar
    23    13    14   ar
    24    14    15    1
    25    14    16   ar
    26    16    17    1
    27    17    18   ar
    28    18    19   ar
    29    19    20   ar
    30    20    21    1
    31    20    22   ar
    32    22    23   ar
    33     7     8   ar
    34     8     9   ar
    35     9    10    1
    36    28    24    1
    37     6     1   ar
    38    16    11   ar
    39    23    17   ar
    40    34    29    1
    41     9     5   ar
@<TRIPOS>MOLECULE
*****
 36 41 0 0 0
SMALL
GASTEIGER

@<TRIPOS>ATOM
      1 C          49.2126   13.4629  -22.0760 C.ar    1  UNL1        0.1379
      2 N          50.1885   13.4956  -21.1194 N.ar    1  UNL1       -0.2089
      3 C          50.4696   12.4134  -20.3292 C.ar    1  UNL1        0.2014
      4 N          49.7480   11.2622  -20.4516 N.ar    1  UNL1       -0.2050
      5 C          48.7789   11.2147  -21.3960 C.ar    1  UNL1        0.1654
      6 C          48.5072   12.2610  -22.2269 C.ar    1  UNL1        0.0865
      7 C          47.4754   11.7933  -23.0354 C.ar    1  UNL1        0.1095
      8 N          47.1544   10.5313  -22.6546 N.ar    1  UNL1       -0.1677
      9 N          47.9589   10.1859  -21.6574 N.ar    1  UNL1       -0.2319
     10 C          47.8980    8.9121  -20.9534 C.3     1  UNL1        0.1554
     11 C          46.8714   12.4463  -24.2024 C.ar    1  UNL1        0.0577
     12 C          45.8047   13.3210  -24.1924 C.ar    1  UNL1        0.1231
     13 N          45.6247   13.8176  -25.4318 N.ar    1  UNL1       -0.1676
     14 N          46.5464   13.2887  -26.2218 N.ar    1  UNL1       -0.2488
     15 C          46.6357   13.5914  -27.6464 C.3     1  UNL1        0.1537
     16 C          47.3472   12.4704  -25.5016 C.ar    1  UNL1        0.0809
     17 C          48.5184   11.7277  -26.0202 C.ar    1  UNL1        0.0174
     18 C          48.3601   10.7534  -27.0182 C.ar    1  UNL1        0.0012
     19 C          49.4703   10.0668  -27.5184 C.ar    1  UNL1       -0.0042
     20 C          50.7538   10.3397  -27.0230 C.ar    1  UNL1       -0.0218
     21 C          51.9490    9.6328  -27.5897 C.3     1  UNL1        0.0310
     22 C          50.9174   11.3321  -26.0456 C.ar    1  UNL1       -0.0042
     23 C          49.8075   12.0182  -25.5451 C.ar    1  UNL1        0.0012
     24 C          49.3626   15.0853  -24.0713 C.3     1  UNL1        0.0887
     25 C          48.7848   16.4967  -24.2908 C.3     1  UNL1        0.0773
     26 C          47.5615   16.5584  -23.3640 C.3     1  UNL1        0.0391
     27 C          47.9469   15.6624  -22.1953 C.3     1  UNL1        0.0936
     28 N          48.8478   14.6713  -22.7651 N.pl3   1  UNL1       -0.2933
     29 N          48.5578   16.7798  -25.7355 N.3     1  UNL1       -0.2724
     30 C          47.6046   17.8458  -26.1192 C.3     1  UNL1        0.0721
     31 C          48.2713   19.2272  -26.2906 C.3     1  UNL1        0.0174
     32 C          49.5179   19.1466  -27.1707 C.3     1  UNL1        0.0029
     33 C          50.4746   18.0797  -26.6421 C.3     1  UNL1        0.0174
     34 C          49.7637   16.7267  -26.5870 C.3     1  UNL1        0.0721
     35 C          51.6508   15.9861  -23.2255 C.3     1  UNL1        0.0018
     36 C          50.9071   15.0351  -24.1725 C.3     1  UNL1        0.0211
@<TRIPOS>BOND
     1    35    36    1
     2    36    24    1
     3    24    25    1
     4    25    29    1
     5    29    30    1
     6    30    31    1
     7    31    32    1
     8    32    33    1
     9    33    34    1
    10    25    26    1
    11    26    27    1
    12    27    28    1
    13    28     1    1
    14     1     2   ar
    15     2     3   ar
    16     3     4   ar
    17     4     5   ar
    18     5     6   ar
    19     6     7   ar
    20     7    11    1
    21    11    12   ar
    22    12    13   ar
    23    13    14   ar
    24    14    15    1
    25    14    16   ar
    26    16    17    1
    27    17    18   ar
    28    18    19   ar
    29    19    20   ar
    30    20    21    1
    31    20    22   ar
    32    22    23   ar
    33     7     8   ar
    34     8     9   ar
    35     9    10    1
    36    28    24    1
    37     6     1   ar
    38    16    11   ar
    39    23    17   ar
    40    34    29    1
    41     9     5   ar
@<TRIPOS>MOLECULE
*****
 36 41 0 0 0
SMALL
GASTEIGER

@<TRIPOS>ATOM
      1 C          51.0488   12.9241  -25.4595 C.ar    1  UNL1        0.1379
      2 N          52.4077   13.0520  -25.5345 N.ar    1  UNL1       -0.2089
      3 C          53.2536   12.0176  -25.2362 C.ar    1  UNL1        0.2014
      4 N          52.7576   10.8188  -24.8143 N.ar    1  UNL1       -0.2050
      5 C          51.4133   10.6771  -24.7366 C.ar    1  UNL1        0.1654
      6 C          50.5461   11.6748  -25.0701 C.ar    1  UNL1        0.0865
      7 C          49.2888   11.1146  -24.8648 C.ar    1  UNL1        0.1095
      8 N          49.4406    9.8482  -24.4023 N.ar    1  UNL1       -0.1677
      9 N          50.7403    9.5893  -24.3327 N.ar    1  UNL1       -0.2319
     10 C          51.3061    8.3388  -23.8448 C.3     1  UNL1        0.1554
     11 C          47.9774   11.6873  -25.1892 C.ar    1  UNL1        0.0577
     12 C          47.4644   11.8993  -26.4521 C.ar    1  UNL1        0.1231
     13 N          46.1852   12.3093  -26.3499 N.ar    1  UNL1       -0.1676
     14 N          45.8731   12.3578  -25.0639 N.ar    1  UNL1       -0.2488
     15 C          44.5629   12.7836  -24.5833 C.3     1  UNL1        0.1537
     16 C          46.9310   11.9545  -24.3239 C.ar    1  UNL1        0.0809
     17 C          46.9602   11.8319  -22.8487 C.ar    1  UNL1        0.0174
     18 C          47.1274   10.5780  -22.2405 C.ar    1  UNL1        0.0012
     19 C          47.1726   10.4680  -20.8476 C.ar    1  UNL1       -0.0042
     20 C          47.0443   11.6096  -20.0428 C.ar    1  UNL1       -0.0218
     21 C          47.1350   11.4963  -18.5501 C.3     1  UNL1        0.0310
     22 C          46.9049   12.8666  -20.6490 C.ar    1  UNL1       -0.0042
     23 C          46.8592   12.9766  -22.0414 C.ar    1  UNL1        0.0012
     24 C          49.9784   15.1059  -24.6048 C.3     1  UNL1        0.0887
     25 C          48.9114   16.0331  -25.2179 C.3     1  UNL1        0.0773
     26 C          49.0183   15.7924  -26.7311 C.3     1  UNL1        0.0391
     27 C          49.4476   14.3358  -26.8369 C.3     1  UNL1        0.0936
     28 N          50.2127   14.0824  -25.6248 N.pl3   1  UNL1       -0.2933
     29 N          49.0618   17.4361  -24.7406 N.3     1  UNL1       -0.2724
     30 C          49.8463   18.3930  -25.5537 C.3     1  UNL1        0.0721
     31 C          48.9880   19.1776  -26.5686 C.3     1  UNL1        0.0174
     32 C          47.7445   19.7760  -25.9122 C.3     1  UNL1        0.0029
     33 C          46.9602   18.6940  -25.1725 C.3     1  UNL1        0.0174
     34 C          47.8554   18.0276  -24.1268 C.3     1  UNL1        0.0721
     35 C          50.7190   14.3308  -22.2356 C.3     1  UNL1        0.0018
     36 C          49.5663   14.5262  -23.2292 C.3     1  UNL1        0.0211
@<TRIPOS>BOND
     1    35    36    1
     2    36    24    1
     3    24    25    1
     4    25    29    1
     5    29    30    1
     6    30    31    1
     7    31    32    1
     8    32    33    1
     9    33    34    1
    10    25    26    1
    11    26    27    1
    12    27    28    1
    13    28     1    1
    14     1     2   ar
    15     2     3   ar
    16     3     4   ar
    17     4     5   ar
    18     5     6   ar
    19     6     7   ar
    20     7    11    1
    21    11    12   ar
    22    12    13   ar
    23    13    14   ar
    24    14    15    1
    25    14    16   ar
    26    16    17    1
    27    17    18   ar
    28    18    19   ar
    29    19    20   ar
    30    20    21    1
    31    20    22   ar
    32    22    23   ar
    33     7     8   ar
    34     8     9   ar
    35     9    10    1
    36    28    24    1
    37     6     1   ar
    38    16    11   ar
    39    23    17   ar
    40    34    29    1
    41     9     5   ar
