@<TRIPOS>MOLECULE
*****
 36 39 0 0 0
SMALL
GASTEIGER

@<TRIPOS>ATOM
      1 C         -21.2408   -8.0503   -8.5721 C.ar    1  UNL1        0.1718
      2 C         -20.8131   -7.7541   -9.8772 C.ar    1  UNL1        0.0400
      3 C         -21.6395   -8.0123  -10.9687 C.ar    1  UNL1        0.0030
      4 C         -22.9116   -8.5742  -10.7877 C.ar    1  UNL1       -0.0015
      5 C         -23.3418   -8.9082   -9.4805 C.ar    1  UNL1        0.0145
      6 C         -22.5095   -8.6265   -8.3757 C.ar    1  UNL1        0.1636
      7 O         -22.9511   -8.9234   -7.0839 O.3     1  UNL1       -0.5031
      8 C         -24.6872   -9.5716   -9.2835 C.3     1  UNL1        0.0299
      9 C         -25.8520   -8.6006   -9.5354 C.3     1  UNL1        0.0091
     10 C         -25.6865   -7.7102  -10.7817 C.3     1  UNL1        0.0227
     11 C         -25.1039   -8.4516  -11.9720 C.2     1  UNL1       -0.0398
     12 C         -23.7849   -8.7973  -11.9781 C.2     1  UNL1       -0.0076
     13 H         -22.3902   -8.7392   -6.2610 H       1  UNL1        0.2923
     14 C         -23.1665   -9.4477  -13.1533 C.ar    1  UNL1        0.0056
     15 C         -22.8386   -8.7003  -14.2869 C.ar    1  UNL1        0.0402
     16 C         -22.2678   -9.3180  -15.4166 C.ar    1  UNL1        0.1754
     17 C         -22.0289  -10.7177  -15.3934 C.ar    1  UNL1        0.2061
     18 C         -22.3499  -11.4604  -14.2442 C.ar    1  UNL1        0.1754
     19 C         -22.9023  -10.8179  -13.1241 C.ar    1  UNL1        0.0402
     20 O         -21.9446   -8.5681  -16.5582 O.3     1  UNL1       -0.4683
     21 C         -22.6196   -7.3860  -16.9768 C.3     1  UNL1        0.2526
     22 O         -21.4827  -11.4346  -16.4753 O.3     1  UNL1       -0.4654
     23 C         -22.2011  -12.0099  -17.5609 C.3     1  UNL1        0.2528
     24 O         -22.1117  -12.8444  -14.2592 O.3     1  UNL1       -0.4683
     25 C         -20.8567  -13.4512  -13.9681 C.3     1  UNL1        0.2526
     26 C         -19.2455   -8.5006   -7.1270 C.3     1  UNL1        0.2526
     27 O         -20.4348   -7.7882   -7.4522 O.3     1  UNL1       -0.4684
     28 C         -26.0094   -8.7003  -13.1724 C.3     1  UNL1        0.0488
     29 C         -26.5104   -7.4172  -13.8109 C.ar    1  UNL1       -0.0127
     30 C         -25.6331   -6.6654  -14.6150 C.ar    1  UNL1       -0.0035
     31 C         -26.0416   -5.4565  -15.1809 C.ar    1  UNL1       -0.0003
     32 C         -27.3398   -4.9925  -14.9761 C.ar    1  UNL1        0.0005
     33 C         -28.2399   -5.7471  -14.2233 C.ar    1  UNL1        0.0056
     34 C         -27.8449   -6.9636  -13.6518 C.ar    1  UNL1        0.0178
     35 S         -29.0855   -7.9040  -12.7534 S.3     1  UNL1       -0.1417
     36 H         -29.4681   -8.6060  -13.9114 H       1  UNL1        0.1071
@<TRIPOS>BOND
     1    26    27    1
     2    27     1    1
     3     1     2   ar
     4     2     3   ar
     5     3     4   ar
     6     4     5   ar
     7     5     6   ar
     8     6     7    1
     9     5     8    1
    10     8     9    1
    11     9    10    1
    12    10    11    1
    13    11    28    1
    14    28    29    1
    15    29    30   ar
    16    30    31   ar
    17    31    32   ar
    18    32    33   ar
    19    33    34   ar
    20    34    35    1
    21    11    12    2
    22    12    14    1
    23    14    15   ar
    24    15    16   ar
    25    16    20    1
    26    20    21    1
    27    16    17   ar
    28    17    22    1
    29    22    23    1
    30    17    18   ar
    31    18    24    1
    32    24    25    1
    33    18    19   ar
    34     6     1   ar
    35    34    29   ar
    36    19    14   ar
    37    12     4    1
    38     7    13    1
    39    35    36    1
@<TRIPOS>MOLECULE
*****
 36 39 0 0 0
SMALL
GASTEIGER

@<TRIPOS>ATOM
      1 C         -24.0452  -14.1253  -15.1495 C.ar    1  UNL1        0.1718
      2 C         -24.8069  -13.5648  -14.1104 C.ar    1  UNL1        0.0400
      3 C         -24.4971  -12.3034  -13.6066 C.ar    1  UNL1        0.0030
      4 C         -23.4194  -11.5698  -14.1234 C.ar    1  UNL1       -0.0015
      5 C         -22.6233  -12.1370  -15.1479 C.ar    1  UNL1        0.0145
      6 C         -22.9527  -13.4067  -15.6694 C.ar    1  UNL1        0.1636
      7 O         -22.1877  -13.9485  -16.7054 O.3     1  UNL1       -0.5031
      8 C         -21.4219  -11.3777  -15.6672 C.3     1  UNL1        0.0299
      9 C         -21.8297  -10.1585  -16.5100 C.3     1  UNL1        0.0091
     10 C         -22.9815   -9.3251  -15.9166 C.3     1  UNL1        0.0227
     11 C         -22.8789   -9.1514  -14.4114 C.2     1  UNL1       -0.0398
     12 C         -23.1444  -10.2040  -13.5863 C.2     1  UNL1       -0.0076
     13 H         -22.3856  -14.8547  -17.1119 H       1  UNL1        0.2923
     14 C         -23.1326  -10.0495  -12.1158 C.ar    1  UNL1        0.0056
     15 C         -24.3232   -9.8451  -11.4144 C.ar    1  UNL1        0.0402
     16 C         -24.3158   -9.6774  -10.0161 C.ar    1  UNL1        0.1754
     17 C         -23.0780   -9.7161   -9.3209 C.ar    1  UNL1        0.2061
     18 C         -21.8858   -9.9349  -10.0324 C.ar    1  UNL1        0.1754
     19 C         -21.9218  -10.1165  -11.4246 C.ar    1  UNL1        0.0402
     20 O         -25.5115   -9.4653   -9.3122 O.3     1  UNL1       -0.4683
     21 C         -26.5721   -8.6173   -9.7411 C.3     1  UNL1        0.2526
     22 O         -22.9583   -9.5393   -7.9291 O.3     1  UNL1       -0.4654
     23 C         -22.3442   -8.4417   -7.2631 C.3     1  UNL1        0.2528
     24 O         -20.6783   -9.9555   -9.3156 O.3     1  UNL1       -0.4683
     25 C         -19.4294   -9.4969   -9.8237 C.3     1  UNL1        0.2526
     26 C         -25.2050  -15.6126  -16.7972 C.3     1  UNL1        0.2526
     27 O         -24.3427  -15.3885  -15.6864 O.3     1  UNL1       -0.4684
     28 C         -22.5703   -7.7600  -13.8716 C.3     1  UNL1        0.0488
     29 C         -23.8071   -7.0281  -13.3821 C.ar    1  UNL1       -0.0127
     30 C         -24.9947   -7.1139  -14.1329 C.ar    1  UNL1       -0.0035
     31 C         -26.1393   -6.4175  -13.7411 C.ar    1  UNL1       -0.0003
     32 C         -26.1251   -5.6469  -12.5798 C.ar    1  UNL1        0.0005
     33 C         -24.9731   -5.5885  -11.7951 C.ar    1  UNL1        0.0056
     34 C         -23.8179   -6.2845  -12.1743 C.ar    1  UNL1        0.0178
     35 S         -22.4001   -6.2085  -11.0723 S.3     1  UNL1       -0.1417
     36 H         -22.8209   -7.3507  -10.3663 H       1  UNL1        0.1071
@<TRIPOS>BOND
     1    26    27    1
     2    27     1    1
     3     1     2   ar
     4     2     3   ar
     5     3     4   ar
     6     4     5   ar
     7     5     6   ar
     8     6     7    1
     9     5     8    1
    10     8     9    1
    11     9    10    1
    12    10    11    1
    13    11    28    1
    14    28    29    1
    15    29    30   ar
    16    30    31   ar
    17    31    32   ar
    18    32    33   ar
    19    33    34   ar
    20    34    35    1
    21    11    12    2
    22    12    14    1
    23    14    15   ar
    24    15    16   ar
    25    16    20    1
    26    20    21    1
    27    16    17   ar
    28    17    22    1
    29    22    23    1
    30    17    18   ar
    31    18    24    1
    32    24    25    1
    33    18    19   ar
    34     6     1   ar
    35    34    29   ar
    36    19    14   ar
    37    12     4    1
    38     7    13    1
    39    35    36    1
@<TRIPOS>MOLECULE
*****
 36 39 0 0 0
SMALL
GASTEIGER

@<TRIPOS>ATOM
      1 C         -24.0744  -14.1033  -15.0968 C.ar    1  UNL1        0.1718
      2 C         -24.8068  -13.5192  -14.0497 C.ar    1  UNL1        0.0400
      3 C         -24.4692  -12.2562  -13.5681 C.ar    1  UNL1        0.0030
      4 C         -23.3920  -11.5445  -14.1158 C.ar    1  UNL1       -0.0015
      5 C         -22.6249  -12.1356  -15.1490 C.ar    1  UNL1        0.0145
      6 C         -22.9827  -13.4069  -15.6476 C.ar    1  UNL1        0.1636
      7 O         -22.2466  -13.9722  -16.6919 O.3     1  UNL1       -0.5031
      8 C         -21.4238  -11.4001  -15.7019 C.3     1  UNL1        0.0299
      9 C         -21.8315  -10.1857  -16.5516 C.3     1  UNL1        0.0091
     10 C         -22.9591   -9.3286  -15.9456 C.3     1  UNL1        0.0227
     11 C         -22.8235   -9.1379  -14.4452 C.2     1  UNL1       -0.0398
     12 C         -23.0870  -10.1763  -13.6017 C.2     1  UNL1       -0.0076
     13 H         -22.4655  -14.8805  -17.0828 H       1  UNL1        0.2923
     14 C         -23.0431  -10.0039  -12.1337 C.ar    1  UNL1        0.0056
     15 C         -21.8277  -10.0676  -11.4481 C.ar    1  UNL1        0.0402
     16 C         -21.7824   -9.9241  -10.0478 C.ar    1  UNL1        0.1754
     17 C         -22.9921   -9.7147   -9.3339 C.ar    1  UNL1        0.2061
     18 C         -24.2093   -9.6391  -10.0325 C.ar    1  UNL1        0.1754
     19 C         -24.2258   -9.7681  -11.4310 C.ar    1  UNL1        0.0402
     20 O         -20.5620   -9.9949   -9.3581 O.3     1  UNL1       -0.4683
     21 C         -19.3467   -9.3870   -9.7843 C.3     1  UNL1        0.2526
     22 O         -23.0592   -9.5798   -7.9339 O.3     1  UNL1       -0.4654
     23 C         -22.3780   -8.6140   -7.1410 C.3     1  UNL1        0.2528
     24 O         -25.3881   -9.4431   -9.2948 O.3     1  UNL1       -0.4683
     25 C         -26.4935   -8.6587   -9.7317 C.3     1  UNL1        0.2526
     26 C         -25.2284  -15.5904  -16.7487 C.3     1  UNL1        0.2526
     27 O         -24.4004  -15.3686  -15.6115 O.3     1  UNL1       -0.4684
     28 C         -22.4845   -7.7445  -13.9293 C.3     1  UNL1        0.0488
     29 C         -23.6930   -7.0066  -13.3817 C.ar    1  UNL1       -0.0127
     30 C         -24.9214   -7.1063  -14.0619 C.ar    1  UNL1       -0.0035
     31 C         -26.0434   -6.4053  -13.6165 C.ar    1  UNL1       -0.0003
     32 C         -25.9647   -5.6159  -12.4705 C.ar    1  UNL1        0.0005
     33 C         -24.7699   -5.5431  -11.7541 C.ar    1  UNL1        0.0056
     34 C         -23.6366   -6.2434  -12.1874 C.ar    1  UNL1        0.0178
     35 S         -22.1582   -6.1476  -11.1696 S.3     1  UNL1       -0.1417
     36 H         -22.5353   -7.2788  -10.4225 H       1  UNL1        0.1071
@<TRIPOS>BOND
     1    26    27    1
     2    27     1    1
     3     1     2   ar
     4     2     3   ar
     5     3     4   ar
     6     4     5   ar
     7     5     6   ar
     8     6     7    1
     9     5     8    1
    10     8     9    1
    11     9    10    1
    12    10    11    1
    13    11    28    1
    14    28    29    1
    15    29    30   ar
    16    30    31   ar
    17    31    32   ar
    18    32    33   ar
    19    33    34   ar
    20    34    35    1
    21    11    12    2
    22    12    14    1
    23    14    15   ar
    24    15    16   ar
    25    16    20    1
    26    20    21    1
    27    16    17   ar
    28    17    22    1
    29    22    23    1
    30    17    18   ar
    31    18    24    1
    32    24    25    1
    33    18    19   ar
    34     6     1   ar
    35    34    29   ar
    36    19    14   ar
    37    12     4    1
    38     7    13    1
    39    35    36    1
@<TRIPOS>MOLECULE
*****
 36 39 0 0 0
SMALL
GASTEIGER

@<TRIPOS>ATOM
      1 C         -24.3477  -14.0153  -15.4141 C.ar    1  UNL1        0.1718
      2 C         -25.4934  -13.2692  -15.0906 C.ar    1  UNL1        0.0400
      3 C         -25.3821  -11.9401  -14.6878 C.ar    1  UNL1        0.0030
      4 C         -24.1268  -11.3218  -14.5948 C.ar    1  UNL1       -0.0015
      5 C         -22.9617  -12.0723  -14.8859 C.ar    1  UNL1        0.0145
      6 C         -23.0802  -13.4125  -15.3130 C.ar    1  UNL1        0.1636
      7 O         -21.9315  -14.1398  -15.6348 O.3     1  UNL1       -0.5031
      8 C         -21.6008  -11.4304  -14.7279 C.3     1  UNL1        0.0299
      9 C         -21.3278  -10.3805  -15.8171 C.3     1  UNL1        0.0091
     10 C         -22.5134   -9.4432  -16.1158 C.3     1  UNL1        0.0227
     11 C         -23.2540   -9.0006  -14.8661 C.2     1  UNL1       -0.0398
     12 C         -24.0511   -9.8838  -14.2000 C.2     1  UNL1       -0.0076
     13 H         -21.9663  -15.1029  -15.9461 H       1  UNL1        0.2923
     14 C         -24.8490   -9.4655  -13.0274 C.ar    1  UNL1        0.0056
     15 C         -26.0524   -8.7769  -13.1974 C.ar    1  UNL1        0.0402
     16 C         -26.8064   -8.3586  -12.0839 C.ar    1  UNL1        0.1754
     17 C         -26.3278   -8.6433  -10.7774 C.ar    1  UNL1        0.2061
     18 C         -25.1225   -9.3478  -10.6151 C.ar    1  UNL1        0.1754
     19 C         -24.3978   -9.7692  -11.7420 C.ar    1  UNL1        0.0402
     20 O         -28.0122   -7.6607  -12.2546 O.3     1  UNL1       -0.4683
     21 C         -28.5883   -7.3214  -13.5120 C.3     1  UNL1        0.2526
     22 O         -26.9931   -8.2522   -9.5997 O.3     1  UNL1       -0.4654
     23 C         -27.5303   -6.9651   -9.3163 C.3     1  UNL1        0.2528
     24 O         -24.6721   -9.6023   -9.3095 O.3     1  UNL1       -0.4683
     25 C         -23.3283   -9.4296   -8.8705 C.3     1  UNL1        0.2526
     26 C         -25.0927  -15.7872  -17.0196 C.3     1  UNL1        0.2526
     27 O         -24.4306  -15.3522  -15.8363 O.3     1  UNL1       -0.4684
     28 C         -23.1495   -7.5371  -14.4536 C.3     1  UNL1        0.0488
     29 C         -22.3949   -7.3426  -13.1507 C.ar    1  UNL1       -0.0127
     30 C         -21.1376   -7.9552  -12.9904 C.ar    1  UNL1       -0.0035
     31 C         -20.4342   -7.8389  -11.7903 C.ar    1  UNL1       -0.0003
     32 C         -20.9613   -7.0873  -10.7414 C.ar    1  UNL1        0.0005
     33 C         -22.1827   -6.4316  -10.8978 C.ar    1  UNL1        0.0056
     34 C         -22.8983   -6.5368  -12.0975 C.ar    1  UNL1        0.0178
     35 S         -24.4299   -5.6068  -12.2385 S.3     1  UNL1       -0.1417
     36 H         -23.7628   -4.4871  -12.7689 H       1  UNL1        0.1071
@<TRIPOS>BOND
     1    26    27    1
     2    27     1    1
     3     1     2   ar
     4     2     3   ar
     5     3     4   ar
     6     4     5   ar
     7     5     6   ar
     8     6     7    1
     9     5     8    1
    10     8     9    1
    11     9    10    1
    12    10    11    1
    13    11    28    1
    14    28    29    1
    15    29    30   ar
    16    30    31   ar
    17    31    32   ar
    18    32    33   ar
    19    33    34   ar
    20    34    35    1
    21    11    12    2
    22    12    14    1
    23    14    15   ar
    24    15    16   ar
    25    16    20    1
    26    20    21    1
    27    16    17   ar
    28    17    22    1
    29    22    23    1
    30    17    18   ar
    31    18    24    1
    32    24    25    1
    33    18    19   ar
    34     6     1   ar
    35    34    29   ar
    36    19    14   ar
    37    12     4    1
    38     7    13    1
    39    35    36    1
@<TRIPOS>MOLECULE
*****
 36 39 0 0 0
SMALL
GASTEIGER

@<TRIPOS>ATOM
      1 C         -21.2597   -8.0618   -8.6060 C.ar    1  UNL1        0.1718
      2 C         -20.8404   -7.7816   -9.9174 C.ar    1  UNL1        0.0400
      3 C         -21.6798   -8.0389  -10.9992 C.ar    1  UNL1        0.0030
      4 C         -22.9568   -8.5841  -10.8020 C.ar    1  UNL1       -0.0015
      5 C         -23.3789   -8.9021   -9.4882 C.ar    1  UNL1        0.0145
      6 C         -22.5333   -8.6212   -8.3933 C.ar    1  UNL1        0.1636
      7 O         -22.9665   -8.9020   -7.0951 O.3     1  UNL1       -0.5031
      8 C         -24.7303   -9.5478   -9.2735 C.3     1  UNL1        0.0299
      9 C         -25.8857   -8.5651   -9.5231 C.3     1  UNL1        0.0091
     10 C         -25.7210   -7.6871  -10.7782 C.3     1  UNL1        0.0227
     11 C         -25.1581   -8.4453  -11.9675 C.2     1  UNL1       -0.0398
     12 C         -23.8434   -8.8067  -11.9826 C.2     1  UNL1       -0.0076
     13 H         -22.3961   -8.7176   -6.2789 H       1  UNL1        0.2923
     14 C         -23.2435   -9.4742  -13.1577 C.ar    1  UNL1        0.0056
     15 C         -22.9953  -10.8487  -13.1428 C.ar    1  UNL1        0.0402
     16 C         -22.4056  -11.4862  -14.2516 C.ar    1  UNL1        0.1754
     17 C         -22.0613  -10.7132  -15.3921 C.ar    1  UNL1        0.2061
     18 C         -22.3259   -9.3329  -15.4042 C.ar    1  UNL1        0.1754
     19 C         -22.9307   -8.7239  -14.2924 C.ar    1  UNL1        0.0402
     20 O         -22.1501  -12.8663  -14.2340 O.3     1  UNL1       -0.4683
     21 C         -20.8756  -13.4578  -14.0018 C.3     1  UNL1        0.2526
     22 O         -21.4499  -11.2481  -16.5423 O.3     1  UNL1       -0.4654
     23 C         -22.0784  -12.0317  -17.5505 C.3     1  UNL1        0.2528
     24 O         -21.9620   -8.5963  -16.5430 O.3     1  UNL1       -0.4683
     25 C         -22.6560   -7.4468  -17.0174 C.3     1  UNL1        0.2526
     26 C         -19.2902   -8.5611   -7.1417 C.3     1  UNL1        0.2526
     27 O         -20.4405   -7.7999   -7.4957 O.3     1  UNL1       -0.4684
     28 C         -26.0774   -8.6932  -13.1575 C.3     1  UNL1        0.0488
     29 C         -26.5714   -7.4096  -13.8004 C.ar    1  UNL1       -0.0127
     30 C         -25.6882   -6.6622  -14.6022 C.ar    1  UNL1       -0.0035
     31 C         -26.0903   -5.4529  -15.1719 C.ar    1  UNL1       -0.0003
     32 C         -27.3878   -4.9842  -14.9733 C.ar    1  UNL1        0.0005
     33 C         -28.2936   -5.7344  -14.2230 C.ar    1  UNL1        0.0056
     34 C         -27.9050   -6.9512  -13.6476 C.ar    1  UNL1        0.0178
     35 S         -29.1525   -7.8858  -12.7527 S.3     1  UNL1       -0.1417
     36 H         -29.5326   -8.5886  -13.9110 H       1  UNL1        0.1071
@<TRIPOS>BOND
     1    26    27    1
     2    27     1    1
     3     1     2   ar
     4     2     3   ar
     5     3     4   ar
     6     4     5   ar
     7     5     6   ar
     8     6     7    1
     9     5     8    1
    10     8     9    1
    11     9    10    1
    12    10    11    1
    13    11    28    1
    14    28    29    1
    15    29    30   ar
    16    30    31   ar
    17    31    32   ar
    18    32    33   ar
    19    33    34   ar
    20    34    35    1
    21    11    12    2
    22    12    14    1
    23    14    15   ar
    24    15    16   ar
    25    16    20    1
    26    20    21    1
    27    16    17   ar
    28    17    22    1
    29    22    23    1
    30    17    18   ar
    31    18    24    1
    32    24    25    1
    33    18    19   ar
    34     6     1   ar
    35    34    29   ar
    36    19    14   ar
    37    12     4    1
    38     7    13    1
    39    35    36    1
@<TRIPOS>MOLECULE
*****
 36 39 0 0 0
SMALL
GASTEIGER

@<TRIPOS>ATOM
      1 C         -21.0712   -7.6254  -10.1835 C.ar    1  UNL1        0.1718
      2 C         -22.2656   -6.9021  -10.3386 C.ar    1  UNL1        0.0400
      3 C         -23.2121   -7.2927  -11.2833 C.ar    1  UNL1        0.0030
      4 C         -22.9915   -8.4121  -12.0988 C.ar    1  UNL1       -0.0015
      5 C         -21.7773   -9.1303  -11.9757 C.ar    1  UNL1        0.0145
      6 C         -20.8298   -8.7432  -11.0035 C.ar    1  UNL1        0.1636
      7 O         -19.6487   -9.4754  -10.8591 O.3     1  UNL1       -0.5031
      8 C         -21.5056  -10.3014  -12.8945 C.3     1  UNL1        0.0299
      9 C         -22.3843  -11.5164  -12.5563 C.3     1  UNL1        0.0091
     10 C         -23.8600  -11.1803  -12.2684 C.3     1  UNL1        0.0227
     11 C         -24.4261  -10.1274  -13.2049 C.2     1  UNL1       -0.0398
     12 C         -24.0477   -8.8244  -13.0705 C.2     1  UNL1       -0.0076
     13 H         -18.9402   -9.2367  -10.1759 H       1  UNL1        0.2923
     14 C         -24.6391   -7.7618  -13.9117 C.ar    1  UNL1        0.0056
     15 C         -25.8157   -7.1191  -13.5194 C.ar    1  UNL1        0.0402
     16 C         -26.3943   -6.1204  -14.3265 C.ar    1  UNL1        0.1754
     17 C         -25.7675   -5.7717  -15.5522 C.ar    1  UNL1        0.2061
     18 C         -24.5770   -6.4140  -15.9335 C.ar    1  UNL1        0.1754
     19 C         -24.0107   -7.3947  -15.1027 C.ar    1  UNL1        0.0402
     20 O         -27.5803   -5.4794  -13.9356 O.3     1  UNL1       -0.4683
     21 C         -28.8770   -5.7828  -14.4402 C.3     1  UNL1        0.2526
     22 O         -26.2740   -4.8035  -16.4404 O.3     1  UNL1       -0.4654
     23 C         -26.3282   -3.3981  -16.2224 C.3     1  UNL1        0.2528
     24 O         -23.9899   -6.0537  -17.1572 O.3     1  UNL1       -0.4683
     25 C         -24.5232   -6.3810  -18.4365 C.3     1  UNL1        0.2526
     26 C         -19.8886   -7.9452   -7.9991 C.3     1  UNL1        0.2526
     27 O         -20.1056   -7.2632   -9.2302 O.3     1  UNL1       -0.4684
     28 C         -25.4836  -10.5613  -14.2129 C.3     1  UNL1        0.0488
     29 C         -25.2347  -11.9516  -14.7695 C.ar    1  UNL1       -0.0127
     30 C         -25.9515  -13.0400  -14.2373 C.ar    1  UNL1       -0.0035
     31 C         -25.7169  -14.3396  -14.6897 C.ar    1  UNL1       -0.0003
     32 C         -24.7836  -14.5704  -15.6988 C.ar    1  UNL1        0.0005
     33 C         -24.0986  -13.4998  -16.2739 C.ar    1  UNL1        0.0056
     34 C         -24.3258  -12.1899  -15.8321 C.ar    1  UNL1        0.0178
     35 S         -23.4507  -10.8636  -16.6721 S.3     1  UNL1       -0.1417
     36 H         -24.4903  -10.6977  -17.6058 H       1  UNL1        0.1071
@<TRIPOS>BOND
     1    26    27    1
     2    27     1    1
     3     1     2   ar
     4     2     3   ar
     5     3     4   ar
     6     4     5   ar
     7     5     6   ar
     8     6     7    1
     9     5     8    1
    10     8     9    1
    11     9    10    1
    12    10    11    1
    13    11    28    1
    14    28    29    1
    15    29    30   ar
    16    30    31   ar
    17    31    32   ar
    18    32    33   ar
    19    33    34   ar
    20    34    35    1
    21    11    12    2
    22    12    14    1
    23    14    15   ar
    24    15    16   ar
    25    16    20    1
    26    20    21    1
    27    16    17   ar
    28    17    22    1
    29    22    23    1
    30    17    18   ar
    31    18    24    1
    32    24    25    1
    33    18    19   ar
    34     6     1   ar
    35    34    29   ar
    36    19    14   ar
    37    12     4    1
    38     7    13    1
    39    35    36    1
@<TRIPOS>MOLECULE
*****
 36 39 0 0 0
SMALL
GASTEIGER

@<TRIPOS>ATOM
      1 C         -21.1237   -7.5595  -10.2423 C.ar    1  UNL1        0.1718
      2 C         -22.3280   -6.8529  -10.3986 C.ar    1  UNL1        0.0400
      3 C         -23.2725   -7.2629  -11.3371 C.ar    1  UNL1        0.0030
      4 C         -23.0401   -8.3853  -12.1450 C.ar    1  UNL1       -0.0015
      5 C         -21.8162   -9.0867  -12.0209 C.ar    1  UNL1        0.0145
      6 C         -20.8705   -8.6801  -11.0549 C.ar    1  UNL1        0.1636
      7 O         -19.6795   -9.3957  -10.9092 O.3     1  UNL1       -0.5031
      8 C         -21.5323  -10.2609  -12.9319 C.3     1  UNL1        0.0299
      9 C         -22.3940  -11.4848  -12.5817 C.3     1  UNL1        0.0091
     10 C         -23.8729  -11.1658  -12.2911 C.3     1  UNL1        0.0227
     11 C         -24.4559  -10.1273  -13.2334 C.2     1  UNL1       -0.0398
     12 C         -24.0941   -8.8185  -13.1099 C.2     1  UNL1       -0.0076
     13 H         -18.9718   -9.1427  -10.2303 H       1  UNL1        0.2923
     14 C         -24.7022   -7.7700  -13.9568 C.ar    1  UNL1        0.0056
     15 C         -24.0943   -7.3839  -15.1537 C.ar    1  UNL1        0.0402
     16 C         -24.6584   -6.3718  -15.9543 C.ar    1  UNL1        0.1754
     17 C         -25.8582   -5.7415  -15.5298 C.ar    1  UNL1        0.2061
     18 C         -26.4705   -6.1446  -14.3307 C.ar    1  UNL1        0.1754
     19 C         -25.8972   -7.1684  -13.5587 C.ar    1  UNL1        0.0402
     20 O         -24.0439   -5.9791  -17.1536 O.3     1  UNL1       -0.4683
     21 C         -24.6150   -6.1258  -18.4499 C.3     1  UNL1        0.2526
     22 O         -26.4917   -4.7067  -16.2444 O.3     1  UNL1       -0.4654
     23 C         -26.2353   -3.3120  -16.1238 C.3     1  UNL1        0.2528
     24 O         -27.6493   -5.4924  -13.9343 O.3     1  UNL1       -0.4683
     25 C         -28.9497   -5.8072  -14.4221 C.3     1  UNL1        0.2526
     26 C         -19.9214   -7.8547   -8.0652 C.3     1  UNL1        0.2526
     27 O         -20.1596   -7.1776   -9.2951 O.3     1  UNL1       -0.4684
     28 C         -25.5112  -10.5824  -14.2344 C.3     1  UNL1        0.0488
     29 C         -25.2458  -11.9734  -14.7818 C.ar    1  UNL1       -0.0127
     30 C         -25.9492  -13.0667  -14.2419 C.ar    1  UNL1       -0.0035
     31 C         -25.6992  -14.3664  -14.6857 C.ar    1  UNL1       -0.0003
     32 C         -24.7638  -14.5927  -15.6938 C.ar    1  UNL1        0.0005
     33 C         -24.0920  -13.5179  -16.2765 C.ar    1  UNL1        0.0056
     34 C         -24.3348  -12.2079  -15.8434 C.ar    1  UNL1        0.0178
     35 S         -23.4761  -10.8768  -16.6929 S.3     1  UNL1       -0.1417
     36 H         -24.5182  -10.7297  -17.6270 H       1  UNL1        0.1071
@<TRIPOS>BOND
     1    26    27    1
     2    27     1    1
     3     1     2   ar
     4     2     3   ar
     5     3     4   ar
     6     4     5   ar
     7     5     6   ar
     8     6     7    1
     9     5     8    1
    10     8     9    1
    11     9    10    1
    12    10    11    1
    13    11    28    1
    14    28    29    1
    15    29    30   ar
    16    30    31   ar
    17    31    32   ar
    18    32    33   ar
    19    33    34   ar
    20    34    35    1
    21    11    12    2
    22    12    14    1
    23    14    15   ar
    24    15    16   ar
    25    16    20    1
    26    20    21    1
    27    16    17   ar
    28    17    22    1
    29    22    23    1
    30    17    18   ar
    31    18    24    1
    32    24    25    1
    33    18    19   ar
    34     6     1   ar
    35    34    29   ar
    36    19    14   ar
    37    12     4    1
    38     7    13    1
    39    35    36    1
@<TRIPOS>MOLECULE
*****
 36 39 0 0 0
SMALL
GASTEIGER

@<TRIPOS>ATOM
      1 C         -24.3580  -14.0115  -15.3968 C.ar    1  UNL1        0.1718
      2 C         -25.4975  -13.2683  -15.0462 C.ar    1  UNL1        0.0400
      3 C         -25.3800  -11.9397  -14.6437 C.ar    1  UNL1        0.0030
      4 C         -24.1242  -11.3189  -14.5781 C.ar    1  UNL1       -0.0015
      5 C         -22.9644  -12.0664  -14.8968 C.ar    1  UNL1        0.0145
      6 C         -23.0897  -13.4061  -15.3234 C.ar    1  UNL1        0.1636
      7 O         -21.9471  -14.1304  -15.6724 O.3     1  UNL1       -0.5031
      8 C         -21.6016  -11.4218  -14.7686 C.3     1  UNL1        0.0299
      9 C         -21.3555  -10.3695  -15.8619 C.3     1  UNL1        0.0091
     10 C         -22.5495   -9.4342  -16.1321 C.3     1  UNL1        0.0227
     11 C         -23.2626   -8.9953  -14.8652 C.2     1  UNL1       -0.0398
     12 C         -24.0426   -9.8813  -14.1827 C.2     1  UNL1       -0.0076
     13 H         -21.9869  -15.0931  -15.9845 H       1  UNL1        0.2923
     14 C         -24.8146   -9.4667  -12.9917 C.ar    1  UNL1        0.0056
     15 C         -24.3434   -9.7490  -11.7073 C.ar    1  UNL1        0.0402
     16 C         -25.0843   -9.3743  -10.5697 C.ar    1  UNL1        0.1754
     17 C         -26.3245   -8.7039  -10.7414 C.ar    1  UNL1        0.2061
     18 C         -26.7855   -8.4122  -12.0367 C.ar    1  UNL1        0.1754
     19 C         -26.0195   -8.7813  -13.1546 C.ar    1  UNL1        0.0402
     20 O         -24.6140   -9.6639   -9.2794 O.3     1  UNL1       -0.4683
     21 C         -23.2994   -9.3857   -8.8078 C.3     1  UNL1        0.2526
     22 O         -27.1509   -8.3052   -9.6733 O.3     1  UNL1       -0.4654
     23 C         -27.4821   -6.9698   -9.3096 C.3     1  UNL1        0.2528
     24 O         -28.0214   -7.7590  -12.1709 O.3     1  UNL1       -0.4683
     25 C         -28.6006   -7.3737  -13.4136 C.3     1  UNL1        0.2526
     26 C         -25.0838  -15.7759  -17.0193 C.3     1  UNL1        0.2526
     27 O         -24.4476  -15.3478  -15.8193 O.3     1  UNL1       -0.4684
     28 C         -23.1519   -7.5323  -14.4527 C.3     1  UNL1        0.0488
     29 C         -22.3842   -7.3399  -13.1571 C.ar    1  UNL1       -0.0127
     30 C         -21.1230   -7.9482  -13.0125 C.ar    1  UNL1       -0.0035
     31 C         -20.4073   -7.8338  -11.8195 C.ar    1  UNL1       -0.0003
     32 C         -20.9261   -7.0884  -10.7622 C.ar    1  UNL1        0.0005
     33 C         -22.1516   -6.4368  -10.9030 C.ar    1  UNL1        0.0056
     34 C         -22.8795   -6.5401  -12.0955 C.ar    1  UNL1        0.0178
     35 S         -24.4160   -5.6155  -12.2166 S.3     1  UNL1       -0.1417
     36 H         -23.7589   -4.4912  -12.7497 H       1  UNL1        0.1071
@<TRIPOS>BOND
     1    26    27    1
     2    27     1    1
     3     1     2   ar
     4     2     3   ar
     5     3     4   ar
     6     4     5   ar
     7     5     6   ar
     8     6     7    1
     9     5     8    1
    10     8     9    1
    11     9    10    1
    12    10    11    1
    13    11    28    1
    14    28    29    1
    15    29    30   ar
    16    30    31   ar
    17    31    32   ar
    18    32    33   ar
    19    33    34   ar
    20    34    35    1
    21    11    12    2
    22    12    14    1
    23    14    15   ar
    24    15    16   ar
    25    16    20    1
    26    20    21    1
    27    16    17   ar
    28    17    22    1
    29    22    23    1
    30    17    18   ar
    31    18    24    1
    32    24    25    1
    33    18    19   ar
    34     6     1   ar
    35    34    29   ar
    36    19    14   ar
    37    12     4    1
    38     7    13    1
    39    35    36    1
@<TRIPOS>MOLECULE
*****
 36 39 0 0 0
SMALL
GASTEIGER

@<TRIPOS>ATOM
      1 C         -19.6701   -9.6955   -9.3077 C.ar    1  UNL1        0.1718
      2 C         -19.4840  -10.3306  -10.5471 C.ar    1  UNL1        0.0400
      3 C         -20.4074  -10.1590  -11.5761 C.ar    1  UNL1        0.0030
      4 C         -21.5405   -9.3526  -11.3955 C.ar    1  UNL1       -0.0015
      5 C         -21.7573   -8.7336  -10.1405 C.ar    1  UNL1        0.0145
      6 C         -20.8090   -8.8938   -9.1072 C.ar    1  UNL1        0.1636
      7 O         -21.0066   -8.2524   -7.8818 O.3     1  UNL1       -0.5031
      8 C         -23.0088   -7.9128   -9.9186 C.3     1  UNL1        0.0299
      9 C         -22.9715   -6.5834  -10.6895 C.3     1  UNL1        0.0091
     10 C         -22.4556   -6.6957  -12.1368 C.3     1  UNL1        0.0227
     11 C         -22.9709   -7.9273  -12.8605 C.2     1  UNL1       -0.0398
     12 C         -22.4855   -9.1593  -12.5353 C.2     1  UNL1       -0.0076
     13 H         -20.3543   -8.3368   -7.1117 H       1  UNL1        0.2923
     14 C         -22.9052  -10.3699  -13.2735 C.ar    1  UNL1        0.0056
     15 C         -23.8175  -11.2643  -12.7089 C.ar    1  UNL1        0.0402
     16 C         -24.2054  -12.4291  -13.3991 C.ar    1  UNL1        0.1754
     17 C         -23.6552  -12.6889  -14.6823 C.ar    1  UNL1        0.2061
     18 C         -22.7476  -11.7776  -15.2488 C.ar    1  UNL1        0.1754
     19 C         -22.3900  -10.6144  -14.5475 C.ar    1  UNL1        0.0402
     20 O         -25.1170  -13.3313  -12.8288 O.3     1  UNL1       -0.4683
     21 C         -26.3440  -13.7391  -13.4257 C.3     1  UNL1        0.2526
     22 O         -23.9600  -13.8323  -15.4456 O.3     1  UNL1       -0.4654
     23 C         -23.3286  -15.1046  -15.3569 C.3     1  UNL1        0.2528
     24 O         -22.2135  -12.0710  -16.5141 O.3     1  UNL1       -0.4683
     25 C         -22.8085  -11.6893  -17.7504 C.3     1  UNL1        0.2526
     26 C         -17.8078  -10.9021   -8.1465 C.3     1  UNL1        0.2526
     27 O         -18.7489   -9.8392   -8.2574 O.3     1  UNL1       -0.4684
     28 C         -23.9568   -7.7240  -14.0048 C.3     1  UNL1        0.0488
     29 C         -25.3945   -7.6036  -13.5321 C.ar    1  UNL1       -0.0127
     30 C         -25.8317   -8.4052  -12.4607 C.ar    1  UNL1       -0.0035
     31 C         -27.1580   -8.3576  -12.0279 C.ar    1  UNL1       -0.0003
     32 C         -28.0617   -7.4900  -12.6388 C.ar    1  UNL1        0.0005
     33 C         -27.6362   -6.6515  -13.6694 C.ar    1  UNL1        0.0056
     34 C         -26.3076   -6.6862  -14.1122 C.ar    1  UNL1        0.0178
     35 S         -25.8274   -5.5262  -15.3985 S.3     1  UNL1       -0.1417
     36 H         -25.4563   -4.5512  -14.4543 H       1  UNL1        0.1071
@<TRIPOS>BOND
     1    26    27    1
     2    27     1    1
     3     1     2   ar
     4     2     3   ar
     5     3     4   ar
     6     4     5   ar
     7     5     6   ar
     8     6     7    1
     9     5     8    1
    10     8     9    1
    11     9    10    1
    12    10    11    1
    13    11    28    1
    14    28    29    1
    15    29    30   ar
    16    30    31   ar
    17    31    32   ar
    18    32    33   ar
    19    33    34   ar
    20    34    35    1
    21    11    12    2
    22    12    14    1
    23    14    15   ar
    24    15    16   ar
    25    16    20    1
    26    20    21    1
    27    16    17   ar
    28    17    22    1
    29    22    23    1
    30    17    18   ar
    31    18    24    1
    32    24    25    1
    33    18    19   ar
    34     6     1   ar
    35    34    29   ar
    36    19    14   ar
    37    12     4    1
    38     7    13    1
    39    35    36    1
