@<TRIPOS>MOLECULE
*****
 47 52 0 0 0
SMALL
GASTEIGER

@<TRIPOS>ATOM
      1 O         -65.6730  -40.6560  -27.9601 O.2     1  UNL1       -0.2701
      2 C         -64.5296  -41.1581  -28.1323 C.2     1  UNL1        0.2483
      3 N         -64.0950  -41.4441  -29.4668 N.am    1  UNL1       -0.2945
      4 H         -63.3043  -40.8889  -29.8640 H       1  UNL1        0.1501
      5 C         -63.6804  -41.4947  -26.9582 C.ar    1  UNL1        0.0808
      6 C         -64.2394  -41.4633  -25.6675 C.ar    1  UNL1        0.0080
      7 C         -63.4966  -41.8682  -24.5560 C.ar    1  UNL1        0.0148
      8 C         -62.1742  -42.3131  -24.7038 C.ar    1  UNL1        0.0502
      9 C         -61.6053  -42.3277  -25.9878 C.ar    1  UNL1        0.0443
     10 C         -62.3396  -41.9126  -27.1017 C.ar    1  UNL1        0.1457
     11 F         -61.7330  -41.9506  -28.3138 F       1  UNL1       -0.2040
     12 N         -61.4383  -42.8049  -23.5628 N.pl3   1  UNL1       -0.3040
     13 C         -59.9810  -42.9949  -23.6167 C.3     1  UNL1        0.1122
     14 C         -59.6607  -44.4879  -23.4746 C.3     1  UNL1        0.1122
     15 N         -60.5131  -45.1193  -22.4515 N.pl3   1  UNL1       -0.3040
     16 C         -61.3045  -44.2616  -21.5554 C.3     1  UNL1        0.1122
     17 C         -62.1739  -43.3119  -22.3904 C.3     1  UNL1        0.1122
     18 C         -60.6580  -46.5551  -22.4340 C.ar    1  UNL1        0.0488
     19 C         -60.2750  -47.3017  -21.3058 C.ar    1  UNL1        0.0154
     20 C         -60.4534  -48.6868  -21.2785 C.ar    1  UNL1        0.0135
     21 C         -61.0175  -49.3477  -22.3737 C.ar    1  UNL1        0.0683
     22 CL        -61.2313  -51.0914  -22.2987 Cl      1  UNL1       -0.0814
     23 C         -61.4070  -48.6131  -23.5053 C.ar    1  UNL1        0.0694
     24 CL        -62.1229  -49.4047  -24.9029 Cl      1  UNL1       -0.0813
     25 C         -61.2291  -47.2248  -23.5302 C.ar    1  UNL1        0.0268
     26 C         -64.6079  -42.5872  -30.2270 C.3     1  UNL1        0.1535
     27 C         -63.4928  -43.2035  -31.0436 C.2     1  UNL1        0.2443
     28 O         -63.7598  -43.9814  -32.0000 O.2     1  UNL1       -0.2730
     29 N         -62.1273  -42.9330  -30.6908 N.am    1  UNL1       -0.2825
     30 H         -61.9317  -42.0550  -30.1584 H       1  UNL1        0.1549
     31 C         -61.0158  -43.7966  -30.9955 C.ar    1  UNL1        0.0535
     32 C         -60.4335  -44.6318  -30.0241 C.ar    1  UNL1        0.0353
     33 C         -59.3246  -45.4117  -30.3595 C.ar    1  UNL1        0.1002
     34 N         -58.8029  -45.3543  -31.6127 N.ar    1  UNL1       -0.2422
     35 C         -59.3325  -44.5458  -32.5672 C.ar    1  UNL1        0.1002
     36 C         -60.4424  -43.7496  -32.2744 C.ar    1  UNL1        0.0353
     37 C         -65.3002  -43.5904  -29.2825 C.3     1  UNL1        0.0569
     38 C         -64.6876  -44.9586  -29.3830 C.ar    1  UNL1       -0.0017
     39 C         -65.0139  -45.9511  -30.3028 C.ar    1  UNL1        0.0681
     40 N         -64.2977  -47.0727  -30.0607 N.ar    1  UNL1       -0.3523
     41 C         -63.5281  -46.7993  -28.9930 C.ar    1  UNL1        0.0563
     42 C         -62.6245  -47.6530  -28.3615 C.ar    1  UNL1        0.0170
     43 C         -61.9262  -47.1607  -27.2436 C.ar    1  UNL1        0.0015
     44 C         -62.1454  -45.8421  -26.7862 C.ar    1  UNL1        0.0001
     45 C         -63.0644  -45.0034  -27.4428 C.ar    1  UNL1        0.0012
     46 C         -63.7399  -45.5192  -28.5492 C.ar    1  UNL1        0.0131
     47 H         -64.3434  -47.9703  -30.5926 H       1  UNL1        0.1660
@<TRIPOS>BOND
     1     1     2    2
     2     2     3   am
     3     3    26    1
     4    26    37    1
     5    37    38    1
     6    38    39   ar
     7    39    40   ar
     8    40    41   ar
     9    41    42   ar
    10    42    43   ar
    11    43    44   ar
    12    44    45   ar
    13    45    46   ar
    14    26    27    1
    15    27    28    2
    16    27    29   am
    17    29    31    1
    18    31    32   ar
    19    32    33   ar
    20    33    34   ar
    21    34    35   ar
    22    35    36   ar
    23     2     5    1
    24     5     6   ar
    25     6     7   ar
    26     7     8   ar
    27     8    12    1
    28    12    13    1
    29    13    14    1
    30    14    15    1
    31    15    18    1
    32    18    19   ar
    33    19    20   ar
    34    20    21   ar
    35    21    22    1
    36    21    23   ar
    37    23    24    1
    38    23    25   ar
    39    15    16    1
    40    16    17    1
    41     8     9   ar
    42     9    10   ar
    43    10    11    1
    44    46    38   ar
    45    36    31   ar
    46    10     5   ar
    47    46    41   ar
    48    17    12    1
    49    25    18   ar
    50     3     4    1
    51    40    47    1
    52    29    30    1
@<TRIPOS>MOLECULE
*****
 47 52 0 0 0
SMALL
GASTEIGER

@<TRIPOS>ATOM
      1 O         -60.2410  -42.2753  -20.0893 O.2     1  UNL1       -0.2701
      2 C         -60.9393  -41.9767  -21.0955 C.2     1  UNL1        0.2483
      3 N         -61.6125  -40.7126  -21.1181 N.am    1  UNL1       -0.2945
      4 H         -61.3019  -39.9940  -21.8098 H       1  UNL1        0.1501
      5 C         -61.0981  -42.9525  -22.2070 C.ar    1  UNL1        0.0808
      6 C         -61.8324  -44.1332  -21.9923 C.ar    1  UNL1        0.0080
      7 C         -62.0821  -45.0213  -23.0412 C.ar    1  UNL1        0.0148
      8 C         -61.6028  -44.7547  -24.3326 C.ar    1  UNL1        0.0502
      9 C         -60.8525  -43.5871  -24.5477 C.ar    1  UNL1        0.0443
     10 C         -60.5895  -42.7011  -23.4997 C.ar    1  UNL1        0.1457
     11 F         -59.8593  -41.5916  -23.7726 F       1  UNL1       -0.2040
     12 N         -61.9311  -45.6356  -25.4287 N.pl3   1  UNL1       -0.3040
     13 C         -61.0805  -46.7868  -25.7660 C.3     1  UNL1        0.1122
     14 C         -60.4671  -46.5719  -27.1551 C.3     1  UNL1        0.1122
     15 N         -61.4552  -46.0053  -28.0904 N.pl3   1  UNL1       -0.3040
     16 C         -62.8738  -45.9825  -27.7005 C.3     1  UNL1        0.1122
     17 C         -63.0227  -45.2701  -26.3493 C.3     1  UNL1        0.1122
     18 C         -61.0021  -45.3679  -29.3033 C.ar    1  UNL1        0.0488
     19 C         -59.6641  -45.4852  -29.7195 C.ar    1  UNL1        0.0154
     20 C         -59.2396  -44.8992  -30.9142 C.ar    1  UNL1        0.0135
     21 C         -60.1418  -44.1897  -31.7123 C.ar    1  UNL1        0.0683
     22 CL        -59.5702  -43.4715  -33.2121 Cl      1  UNL1       -0.0814
     23 C         -61.4814  -44.0678  -31.3093 C.ar    1  UNL1        0.0694
     24 CL        -62.6493  -43.1864  -32.2848 Cl      1  UNL1       -0.0813
     25 C         -61.9056  -44.6572  -30.1125 C.ar    1  UNL1        0.0268
     26 C         -62.8166  -40.4549  -20.3235 C.3     1  UNL1        0.1535
     27 C         -63.1902  -38.9913  -20.4163 C.2     1  UNL1        0.2443
     28 O         -62.5118  -38.2058  -21.1332 O.2     1  UNL1       -0.2730
     29 N         -64.2945  -38.4946  -19.6443 N.am    1  UNL1       -0.2825
     30 H         -65.0274  -39.1810  -19.3541 H       1  UNL1        0.1549
     31 C         -64.4489  -37.1266  -19.2212 C.ar    1  UNL1        0.0535
     32 C         -65.6016  -36.3789  -19.5250 C.ar    1  UNL1        0.0353
     33 C         -65.6785  -35.0400  -19.1350 C.ar    1  UNL1        0.1002
     34 N         -64.6410  -34.4594  -18.4776 N.ar    1  UNL1       -0.2422
     35 C         -63.5087  -35.1502  -18.1846 C.ar    1  UNL1        0.1002
     36 C         -63.3903  -36.4918  -18.5559 C.ar    1  UNL1        0.0353
     37 C         -63.9536  -41.4043  -20.7522 C.3     1  UNL1        0.0569
     38 C         -64.8239  -40.7842  -21.8083 C.ar    1  UNL1       -0.0017
     39 C         -66.0035  -40.0741  -21.6035 C.ar    1  UNL1        0.0681
     40 N         -66.5475  -39.7111  -22.7875 N.ar    1  UNL1       -0.3523
     41 C         -65.7259  -40.1912  -23.7370 C.ar    1  UNL1        0.0563
     42 C         -65.8744  -40.0794  -25.1188 C.ar    1  UNL1        0.0170
     43 C         -64.8938  -40.6717  -25.9356 C.ar    1  UNL1        0.0015
     44 C         -63.8001  -41.3559  -25.3597 C.ar    1  UNL1        0.0001
     45 C         -63.6767  -41.4537  -23.9617 C.ar    1  UNL1        0.0012
     46 C         -64.6637  -40.8548  -23.1783 C.ar    1  UNL1        0.0131
     47 H         -67.4317  -39.1743  -22.9305 H       1  UNL1        0.1660
@<TRIPOS>BOND
     1     1     2    2
     2     2     3   am
     3     3    26    1
     4    26    37    1
     5    37    38    1
     6    38    39   ar
     7    39    40   ar
     8    40    41   ar
     9    41    42   ar
    10    42    43   ar
    11    43    44   ar
    12    44    45   ar
    13    45    46   ar
    14    26    27    1
    15    27    28    2
    16    27    29   am
    17    29    31    1
    18    31    32   ar
    19    32    33   ar
    20    33    34   ar
    21    34    35   ar
    22    35    36   ar
    23     2     5    1
    24     5     6   ar
    25     6     7   ar
    26     7     8   ar
    27     8    12    1
    28    12    13    1
    29    13    14    1
    30    14    15    1
    31    15    18    1
    32    18    19   ar
    33    19    20   ar
    34    20    21   ar
    35    21    22    1
    36    21    23   ar
    37    23    24    1
    38    23    25   ar
    39    15    16    1
    40    16    17    1
    41     8     9   ar
    42     9    10   ar
    43    10    11    1
    44    46    38   ar
    45    36    31   ar
    46    10     5   ar
    47    46    41   ar
    48    17    12    1
    49    25    18   ar
    50     3     4    1
    51    40    47    1
    52    29    30    1
@<TRIPOS>MOLECULE
*****
 47 52 0 0 0
SMALL
GASTEIGER

@<TRIPOS>ATOM
      1 O         -59.2523  -43.4799  -22.2960 O.2     1  UNL1       -0.2701
      2 C         -60.2980  -42.8504  -22.6108 C.2     1  UNL1        0.2483
      3 N         -60.8219  -41.8807  -21.6960 N.am    1  UNL1       -0.2945
      4 H         -60.7962  -40.8725  -21.9685 H       1  UNL1        0.1501
      5 C         -60.9966  -43.1595  -23.8873 C.ar    1  UNL1        0.0808
      6 C         -61.9902  -44.1553  -23.9095 C.ar    1  UNL1        0.0080
      7 C         -62.7316  -44.4007  -25.0676 C.ar    1  UNL1        0.0148
      8 C         -62.4986  -43.6593  -26.2357 C.ar    1  UNL1        0.0502
      9 C         -61.4944  -42.6775  -26.2244 C.ar    1  UNL1        0.0443
     10 C         -60.7415  -42.4358  -25.0723 C.ar    1  UNL1        0.1457
     11 F         -59.7868  -41.4745  -25.1263 F       1  UNL1       -0.2040
     12 N         -63.3211  -43.8629  -27.4050 N.pl3   1  UNL1       -0.3040
     13 C         -63.6343  -45.2139  -27.8941 C.3     1  UNL1        0.1122
     14 C         -62.9980  -45.4112  -29.2754 C.3     1  UNL1        0.1122
     15 N         -63.1484  -44.2038  -30.1071 N.pl3   1  UNL1       -0.3040
     16 C         -64.0652  -43.1422  -29.6626 C.3     1  UNL1        0.1122
     17 C         -63.6925  -42.7058  -28.2393 C.3     1  UNL1        0.1122
     18 C         -62.3023  -44.0265  -31.2628 C.ar    1  UNL1        0.0488
     19 C         -62.8198  -43.4931  -32.4564 C.ar    1  UNL1        0.0154
     20 C         -61.9882  -43.2870  -33.5596 C.ar    1  UNL1        0.0135
     21 C         -60.6293  -43.6073  -33.4891 C.ar    1  UNL1        0.0683
     22 CL        -59.6140  -43.3276  -34.8973 Cl      1  UNL1       -0.0814
     23 C         -60.0996  -44.1378  -32.3018 C.ar    1  UNL1        0.0694
     24 CL        -58.3955  -44.5517  -32.1699 Cl      1  UNL1       -0.0813
     25 C         -60.9340  -44.3421  -31.1965 C.ar    1  UNL1        0.0268
     26 C         -61.5341  -42.2647  -20.4742 C.3     1  UNL1        0.1535
     27 C         -61.9754  -41.0258  -19.7255 C.2     1  UNL1        0.2443
     28 O         -62.2397  -41.0873  -18.4936 O.2     1  UNL1       -0.2730
     29 N         -62.1365  -39.7900  -20.4391 N.am    1  UNL1       -0.2825
     30 H         -61.5995  -39.6731  -21.3282 H       1  UNL1        0.1549
     31 C         -63.0030  -38.7147  -20.0303 C.ar    1  UNL1        0.0535
     32 C         -64.2521  -38.9531  -19.4276 C.ar    1  UNL1        0.0353
     33 C         -65.0759  -37.8748  -19.0971 C.ar    1  UNL1        0.1002
     34 N         -64.6794  -36.6040  -19.3679 N.ar    1  UNL1       -0.2422
     35 C         -63.4869  -36.3427  -19.9638 C.ar    1  UNL1        0.1002
     36 C         -62.6319  -37.3918  -20.3104 C.ar    1  UNL1        0.0353
     37 C         -62.6955  -43.2218  -20.8105 C.3     1  UNL1        0.0569
     38 C         -64.0029  -42.4892  -20.9182 C.ar    1  UNL1       -0.0017
     39 C         -65.0545  -42.5250  -20.0070 C.ar    1  UNL1        0.0681
     40 N         -66.0944  -41.7864  -20.4572 N.ar    1  UNL1       -0.3523
     41 C         -65.7111  -41.2908  -21.6466 C.ar    1  UNL1        0.0563
     42 C         -66.4525  -40.4762  -22.5015 C.ar    1  UNL1        0.0170
     43 C         -65.8564  -40.0792  -23.7125 C.ar    1  UNL1        0.0015
     44 C         -64.5484  -40.5018  -24.0390 C.ar    1  UNL1        0.0001
     45 C         -63.8242  -41.3247  -23.1572 C.ar    1  UNL1        0.0012
     46 C         -64.4412  -41.7000  -21.9635 C.ar    1  UNL1        0.0131
     47 H         -67.0110  -41.6407  -19.9786 H       1  UNL1        0.1660
@<TRIPOS>BOND
     1     1     2    2
     2     2     3   am
     3     3    26    1
     4    26    37    1
     5    37    38    1
     6    38    39   ar
     7    39    40   ar
     8    40    41   ar
     9    41    42   ar
    10    42    43   ar
    11    43    44   ar
    12    44    45   ar
    13    45    46   ar
    14    26    27    1
    15    27    28    2
    16    27    29   am
    17    29    31    1
    18    31    32   ar
    19    32    33   ar
    20    33    34   ar
    21    34    35   ar
    22    35    36   ar
    23     2     5    1
    24     5     6   ar
    25     6     7   ar
    26     7     8   ar
    27     8    12    1
    28    12    13    1
    29    13    14    1
    30    14    15    1
    31    15    18    1
    32    18    19   ar
    33    19    20   ar
    34    20    21   ar
    35    21    22    1
    36    21    23   ar
    37    23    24    1
    38    23    25   ar
    39    15    16    1
    40    16    17    1
    41     8     9   ar
    42     9    10   ar
    43    10    11    1
    44    46    38   ar
    45    36    31   ar
    46    10     5   ar
    47    46    41   ar
    48    17    12    1
    49    25    18   ar
    50     3     4    1
    51    40    47    1
    52    29    30    1
@<TRIPOS>MOLECULE
*****
 47 52 0 0 0
SMALL
GASTEIGER

@<TRIPOS>ATOM
      1 O         -61.5426  -41.6990  -28.1075 O.2     1  UNL1       -0.2701
      2 C         -60.9201  -42.4542  -27.3131 C.2     1  UNL1        0.2483
      3 N         -59.8828  -43.2957  -27.8304 N.am    1  UNL1       -0.2945
      4 H         -58.8960  -43.1029  -27.5472 H       1  UNL1        0.1501
      5 C         -61.3044  -42.5019  -25.8768 C.ar    1  UNL1        0.0808
      6 C         -60.3019  -42.6009  -24.8946 C.ar    1  UNL1        0.0080
      7 C         -60.6235  -42.5492  -23.5363 C.ar    1  UNL1        0.0148
      8 C         -61.9557  -42.3996  -23.1225 C.ar    1  UNL1        0.0502
      9 C         -62.9621  -42.3200  -24.0989 C.ar    1  UNL1        0.0443
     10 C         -62.6476  -42.3831  -25.4588 C.ar    1  UNL1        0.1457
     11 F         -63.6648  -42.3005  -26.3516 F       1  UNL1       -0.2040
     12 N         -62.2734  -42.2672  -21.7200 N.pl3   1  UNL1       -0.3040
     13 C         -63.6029  -42.6208  -21.2003 C.3     1  UNL1        0.1122
     14 C         -64.2896  -41.3571  -20.6680 C.3     1  UNL1        0.1122
     15 N         -63.3399  -40.5085  -19.9265 N.pl3   1  UNL1       -0.3040
     16 C         -62.0249  -41.0600  -19.5635 C.3     1  UNL1        0.1122
     17 C         -61.3233  -41.5841  -20.8237 C.3     1  UNL1        0.1122
     18 C         -63.6613  -39.1218  -19.6885 C.ar    1  UNL1        0.0488
     19 C         -64.7174  -38.7665  -18.8309 C.ar    1  UNL1        0.0154
     20 C         -64.9997  -37.4230  -18.5732 C.ar    1  UNL1        0.0135
     21 C         -64.2332  -36.4145  -19.1644 C.ar    1  UNL1        0.0683
     22 CL        -64.6161  -34.7352  -18.8105 Cl      1  UNL1       -0.0814
     23 C         -63.1739  -36.7562  -20.0205 C.ar    1  UNL1        0.0694
     24 CL        -62.1834  -35.5190  -20.7825 Cl      1  UNL1       -0.0813
     25 C         -62.8912  -38.1031  -20.2763 C.ar    1  UNL1        0.0268
     26 C         -60.1724  -44.5057  -28.6048 C.3     1  UNL1        0.1535
     27 C         -60.6994  -45.5886  -27.6885 C.2     1  UNL1        0.2443
     28 O         -59.9151  -46.4502  -27.2050 O.2     1  UNL1       -0.2730
     29 N         -62.1070  -45.6558  -27.4121 N.am    1  UNL1       -0.2825
     30 H         -62.6618  -44.7764  -27.5189 H       1  UNL1        0.1549
     31 C         -62.8097  -46.8516  -27.0245 C.ar    1  UNL1        0.0535
     32 C         -63.0519  -47.1688  -25.6751 C.ar    1  UNL1        0.0353
     33 C         -63.6930  -48.3668  -25.3520 C.ar    1  UNL1        0.1002
     34 N         -64.0689  -49.2269  -26.3341 N.ar    1  UNL1       -0.2422
     35 C         -63.8343  -48.9566  -27.6445 C.ar    1  UNL1        0.1002
     36 C         -63.1964  -47.7693  -28.0119 C.ar    1  UNL1        0.0353
     37 C         -61.1232  -44.1778  -29.7737 C.3     1  UNL1        0.0569
     38 C         -60.4183  -44.2530  -31.0984 C.ar    1  UNL1       -0.0017
     39 C         -59.1016  -44.6466  -31.3195 C.ar    1  UNL1        0.0681
     40 N         -58.7906  -44.5387  -32.6314 N.ar    1  UNL1       -0.3523
     41 C         -59.8965  -44.0744  -33.2387 C.ar    1  UNL1        0.0563
     42 C         -60.0604  -43.7897  -34.5937 C.ar    1  UNL1        0.0170
     43 C         -61.3091  -43.2976  -35.0158 C.ar    1  UNL1        0.0015
     44 C         -62.3534  -43.1017  -34.0846 C.ar    1  UNL1        0.0001
     45 C         -62.1588  -43.3968  -32.7229 C.ar    1  UNL1        0.0012
     46 C         -60.9106  -43.8850  -32.3353 C.ar    1  UNL1        0.0131
     47 H         -57.8731  -44.7631  -33.0767 H       1  UNL1        0.1660
@<TRIPOS>BOND
     1     1     2    2
     2     2     3   am
     3     3    26    1
     4    26    37    1
     5    37    38    1
     6    38    39   ar
     7    39    40   ar
     8    40    41   ar
     9    41    42   ar
    10    42    43   ar
    11    43    44   ar
    12    44    45   ar
    13    45    46   ar
    14    26    27    1
    15    27    28    2
    16    27    29   am
    17    29    31    1
    18    31    32   ar
    19    32    33   ar
    20    33    34   ar
    21    34    35   ar
    22    35    36   ar
    23     2     5    1
    24     5     6   ar
    25     6     7   ar
    26     7     8   ar
    27     8    12    1
    28    12    13    1
    29    13    14    1
    30    14    15    1
    31    15    18    1
    32    18    19   ar
    33    19    20   ar
    34    20    21   ar
    35    21    22    1
    36    21    23   ar
    37    23    24    1
    38    23    25   ar
    39    15    16    1
    40    16    17    1
    41     8     9   ar
    42     9    10   ar
    43    10    11    1
    44    46    38   ar
    45    36    31   ar
    46    10     5   ar
    47    46    41   ar
    48    17    12    1
    49    25    18   ar
    50     3     4    1
    51    40    47    1
    52    29    30    1
@<TRIPOS>MOLECULE
*****
 47 52 0 0 0
SMALL
GASTEIGER

@<TRIPOS>ATOM
      1 O         -60.2902  -41.7823  -20.6709 O.2     1  UNL1       -0.2701
      2 C         -61.1403  -41.5253  -21.5656 C.2     1  UNL1        0.2483
      3 N         -61.8259  -40.2683  -21.5259 N.am    1  UNL1       -0.2945
      4 H         -61.6363  -39.5724  -22.2816 H       1  UNL1        0.1501
      5 C         -61.4567  -42.5414  -22.6050 C.ar    1  UNL1        0.0808
      6 C         -61.4362  -42.1729  -23.9626 C.ar    1  UNL1        0.0080
      7 C         -61.6322  -43.1251  -24.9656 C.ar    1  UNL1        0.0148
      8 C         -61.8564  -44.4710  -24.6391 C.ar    1  UNL1        0.0502
      9 C         -61.8973  -44.8405  -23.2847 C.ar    1  UNL1        0.0443
     10 C         -61.7138  -43.8902  -22.2769 C.ar    1  UNL1        0.1457
     11 F         -61.7648  -44.3109  -20.9889 F       1  UNL1       -0.2040
     12 N         -61.9793  -45.4636  -25.6807 N.pl3   1  UNL1       -0.3040
     13 C         -60.9395  -46.4814  -25.8939 C.3     1  UNL1        0.1122
     14 C         -60.2915  -46.2618  -27.2664 C.3     1  UNL1        0.1122
     15 N         -61.3031  -45.9255  -28.2840 N.pl3   1  UNL1       -0.3040
     16 C         -62.7269  -46.1071  -27.9604 C.3     1  UNL1        0.1122
     17 C         -63.0619  -45.3410  -26.6735 C.3     1  UNL1        0.1122
     18 C         -60.8898  -45.3042  -29.5193 C.ar    1  UNL1        0.0488
     19 C         -59.5758  -45.4576  -29.9957 C.ar    1  UNL1        0.0154
     20 C         -59.1914  -44.8869  -31.2112 C.ar    1  UNL1        0.0135
     21 C         -60.1106  -44.1570  -31.9705 C.ar    1  UNL1        0.0683
     22 CL        -59.5901  -43.4591  -33.4982 Cl      1  UNL1       -0.0814
     23 C         -61.4268  -43.9990  -31.5073 C.ar    1  UNL1        0.0694
     24 CL        -62.6150  -43.0909  -32.4324 Cl      1  UNL1       -0.0813
     25 C         -61.8108  -44.5730  -30.2896 C.ar    1  UNL1        0.0268
     26 C         -62.8952  -39.9922  -20.5627 C.3     1  UNL1        0.1535
     27 C         -63.1692  -38.5047  -20.5113 C.2     1  UNL1        0.2443
     28 O         -62.2963  -37.6832  -20.9039 O.2     1  UNL1       -0.2730
     29 N         -64.4125  -38.0346  -19.9677 N.am    1  UNL1       -0.2825
     30 H         -65.2241  -38.6931  -19.9807 H       1  UNL1        0.1549
     31 C         -64.6116  -36.7330  -19.3842 C.ar    1  UNL1        0.0535
     32 C         -63.6661  -36.1523  -18.5188 C.ar    1  UNL1        0.0353
     33 C         -63.9322  -34.9096  -17.9397 C.ar    1  UNL1        0.1002
     34 N         -65.1027  -34.2711  -18.2001 N.ar    1  UNL1       -0.2422
     35 C         -66.0420  -34.8134  -19.0181 C.ar    1  UNL1        0.1002
     36 C         -65.8162  -36.0544  -19.6186 C.ar    1  UNL1        0.0353
     37 C         -64.1446  -40.8327  -20.8951 C.3     1  UNL1        0.0569
     38 C         -64.6749  -41.5403  -19.6804 C.ar    1  UNL1       -0.0017
     39 C         -64.9360  -40.9749  -18.4355 C.ar    1  UNL1        0.0681
     40 N         -65.3523  -41.9225  -17.5647 N.ar    1  UNL1       -0.3523
     41 C         -65.3497  -43.0810  -18.2466 C.ar    1  UNL1        0.0563
     42 C         -65.6927  -44.3446  -17.7674 C.ar    1  UNL1        0.0170
     43 C         -65.6068  -45.4309  -18.6575 C.ar    1  UNL1        0.0015
     44 C         -65.1831  -45.2325  -19.9905 C.ar    1  UNL1        0.0001
     45 C         -64.8422  -43.9459  -20.4461 C.ar    1  UNL1        0.0012
     46 C         -64.9394  -42.8887  -19.5409 C.ar    1  UNL1        0.0131
     47 H         -65.6132  -41.7800  -16.5636 H       1  UNL1        0.1660
@<TRIPOS>BOND
     1     1     2    2
     2     2     3   am
     3     3    26    1
     4    26    37    1
     5    37    38    1
     6    38    39   ar
     7    39    40   ar
     8    40    41   ar
     9    41    42   ar
    10    42    43   ar
    11    43    44   ar
    12    44    45   ar
    13    45    46   ar
    14    26    27    1
    15    27    28    2
    16    27    29   am
    17    29    31    1
    18    31    32   ar
    19    32    33   ar
    20    33    34   ar
    21    34    35   ar
    22    35    36   ar
    23     2     5    1
    24     5     6   ar
    25     6     7   ar
    26     7     8   ar
    27     8    12    1
    28    12    13    1
    29    13    14    1
    30    14    15    1
    31    15    18    1
    32    18    19   ar
    33    19    20   ar
    34    20    21   ar
    35    21    22    1
    36    21    23   ar
    37    23    24    1
    38    23    25   ar
    39    15    16    1
    40    16    17    1
    41     8     9   ar
    42     9    10   ar
    43    10    11    1
    44    46    38   ar
    45    36    31   ar
    46    10     5   ar
    47    46    41   ar
    48    17    12    1
    49    25    18   ar
    50     3     4    1
    51    40    47    1
    52    29    30    1
@<TRIPOS>MOLECULE
*****
 47 52 0 0 0
SMALL
GASTEIGER

@<TRIPOS>ATOM
      1 O         -64.3544  -39.4959  -23.4640 O.2     1  UNL1       -0.2701
      2 C         -63.8231  -40.5457  -23.0115 C.2     1  UNL1        0.2483
      3 N         -63.6541  -40.6789  -21.5954 N.am    1  UNL1       -0.2945
      4 H         -64.2118  -41.4050  -21.0923 H       1  UNL1        0.1501
      5 C         -63.3339  -41.5944  -23.9464 C.ar    1  UNL1        0.0808
      6 C         -62.5726  -42.6669  -23.4468 C.ar    1  UNL1        0.0080
      7 C         -62.1823  -43.7170  -24.2811 C.ar    1  UNL1        0.0148
      8 C         -62.5401  -43.7228  -25.6377 C.ar    1  UNL1        0.0502
      9 C         -63.2833  -42.6446  -26.1455 C.ar    1  UNL1        0.0443
     10 C         -63.6664  -41.5856  -25.3183 C.ar    1  UNL1        0.1457
     11 F         -64.3828  -40.5749  -25.8694 F       1  UNL1       -0.2040
     12 N         -62.2020  -44.8485  -26.4765 N.pl3   1  UNL1       -0.3040
     13 C         -60.8731  -45.4754  -26.4161 C.3     1  UNL1        0.1122
     14 C         -60.1552  -45.2676  -27.7552 C.3     1  UNL1        0.1122
     15 N         -61.0786  -45.4563  -28.8882 N.pl3   1  UNL1       -0.3040
     16 C         -62.3993  -46.0551  -28.6387 C.3     1  UNL1        0.1122
     17 C         -63.1271  -45.2557  -27.5494 C.3     1  UNL1        0.1122
     18 C         -60.7273  -44.9334  -30.1866 C.ar    1  UNL1        0.0488
     19 C         -59.4323  -45.1098  -30.7053 C.ar    1  UNL1        0.0154
     20 C         -59.1083  -44.6361  -31.9787 C.ar    1  UNL1        0.0135
     21 C         -60.0697  -43.9816  -32.7543 C.ar    1  UNL1        0.0683
     22 CL        -59.6247  -43.4051  -34.3548 Cl      1  UNL1       -0.0814
     23 C         -61.3675  -43.8016  -32.2490 C.ar    1  UNL1        0.0694
     24 CL        -62.6073  -42.9864  -33.1926 Cl      1  UNL1       -0.0813
     25 C         -61.6910  -44.2786  -30.9733 C.ar    1  UNL1        0.0268
     26 C         -62.6165  -39.9500  -20.8609 C.3     1  UNL1        0.1535
     27 C         -63.0186  -38.4992  -20.7069 C.2     1  UNL1        0.2443
     28 O         -62.2449  -37.5803  -21.0919 O.2     1  UNL1       -0.2730
     29 N         -64.2674  -38.1762  -20.0757 N.am    1  UNL1       -0.2825
     30 H         -65.0166  -38.9049  -20.0883 H       1  UNL1        0.1549
     31 C         -64.5496  -36.9328  -19.4061 C.ar    1  UNL1        0.0535
     32 C         -65.7380  -36.2155  -19.6373 C.ar    1  UNL1        0.0353
     33 C         -65.9389  -34.9890  -19.0003 C.ar    1  UNL1        0.1002
     34 N         -64.9868  -34.4851  -18.1725 N.ar    1  UNL1       -0.2422
     35 C         -63.8225  -35.1458  -17.9422 C.ar    1  UNL1        0.1002
     36 C         -63.5811  -36.3761  -18.5585 C.ar    1  UNL1        0.0353
     37 C         -62.3211  -40.6482  -19.5181 C.3     1  UNL1        0.0569
     38 C         -63.5333  -41.3581  -18.9850 C.ar    1  UNL1       -0.0017
     39 C         -64.4208  -40.8826  -18.0239 C.ar    1  UNL1        0.0681
     40 N         -65.3626  -41.8138  -17.7493 N.ar    1  UNL1       -0.3523
     41 C         -65.0735  -42.8745  -18.5230 C.ar    1  UNL1        0.0563
     42 C         -65.7569  -44.0882  -18.5830 C.ar    1  UNL1        0.0170
     43 C         -65.2710  -45.0736  -19.4620 C.ar    1  UNL1        0.0015
     44 C         -64.1251  -44.8271  -20.2509 C.ar    1  UNL1        0.0001
     45 C         -63.4550  -43.5929  -20.1685 C.ar    1  UNL1        0.0012
     46 C         -63.9618  -42.6353  -19.2895 C.ar    1  UNL1        0.0131
     47 H         -66.1481  -41.7258  -17.0669 H       1  UNL1        0.1660
@<TRIPOS>BOND
     1     1     2    2
     2     2     3   am
     3     3    26    1
     4    26    37    1
     5    37    38    1
     6    38    39   ar
     7    39    40   ar
     8    40    41   ar
     9    41    42   ar
    10    42    43   ar
    11    43    44   ar
    12    44    45   ar
    13    45    46   ar
    14    26    27    1
    15    27    28    2
    16    27    29   am
    17    29    31    1
    18    31    32   ar
    19    32    33   ar
    20    33    34   ar
    21    34    35   ar
    22    35    36   ar
    23     2     5    1
    24     5     6   ar
    25     6     7   ar
    26     7     8   ar
    27     8    12    1
    28    12    13    1
    29    13    14    1
    30    14    15    1
    31    15    18    1
    32    18    19   ar
    33    19    20   ar
    34    20    21   ar
    35    21    22    1
    36    21    23   ar
    37    23    24    1
    38    23    25   ar
    39    15    16    1
    40    16    17    1
    41     8     9   ar
    42     9    10   ar
    43    10    11    1
    44    46    38   ar
    45    36    31   ar
    46    10     5   ar
    47    46    41   ar
    48    17    12    1
    49    25    18   ar
    50     3     4    1
    51    40    47    1
    52    29    30    1
@<TRIPOS>MOLECULE
*****
 47 52 0 0 0
SMALL
GASTEIGER

@<TRIPOS>ATOM
      1 O         -60.8847  -42.1905  -27.3193 O.2     1  UNL1       -0.2701
      2 C         -60.8836  -43.0299  -26.3788 C.2     1  UNL1        0.2483
      3 N         -60.4615  -44.3713  -26.6512 N.am    1  UNL1       -0.2945
      4 H         -59.5736  -44.7126  -26.2193 H       1  UNL1        0.1501
      5 C         -61.3680  -42.6353  -25.0288 C.ar    1  UNL1        0.0808
      6 C         -62.7132  -42.2602  -24.8581 C.ar    1  UNL1        0.0080
      7 C         -63.2220  -41.9792  -23.5879 C.ar    1  UNL1        0.0148
      8 C         -62.3998  -42.0632  -22.4541 C.ar    1  UNL1        0.0502
      9 C         -61.0513  -42.4181  -22.6216 C.ar    1  UNL1        0.0443
     10 C         -60.5339  -42.6887  -23.8911 C.ar    1  UNL1        0.1457
     11 F         -59.2240  -43.0259  -23.9856 F       1  UNL1       -0.2040
     12 N         -62.9503  -41.8491  -21.1364 N.pl3   1  UNL1       -0.3040
     13 C         -64.3699  -42.1045  -20.8498 C.3     1  UNL1        0.1122
     14 C         -65.0593  -40.7817  -20.4937 C.3     1  UNL1        0.1122
     15 N         -64.2037  -39.9534  -19.6255 N.pl3   1  UNL1       -0.3040
     16 C         -63.0101  -40.5592  -19.0145 C.3     1  UNL1        0.1122
     17 C         -62.1319  -41.1788  -20.1100 C.3     1  UNL1        0.1122
     18 C         -64.4748  -38.5416  -19.4982 C.ar    1  UNL1        0.0488
     19 C         -65.7541  -38.0283  -19.7755 C.ar    1  UNL1        0.0154
     20 C         -66.0220  -36.6671  -19.6132 C.ar    1  UNL1        0.0135
     21 C         -65.0203  -35.7982  -19.1707 C.ar    1  UNL1        0.0683
     22 CL        -65.3985  -34.0923  -18.9732 Cl      1  UNL1       -0.0814
     23 C         -63.7393  -36.2988  -18.8875 C.ar    1  UNL1        0.0694
     24 CL        -62.4517  -35.2409  -18.3261 Cl      1  UNL1       -0.0813
     25 C         -63.4730  -37.6636  -19.0490 C.ar    1  UNL1        0.0268
     26 C         -61.3074  -45.3243  -27.3749 C.3     1  UNL1        0.1535
     27 C         -60.8232  -45.4606  -28.8022 C.2     1  UNL1        0.2443
     28 O         -59.8076  -46.1611  -29.0653 O.2     1  UNL1       -0.2730
     29 N         -61.5009  -44.7476  -29.8484 N.am    1  UNL1       -0.2825
     30 H         -62.4967  -44.4776  -29.6811 H       1  UNL1        0.1549
     31 C         -60.8988  -44.3572  -31.0971 C.ar    1  UNL1        0.0535
     32 C         -61.6349  -43.7154  -32.1102 C.ar    1  UNL1        0.0353
     33 C         -61.0148  -43.4043  -33.3224 C.ar    1  UNL1        0.1002
     34 N         -59.7121  -43.7314  -33.5270 N.ar    1  UNL1       -0.2422
     35 C         -58.9800  -44.3659  -32.5747 C.ar    1  UNL1        0.1002
     36 C         -59.5610  -44.6948  -31.3475 C.ar    1  UNL1        0.0353
     37 C         -61.3678  -46.6671  -26.6191 C.3     1  UNL1        0.0569
     38 C         -61.5703  -46.4635  -25.1443 C.ar    1  UNL1       -0.0017
     39 C         -62.7810  -46.2468  -24.4924 C.ar    1  UNL1        0.0681
     40 N         -62.5764  -46.0508  -23.1698 N.ar    1  UNL1       -0.3523
     41 C         -61.2478  -46.1350  -22.9826 C.ar    1  UNL1        0.0563
     42 C         -60.5524  -45.9892  -21.7830 C.ar    1  UNL1        0.0170
     43 C         -59.1507  -46.1058  -21.8173 C.ar    1  UNL1        0.0015
     44 C         -58.4831  -46.3608  -23.0360 C.ar    1  UNL1        0.0001
     45 C         -59.2110  -46.5022  -24.2315 C.ar    1  UNL1        0.0012
     46 C         -60.5995  -46.3834  -24.1652 C.ar    1  UNL1        0.0131
     47 H         -63.3052  -45.8633  -22.4458 H       1  UNL1        0.1660
@<TRIPOS>BOND
     1     1     2    2
     2     2     3   am
     3     3    26    1
     4    26    37    1
     5    37    38    1
     6    38    39   ar
     7    39    40   ar
     8    40    41   ar
     9    41    42   ar
    10    42    43   ar
    11    43    44   ar
    12    44    45   ar
    13    45    46   ar
    14    26    27    1
    15    27    28    2
    16    27    29   am
    17    29    31    1
    18    31    32   ar
    19    32    33   ar
    20    33    34   ar
    21    34    35   ar
    22    35    36   ar
    23     2     5    1
    24     5     6   ar
    25     6     7   ar
    26     7     8   ar
    27     8    12    1
    28    12    13    1
    29    13    14    1
    30    14    15    1
    31    15    18    1
    32    18    19   ar
    33    19    20   ar
    34    20    21   ar
    35    21    22    1
    36    21    23   ar
    37    23    24    1
    38    23    25   ar
    39    15    16    1
    40    16    17    1
    41     8     9   ar
    42     9    10   ar
    43    10    11    1
    44    46    38   ar
    45    36    31   ar
    46    10     5   ar
    47    46    41   ar
    48    17    12    1
    49    25    18   ar
    50     3     4    1
    51    40    47    1
    52    29    30    1
@<TRIPOS>MOLECULE
*****
 47 52 0 0 0
SMALL
GASTEIGER

@<TRIPOS>ATOM
      1 O         -59.6442  -43.8156  -21.8634 O.2     1  UNL1       -0.2701
      2 C         -60.1729  -42.8782  -22.5196 C.2     1  UNL1        0.2483
      3 N         -60.1056  -41.5461  -21.9973 N.am    1  UNL1       -0.2945
      4 H         -59.5305  -40.8386  -22.5072 H       1  UNL1        0.1501
      5 C         -60.8995  -43.1727  -23.7839 C.ar    1  UNL1        0.0808
      6 C         -61.9209  -44.1402  -23.7863 C.ar    1  UNL1        0.0080
      7 C         -62.6867  -44.3694  -24.9318 C.ar    1  UNL1        0.0148
      8 C         -62.4511  -43.6396  -26.1067 C.ar    1  UNL1        0.0502
      9 C         -61.4196  -42.6864  -26.1151 C.ar    1  UNL1        0.0443
     10 C         -60.6426  -42.4613  -24.9759 C.ar    1  UNL1        0.1457
     11 F         -59.6622  -41.5274  -25.0487 F       1  UNL1       -0.2040
     12 N         -63.2970  -43.8247  -27.2623 N.pl3   1  UNL1       -0.3040
     13 C         -63.6471  -45.1684  -27.7466 C.3     1  UNL1        0.1122
     14 C         -63.0380  -45.3784  -29.1383 C.3     1  UNL1        0.1122
     15 N         -63.1762  -44.1675  -29.9670 N.pl3   1  UNL1       -0.3040
     16 C         -64.0625  -43.0868  -29.5072 C.3     1  UNL1        0.1122
     17 C         -63.6571  -42.6594  -28.0900 C.3     1  UNL1        0.1122
     18 C         -62.3456  -44.0076  -31.1364 C.ar    1  UNL1        0.0488
     19 C         -62.8742  -43.4736  -32.3249 C.ar    1  UNL1        0.0154
     20 C         -62.0570  -43.2845  -33.4418 C.ar    1  UNL1        0.0135
     21 C         -60.7015  -43.6227  -33.3903 C.ar    1  UNL1        0.0683
     22 CL        -59.7043  -43.3640  -34.8153 Cl      1  UNL1       -0.0814
     23 C         -60.1608  -44.1540  -32.2083 C.ar    1  UNL1        0.0694
     24 CL        -58.4606  -44.5901  -32.1002 Cl      1  UNL1       -0.0813
     25 C         -60.9808  -44.3413  -31.0893 C.ar    1  UNL1        0.0268
     26 C         -60.9384  -41.1042  -20.8754 C.3     1  UNL1        0.1535
     27 C         -62.1587  -40.3765  -21.3965 C.2     1  UNL1        0.2443
     28 O         -62.6831  -39.4492  -20.7209 O.2     1  UNL1       -0.2730
     29 N         -62.7430  -40.7821  -22.6440 N.am    1  UNL1       -0.2825
     30 H         -62.1261  -41.2778  -23.3268 H       1  UNL1        0.1549
     31 C         -64.1213  -40.5775  -23.0082 C.ar    1  UNL1        0.0535
     32 C         -65.1214  -40.3556  -22.0434 C.ar    1  UNL1        0.0353
     33 C         -66.4508  -40.2141  -22.4474 C.ar    1  UNL1        0.1002
     34 N         -66.7783  -40.3034  -23.7629 N.ar    1  UNL1       -0.2422
     35 C         -65.8379  -40.5332  -24.7159 C.ar    1  UNL1        0.1002
     36 C         -64.4962  -40.6801  -24.3555 C.ar    1  UNL1        0.0353
     37 C         -61.2823  -42.2980  -19.9619 C.3     1  UNL1        0.0569
     38 C         -62.7524  -42.6077  -19.9857 C.ar    1  UNL1       -0.0017
     39 C         -63.4094  -43.4594  -20.8691 C.ar    1  UNL1        0.0681
     40 N         -64.7405  -43.4527  -20.6293 N.ar    1  UNL1       -0.3523
     41 C         -64.9300  -42.5998  -19.6076 C.ar    1  UNL1        0.0563
     42 C         -66.1409  -42.2514  -19.0108 C.ar    1  UNL1        0.0170
     43 C         -66.1100  -41.3227  -17.9543 C.ar    1  UNL1        0.0015
     44 C         -64.8839  -40.7680  -17.5242 C.ar    1  UNL1        0.0001
     45 C         -63.6773  -41.1375  -18.1461 C.ar    1  UNL1        0.0012
     46 C         -63.7399  -42.0618  -19.1893 C.ar    1  UNL1        0.0131
     47 H         -65.4707  -43.9949  -21.1424 H       1  UNL1        0.1660
@<TRIPOS>BOND
     1     1     2    2
     2     2     3   am
     3     3    26    1
     4    26    37    1
     5    37    38    1
     6    38    39   ar
     7    39    40   ar
     8    40    41   ar
     9    41    42   ar
    10    42    43   ar
    11    43    44   ar
    12    44    45   ar
    13    45    46   ar
    14    26    27    1
    15    27    28    2
    16    27    29   am
    17    29    31    1
    18    31    32   ar
    19    32    33   ar
    20    33    34   ar
    21    34    35   ar
    22    35    36   ar
    23     2     5    1
    24     5     6   ar
    25     6     7   ar
    26     7     8   ar
    27     8    12    1
    28    12    13    1
    29    13    14    1
    30    14    15    1
    31    15    18    1
    32    18    19   ar
    33    19    20   ar
    34    20    21   ar
    35    21    22    1
    36    21    23   ar
    37    23    24    1
    38    23    25   ar
    39    15    16    1
    40    16    17    1
    41     8     9   ar
    42     9    10   ar
    43    10    11    1
    44    46    38   ar
    45    36    31   ar
    46    10     5   ar
    47    46    41   ar
    48    17    12    1
    49    25    18   ar
    50     3     4    1
    51    40    47    1
    52    29    30    1
@<TRIPOS>MOLECULE
*****
 47 52 0 0 0
SMALL
GASTEIGER

@<TRIPOS>ATOM
      1 O         -61.2407  -41.8222  -28.4235 O.2     1  UNL1       -0.2701
      2 C         -61.7958  -42.7765  -27.8149 C.2     1  UNL1        0.2483
      3 N         -62.3508  -43.8532  -28.5793 N.am    1  UNL1       -0.2945
      4 H         -61.9053  -44.7955  -28.5107 H       1  UNL1        0.1501
      5 C         -61.9151  -42.7444  -26.3324 C.ar    1  UNL1        0.0808
      6 C         -60.8680  -43.2530  -25.5423 C.ar    1  UNL1        0.0080
      7 C         -60.9065  -43.1484  -24.1499 C.ar    1  UNL1        0.0148
      8 C         -61.9934  -42.5348  -23.5092 C.ar    1  UNL1        0.0502
      9 C         -63.0503  -42.0430  -24.2925 C.ar    1  UNL1        0.0443
     10 C         -63.0227  -42.1555  -25.6850 C.ar    1  UNL1        0.1457
     11 F         -64.0739  -41.6607  -26.3842 F       1  UNL1       -0.2040
     12 N         -61.9907  -42.3588  -22.0759 N.pl3   1  UNL1       -0.3040
     13 C         -63.0881  -42.8693  -21.2406 C.3     1  UNL1        0.1122
     14 C         -63.8225  -41.6882  -20.5944 C.3     1  UNL1        0.1122
     15 N         -62.8725  -40.6622  -20.1288 N.pl3   1  UNL1       -0.3040
     16 C         -61.4388  -40.9892  -20.0786 C.3     1  UNL1        0.1122
     17 C         -60.9778  -41.4860  -21.4555 C.3     1  UNL1        0.1122
     18 C         -63.3451  -39.3253  -19.8599 C.ar    1  UNL1        0.0488
     19 C         -64.4365  -39.1088  -19.0003 C.ar    1  UNL1        0.0154
     20 C         -64.8654  -37.8111  -18.7125 C.ar    1  UNL1        0.0135
     21 C         -64.2124  -36.7105  -19.2752 C.ar    1  UNL1        0.0683
     22 CL        -64.7785  -35.0925  -18.8837 Cl      1  UNL1       -0.0814
     23 C         -63.1192  -36.9132  -20.1329 C.ar    1  UNL1        0.0694
     24 CL        -62.2680  -35.5567  -20.8595 Cl      1  UNL1       -0.0813
     25 C         -62.6895  -38.2144  -20.4189 C.ar    1  UNL1        0.0268
     26 C         -63.6082  -43.7180  -29.3198 C.3     1  UNL1        0.1535
     27 C         -63.3398  -43.7959  -30.8071 C.2     1  UNL1        0.2443
     28 O         -63.9915  -44.5984  -31.5299 O.2     1  UNL1       -0.2730
     29 N         -62.3043  -42.9830  -31.3808 N.am    1  UNL1       -0.2825
     30 H         -62.0348  -42.1128  -30.8682 H       1  UNL1        0.1549
     31 C         -61.5957  -43.2951  -32.5951 C.ar    1  UNL1        0.0535
     32 C         -60.2426  -43.6816  -32.5893 C.ar    1  UNL1        0.0353
     33 C         -59.5887  -43.9235  -33.7995 C.ar    1  UNL1        0.1002
     34 N         -60.2515  -43.7736  -34.9759 N.ar    1  UNL1       -0.2422
     35 C         -61.5528  -43.3859  -35.0148 C.ar    1  UNL1        0.1002
     36 C         -62.2449  -43.1344  -33.8276 C.ar    1  UNL1        0.0353
     37 C         -64.6331  -44.7602  -28.8282 C.3     1  UNL1        0.0569
     38 C         -63.9770  -46.0733  -28.5078 C.ar    1  UNL1       -0.0017
     39 C         -63.8665  -47.1760  -29.3500 C.ar    1  UNL1        0.0681
     40 N         -63.2631  -48.2020  -28.7075 N.ar    1  UNL1       -0.3523
     41 C         -62.9980  -47.7591  -27.4662 C.ar    1  UNL1        0.0563
     42 C         -62.3900  -48.4648  -26.4288 C.ar    1  UNL1        0.0170
     43 C         -62.2192  -47.8062  -25.1973 C.ar    1  UNL1        0.0015
     44 C         -62.6564  -46.4730  -25.0317 C.ar    1  UNL1        0.0001
     45 C         -63.2679  -45.7859  -26.0961 C.ar    1  UNL1        0.0012
     46 C         -63.4215  -46.4647  -27.3053 C.ar    1  UNL1        0.0131
     47 H         -63.0553  -49.1481  -29.0978 H       1  UNL1        0.1660
@<TRIPOS>BOND
     1     1     2    2
     2     2     3   am
     3     3    26    1
     4    26    37    1
     5    37    38    1
     6    38    39   ar
     7    39    40   ar
     8    40    41   ar
     9    41    42   ar
    10    42    43   ar
    11    43    44   ar
    12    44    45   ar
    13    45    46   ar
    14    26    27    1
    15    27    28    2
    16    27    29   am
    17    29    31    1
    18    31    32   ar
    19    32    33   ar
    20    33    34   ar
    21    34    35   ar
    22    35    36   ar
    23     2     5    1
    24     5     6   ar
    25     6     7   ar
    26     7     8   ar
    27     8    12    1
    28    12    13    1
    29    13    14    1
    30    14    15    1
    31    15    18    1
    32    18    19   ar
    33    19    20   ar
    34    20    21   ar
    35    21    22    1
    36    21    23   ar
    37    23    24    1
    38    23    25   ar
    39    15    16    1
    40    16    17    1
    41     8     9   ar
    42     9    10   ar
    43    10    11    1
    44    46    38   ar
    45    36    31   ar
    46    10     5   ar
    47    46    41   ar
    48    17    12    1
    49    25    18   ar
    50     3     4    1
    51    40    47    1
    52    29    30    1
