@<TRIPOS>MOLECULE
*****
 36 39 0 0 0
SMALL
GASTEIGER

@<TRIPOS>ATOM
      1 C          50.9338   10.9763  -24.7976 C.2     1  UNL1        0.2690
      2 O          51.3269   10.2988  -23.8083 O.2     1  UNL1       -0.2682
      3 N          50.2285   12.2312  -24.5688 N.am    1  UNL1       -0.2686
      4 C          51.1310    7.9620  -30.5373 C.ar    1  UNL1       -0.0210
      5 C          49.9134    7.6486  -29.9009 C.ar    1  UNL1       -0.0042
      6 C          49.6130    8.1725  -28.6400 C.ar    1  UNL1        0.0013
      7 C          50.5254    9.0185  -27.9968 C.ar    1  UNL1        0.0211
      8 C          50.2547    9.5596  -26.7370 C.ar    1  UNL1        0.0271
      9 C          51.1912   10.4140  -26.1411 C.ar    1  UNL1        0.1562
     10 N          52.3574   10.6690  -26.7916 N.ar    1  UNL1       -0.1434
     11 N          52.6248   10.1537  -27.9926 N.ar    1  UNL1       -0.1479
     12 C          51.7434    9.3364  -28.6241 C.ar    1  UNL1        0.1026
     13 C          52.0435    8.8114  -29.8852 C.ar    1  UNL1        0.0166
     14 C          50.3642    6.4532  -32.3989 C.3     1  UNL1        0.0047
     15 C          51.4659    7.3986  -31.9058 C.3     1  UNL1        0.0224
     16 C          52.8303    6.6992  -31.8966 C.3     1  UNL1        0.0047
     17 C          49.5189   12.9885  -25.6332 C.3     1  UNL1        0.0986
     18 C          50.0074   14.4482  -25.7057 C.3     1  UNL1        0.0264
     19 C          47.9987   12.8587  -25.5653 C.ar    1  UNL1       -0.0041
     20 C          47.3618   11.8228  -26.2783 C.ar    1  UNL1       -0.0004
     21 C          45.9805   11.6319  -26.1823 C.ar    1  UNL1        0.0294
     22 C          45.2145   12.4565  -25.3572 C.ar    1  UNL1        0.1401
     23 F          43.8755   12.2666  -25.2623 F       1  UNL1       -0.2042
     24 C          45.8300   13.4704  -24.6227 C.ar    1  UNL1        0.0294
     25 C          47.2103   13.6673  -24.7169 C.ar    1  UNL1       -0.0004
     26 C          50.1172   12.7344  -23.1839 C.3     1  UNL1        0.1207
     27 C          49.3746   11.7474  -22.3264 C.ar    1  UNL1       -0.0021
     28 C          48.1776   11.1776  -22.7825 C.ar    1  UNL1       -0.0026
     29 C          47.5349   10.1960  -22.0270 C.ar    1  UNL1       -0.0001
     30 C          48.0838    9.7701  -20.8153 C.ar    1  UNL1        0.0064
     31 C          49.2817   10.3309  -20.3378 C.ar    1  UNL1        0.0752
     32 C          49.9241   11.3190  -21.1062 C.ar    1  UNL1        0.0038
     33 C          49.8669    9.8516  -19.0620 C.2     1  UNL1        0.3380
     34 O          50.4364    8.7286  -19.0189 O.2     1  UNL1       -0.2451
     35 O          49.7954   10.6059  -17.8913 O.3     1  UNL1       -0.4771
     36 H          49.2659   11.4654  -17.8276 H       1  UNL1        0.2954
@<TRIPOS>BOND
     1    14    15    1
     2    15    16    1
     3    15     4    1
     4     4     5   ar
     5     5     6   ar
     6     6     7   ar
     7     7     8   ar
     8     8     9   ar
     9     9     1    1
    10     1     2    2
    11     1     3   am
    12     3    26    1
    13    26    27    1
    14    27    28   ar
    15    28    29   ar
    16    29    30   ar
    17    30    31   ar
    18    31    33    1
    19    33    34    2
    20    33    35    1
    21    31    32   ar
    22     3    17    1
    23    17    18    1
    24    17    19    1
    25    19    20   ar
    26    20    21   ar
    27    21    22   ar
    28    22    23    1
    29    22    24   ar
    30    24    25   ar
    31     9    10   ar
    32    10    11   ar
    33    11    12   ar
    34    12    13   ar
    35    13     4   ar
    36    12     7   ar
    37    32    27   ar
    38    25    19   ar
    39    35    36    1
@<TRIPOS>MOLECULE
*****
 36 39 0 0 0
SMALL
GASTEIGER

@<TRIPOS>ATOM
      1 C          48.0026   13.8500  -23.0543 C.2     1  UNL1        0.2690
      2 O          47.0449   14.0639  -22.2612 O.2     1  UNL1       -0.2682
      3 N          49.3632   14.1556  -22.6300 N.am    1  UNL1       -0.2686
      4 C          46.1134   12.5741  -29.1265 C.ar    1  UNL1       -0.0210
      5 C          45.9176   13.9455  -28.8684 C.ar    1  UNL1       -0.0042
      6 C          46.2465   14.4901  -27.6234 C.ar    1  UNL1        0.0013
      7 C          46.7769   13.6716  -26.6181 C.ar    1  UNL1        0.0211
      8 C          47.1171   14.1852  -25.3637 C.ar    1  UNL1        0.0271
      9 C          47.6599   13.3303  -24.3959 C.ar    1  UNL1        0.1562
     10 N          47.8113   12.0121  -24.6923 N.ar    1  UNL1       -0.1434
     11 N          47.4858   11.5135  -25.8859 N.ar    1  UNL1       -0.1479
     12 C          46.9752   12.3015  -26.8666 C.ar    1  UNL1        0.1026
     13 C          46.6454   11.7573  -28.1121 C.ar    1  UNL1        0.0166
     14 C          46.6828   10.7977  -30.8150 C.3     1  UNL1        0.0047
     15 C          45.7599   11.9738  -30.4746 C.3     1  UNL1        0.0224
     16 C          45.7912   13.0375  -31.5784 C.3     1  UNL1        0.0047
     17 C          50.5334   14.1693  -23.5467 C.3     1  UNL1        0.0986
     18 C          51.8579   14.0391  -22.7698 C.3     1  UNL1        0.0264
     19 C          50.5207   15.3326  -24.5362 C.ar    1  UNL1       -0.0041
     20 C          50.8724   16.6226  -24.0897 C.ar    1  UNL1       -0.0004
     21 C          50.9397   17.6956  -24.9828 C.ar    1  UNL1        0.0294
     22 C          50.6788   17.4962  -26.3391 C.ar    1  UNL1        0.1401
     23 F          50.7490   18.5377  -27.2042 F       1  UNL1       -0.2042
     24 C          50.3551   16.2216  -26.8051 C.ar    1  UNL1        0.0294
     25 C          50.2839   15.1458  -25.9161 C.ar    1  UNL1       -0.0004
     26 C          49.5866   14.5797  -21.2323 C.3     1  UNL1        0.1207
     27 C          49.2751   13.4528  -20.2869 C.ar    1  UNL1       -0.0021
     28 C          48.4514   13.6734  -19.1740 C.ar    1  UNL1       -0.0026
     29 C          48.0897   12.6095  -18.3466 C.ar    1  UNL1       -0.0001
     30 C          48.5400   11.3172  -18.6260 C.ar    1  UNL1        0.0064
     31 C          49.3697   11.0745  -19.7352 C.ar    1  UNL1        0.0752
     32 C          49.7287   12.1523  -20.5651 C.ar    1  UNL1        0.0038
     33 C          49.8202    9.6936  -20.0348 C.2     1  UNL1        0.3380
     34 O          50.2918    8.9763  -19.1126 O.2     1  UNL1       -0.2451
     35 O          49.7503    9.1605  -21.3216 O.3     1  UNL1       -0.4771
     36 H          49.4808    9.7110  -22.1263 H       1  UNL1        0.2954
@<TRIPOS>BOND
     1    14    15    1
     2    15    16    1
     3    15     4    1
     4     4     5   ar
     5     5     6   ar
     6     6     7   ar
     7     7     8   ar
     8     8     9   ar
     9     9     1    1
    10     1     2    2
    11     1     3   am
    12     3    26    1
    13    26    27    1
    14    27    28   ar
    15    28    29   ar
    16    29    30   ar
    17    30    31   ar
    18    31    33    1
    19    33    34    2
    20    33    35    1
    21    31    32   ar
    22     3    17    1
    23    17    18    1
    24    17    19    1
    25    19    20   ar
    26    20    21   ar
    27    21    22   ar
    28    22    23    1
    29    22    24   ar
    30    24    25   ar
    31     9    10   ar
    32    10    11   ar
    33    11    12   ar
    34    12    13   ar
    35    13     4   ar
    36    12     7   ar
    37    32    27   ar
    38    25    19   ar
    39    35    36    1
@<TRIPOS>MOLECULE
*****
 36 39 0 0 0
SMALL
GASTEIGER

@<TRIPOS>ATOM
      1 C          48.7445   12.5851  -24.8998 C.2     1  UNL1        0.2690
      2 O          47.5340   12.2291  -24.9089 O.2     1  UNL1       -0.2682
      3 N          49.1473   13.7261  -24.0870 N.am    1  UNL1       -0.2686
      4 C          51.9464    8.6528  -28.9438 C.ar    1  UNL1       -0.0210
      5 C          50.5727    8.3442  -29.0025 C.ar    1  UNL1       -0.0042
      6 C          49.6502    9.0490  -28.2233 C.ar    1  UNL1        0.0013
      7 C          50.0876   10.0735  -27.3742 C.ar    1  UNL1        0.0211
      8 C          49.1912   10.7977  -26.5836 C.ar    1  UNL1        0.0271
      9 C          49.6744   11.8245  -25.7625 C.ar    1  UNL1        0.1562
     10 N          51.0114   12.0685  -25.7313 N.ar    1  UNL1       -0.1434
     11 N          51.8740   11.3797  -26.4802 N.ar    1  UNL1       -0.1479
     12 C          51.4569   10.3881  -27.3087 C.ar    1  UNL1        0.1026
     13 C          52.3792    9.6823  -28.0880 C.ar    1  UNL1        0.0166
     14 C          54.2716    8.6706  -29.9047 C.3     1  UNL1        0.0047
     15 C          52.9551    7.8939  -29.7858 C.3     1  UNL1        0.0224
     16 C          52.3826    7.5629  -31.1691 C.3     1  UNL1        0.0047
     17 C          50.4804   14.3775  -24.1768 C.3     1  UNL1        0.0986
     18 C          51.0995   14.5864  -22.7811 C.3     1  UNL1        0.0264
     19 C          50.4878   15.6375  -25.0400 C.ar    1  UNL1       -0.0041
     20 C          50.0396   15.5627  -26.3744 C.ar    1  UNL1       -0.0004
     21 C          49.9665   16.7094  -27.1702 C.ar    1  UNL1        0.0294
     22 C          50.3181   17.9525  -26.6426 C.ar    1  UNL1        0.1401
     23 F          50.2421   19.0640  -27.4152 F       1  UNL1       -0.2042
     24 C          50.7385   18.0513  -25.3160 C.ar    1  UNL1        0.0294
     25 C          50.8159   16.9078  -24.5166 C.ar    1  UNL1       -0.0004
     26 C          48.1449   14.3439  -23.1944 C.3     1  UNL1        0.1207
     27 C          47.4836   15.5092  -23.8768 C.ar    1  UNL1       -0.0021
     28 C          47.4477   16.7641  -23.2525 C.ar    1  UNL1       -0.0026
     29 C          46.9138   17.8660  -23.9220 C.ar    1  UNL1       -0.0001
     30 C          46.4185   17.7272  -25.2205 C.ar    1  UNL1        0.0064
     31 C          46.4418   16.4769  -25.8637 C.ar    1  UNL1        0.0752
     32 C          46.9830   15.3713  -25.1824 C.ar    1  UNL1        0.0038
     33 C          45.9358   16.3487  -27.2520 C.2     1  UNL1        0.3380
     34 O          44.7058   16.4918  -27.4842 O.2     1  UNL1       -0.2451
     35 O          46.7844   16.0588  -28.3199 O.3     1  UNL1       -0.4771
     36 H          47.7617   15.8302  -28.1936 H       1  UNL1        0.2954
@<TRIPOS>BOND
     1    14    15    1
     2    15    16    1
     3    15     4    1
     4     4     5   ar
     5     5     6   ar
     6     6     7   ar
     7     7     8   ar
     8     8     9   ar
     9     9     1    1
    10     1     2    2
    11     1     3   am
    12     3    26    1
    13    26    27    1
    14    27    28   ar
    15    28    29   ar
    16    29    30   ar
    17    30    31   ar
    18    31    33    1
    19    33    34    2
    20    33    35    1
    21    31    32   ar
    22     3    17    1
    23    17    18    1
    24    17    19    1
    25    19    20   ar
    26    20    21   ar
    27    21    22   ar
    28    22    23    1
    29    22    24   ar
    30    24    25   ar
    31     9    10   ar
    32    10    11   ar
    33    11    12   ar
    34    12    13   ar
    35    13     4   ar
    36    12     7   ar
    37    32    27   ar
    38    25    19   ar
    39    35    36    1
@<TRIPOS>MOLECULE
*****
 36 39 0 0 0
SMALL
GASTEIGER

@<TRIPOS>ATOM
      1 C          46.8592   13.5905  -24.4063 C.2     1  UNL1        0.2690
      2 O          45.8772   13.7650  -23.6334 O.2     1  UNL1       -0.2682
      3 N          48.2042   13.5241  -23.8484 N.am    1  UNL1       -0.2686
      4 C          45.9605   12.1871  -30.6746 C.ar    1  UNL1       -0.0210
      5 C          46.3925   11.0243  -30.0059 C.ar    1  UNL1       -0.0042
      6 C          46.6606   11.0494  -28.6340 C.ar    1  UNL1        0.0013
      7 C          46.5000   12.2376  -27.9099 C.ar    1  UNL1        0.0211
      8 C          46.7582   12.2957  -26.5377 C.ar    1  UNL1        0.0271
      9 C          46.5670   13.5029  -25.8535 C.ar    1  UNL1        0.1562
     10 N          46.1655   14.5986  -26.5510 N.ar    1  UNL1       -0.1434
     11 N          45.9203   14.5523  -27.8613 N.ar    1  UNL1       -0.1479
     12 C          46.0696   13.4032  -28.5690 C.ar    1  UNL1        0.1026
     13 C          45.8022   13.3775  -29.9416 C.ar    1  UNL1        0.0166
     14 C          46.5516   13.1725  -32.9129 C.3     1  UNL1        0.0047
     15 C          45.6667   12.1697  -32.1631 C.3     1  UNL1        0.0224
     16 C          44.1810   12.4325  -32.4363 C.3     1  UNL1        0.0047
     17 C          49.4436   13.5587  -24.6684 C.3     1  UNL1        0.0986
     18 C          50.6169   12.8712  -23.9435 C.3     1  UNL1        0.0264
     19 C          49.7871   14.9493  -25.1982 C.ar    1  UNL1       -0.0041
     20 C          50.4473   15.8657  -24.3547 C.ar    1  UNL1       -0.0004
     21 C          50.8393   17.1207  -24.8288 C.ar    1  UNL1        0.0294
     22 C          50.5992   17.4747  -26.1571 C.ar    1  UNL1        0.1401
     23 F          50.9844   18.6910  -26.6158 F       1  UNL1       -0.2042
     24 C          49.9710   16.5715  -27.0149 C.ar    1  UNL1        0.0294
     25 C          49.5748   15.3163  -26.5456 C.ar    1  UNL1       -0.0004
     26 C          48.3582   13.5283  -22.3789 C.3     1  UNL1        0.1207
     27 C          48.2572   12.1291  -21.8378 C.ar    1  UNL1       -0.0021
     28 C          47.4898   11.1671  -22.5096 C.ar    1  UNL1       -0.0026
     29 C          47.4672    9.8469  -22.0580 C.ar    1  UNL1       -0.0001
     30 C          48.2144    9.4741  -20.9384 C.ar    1  UNL1        0.0064
     31 C          48.9882   10.4239  -20.2479 C.ar    1  UNL1        0.0752
     32 C          49.0066   11.7525  -20.7105 C.ar    1  UNL1        0.0038
     33 C          49.7967   10.0094  -19.0757 C.2     1  UNL1        0.3380
     34 O          50.4515    8.9338  -19.1174 O.2     1  UNL1       -0.2451
     35 O          49.8465   10.7731  -17.9100 O.3     1  UNL1       -0.4771
     36 H          49.2678   11.5905  -17.7681 H       1  UNL1        0.2954
@<TRIPOS>BOND
     1    14    15    1
     2    15    16    1
     3    15     4    1
     4     4     5   ar
     5     5     6   ar
     6     6     7   ar
     7     7     8   ar
     8     8     9   ar
     9     9     1    1
    10     1     2    2
    11     1     3   am
    12     3    26    1
    13    26    27    1
    14    27    28   ar
    15    28    29   ar
    16    29    30   ar
    17    30    31   ar
    18    31    33    1
    19    33    34    2
    20    33    35    1
    21    31    32   ar
    22     3    17    1
    23    17    18    1
    24    17    19    1
    25    19    20   ar
    26    20    21   ar
    27    21    22   ar
    28    22    23    1
    29    22    24   ar
    30    24    25   ar
    31     9    10   ar
    32    10    11   ar
    33    11    12   ar
    34    12    13   ar
    35    13     4   ar
    36    12     7   ar
    37    32    27   ar
    38    25    19   ar
    39    35    36    1
@<TRIPOS>MOLECULE
*****
 36 39 0 0 0
SMALL
GASTEIGER

@<TRIPOS>ATOM
      1 C          51.0509   12.2603  -24.2863 C.2     1  UNL1        0.2690
      2 O          51.5087   11.7789  -23.2136 O.2     1  UNL1       -0.2682
      3 N          50.1365   13.3939  -24.2274 N.am    1  UNL1       -0.2686
      4 C          51.9692    8.7086  -29.6352 C.ar    1  UNL1       -0.0210
      5 C          50.7687    8.3013  -29.0198 C.ar    1  UNL1       -0.0042
      6 C          50.3306    8.9103  -27.8400 C.ar    1  UNL1        0.0013
      7 C          51.0861    9.9363  -27.2583 C.ar    1  UNL1        0.0211
      8 C          50.6752   10.5662  -26.0803 C.ar    1  UNL1        0.0271
      9 C          51.4561   11.5989  -25.5456 C.ar    1  UNL1        0.1562
     10 N          52.6141   11.9401  -26.1707 N.ar    1  UNL1       -0.1434
     11 N          53.0150   11.3415  -27.2933 N.ar    1  UNL1       -0.1479
     12 C          52.2858   10.3491  -27.8653 C.ar    1  UNL1        0.1026
     13 C          52.7238    9.7390  -29.0451 C.ar    1  UNL1        0.0166
     14 C          51.3414    7.2200  -31.5640 C.3     1  UNL1        0.0047
     15 C          52.4527    8.0540  -30.9159 C.3     1  UNL1        0.0224
     16 C          53.7045    7.2052  -30.6642 C.3     1  UNL1        0.0047
     17 C          49.3568   13.8905  -25.3915 C.3     1  UNL1        0.0986
     18 C          49.6153   15.3885  -25.6438 C.3     1  UNL1        0.0264
     19 C          47.8736   13.5311  -25.3315 C.ar    1  UNL1       -0.0041
     20 C          47.4896   12.1753  -25.3709 C.ar    1  UNL1       -0.0004
     21 C          46.1468   11.8078  -25.2471 C.ar    1  UNL1        0.0294
     22 C          45.1672   12.7839  -25.0603 C.ar    1  UNL1        0.1401
     23 F          43.8658   12.4245  -24.9360 F       1  UNL1       -0.2042
     24 C          45.5300   14.1292  -24.9917 C.ar    1  UNL1        0.0294
     25 C          46.8708   14.5025  -25.1173 C.ar    1  UNL1       -0.0004
     26 C          49.8832   14.0272  -22.9166 C.3     1  UNL1        0.1207
     27 C          49.0762   13.1106  -22.0394 C.ar    1  UNL1       -0.0021
     28 C          47.6774   13.2041  -22.0202 C.ar    1  UNL1       -0.0026
     29 C          46.9235   12.2963  -21.2754 C.ar    1  UNL1       -0.0001
     30 C          47.5571   11.2847  -20.5502 C.ar    1  UNL1        0.0064
     31 C          48.9591   11.1750  -20.5530 C.ar    1  UNL1        0.0752
     32 C          49.7118   12.0935  -21.3076 C.ar    1  UNL1        0.0038
     33 C          49.6178   10.0809  -19.7990 C.2     1  UNL1        0.3380
     34 O          50.0122    9.0513  -20.4088 O.2     1  UNL1       -0.2451
     35 O          49.8059   10.1488  -18.4189 O.3     1  UNL1       -0.4771
     36 H          49.4242   10.8948  -17.8523 H       1  UNL1        0.2954
@<TRIPOS>BOND
     1    14    15    1
     2    15    16    1
     3    15     4    1
     4     4     5   ar
     5     5     6   ar
     6     6     7   ar
     7     7     8   ar
     8     8     9   ar
     9     9     1    1
    10     1     2    2
    11     1     3   am
    12     3    26    1
    13    26    27    1
    14    27    28   ar
    15    28    29   ar
    16    29    30   ar
    17    30    31   ar
    18    31    33    1
    19    33    34    2
    20    33    35    1
    21    31    32   ar
    22     3    17    1
    23    17    18    1
    24    17    19    1
    25    19    20   ar
    26    20    21   ar
    27    21    22   ar
    28    22    23    1
    29    22    24   ar
    30    24    25   ar
    31     9    10   ar
    32    10    11   ar
    33    11    12   ar
    34    12    13   ar
    35    13     4   ar
    36    12     7   ar
    37    32    27   ar
    38    25    19   ar
    39    35    36    1
@<TRIPOS>MOLECULE
*****
 36 39 0 0 0
SMALL
GASTEIGER

@<TRIPOS>ATOM
      1 C          50.6714   12.6180  -23.4350 C.2     1  UNL1        0.2690
      2 O          51.0201   12.0648  -22.3559 O.2     1  UNL1       -0.2682
      3 N          49.7555   13.7512  -23.3932 N.am    1  UNL1       -0.2686
      4 C          52.1726    9.3564  -28.8366 C.ar    1  UNL1       -0.0210
      5 C          50.9693    8.8415  -28.3144 C.ar    1  UNL1       -0.0042
      6 C          50.4164    9.3706  -27.1443 C.ar    1  UNL1        0.0013
      7 C          51.0581   10.4230  -26.4792 C.ar    1  UNL1        0.0211
      8 C          50.5309   10.9749  -25.3085 C.ar    1  UNL1        0.0271
      9 C          51.2003   12.0376  -24.6883 C.ar    1  UNL1        0.1562
     10 N          52.3668   12.4840  -25.2252 N.ar    1  UNL1       -0.1434
     11 N          52.8784   11.9604  -26.3403 N.ar    1  UNL1       -0.1479
     12 C          52.2598   10.9430  -26.9928 C.ar    1  UNL1        0.1026
     13 C          52.8127   10.4128  -28.1630 C.ar    1  UNL1        0.0166
     14 C          51.8081    7.8305  -30.8036 C.3     1  UNL1        0.0047
     15 C          52.7803    8.7891  -30.1060 C.3     1  UNL1        0.0224
     16 C          54.1209    8.1030  -29.8181 C.3     1  UNL1        0.0047
     17 C          49.0957   14.3275  -24.5941 C.3     1  UNL1        0.0986
     18 C          49.1569   15.8673  -24.5849 C.3     1  UNL1        0.0264
     19 C          47.6937   13.7762  -24.8446 C.ar    1  UNL1       -0.0041
     20 C          47.5404   12.4294  -25.2313 C.ar    1  UNL1       -0.0004
     21 C          46.2692   11.8733  -25.4001 C.ar    1  UNL1        0.0294
     22 C          45.1299   12.6442  -25.1651 C.ar    1  UNL1        0.1401
     23 F          43.8980   12.1013  -25.3252 F       1  UNL1       -0.2042
     24 C          45.2606   13.9715  -24.7557 C.ar    1  UNL1        0.0294
     25 C          46.5291   14.5332  -24.5879 C.ar    1  UNL1       -0.0004
     26 C          49.3727   14.2992  -22.0755 C.3     1  UNL1        0.1207
     27 C          48.5246   13.3111  -21.3237 C.ar    1  UNL1       -0.0021
     28 C          47.3251   12.8446  -21.8800 C.ar    1  UNL1       -0.0026
     29 C          46.5828   11.8617  -21.2241 C.ar    1  UNL1       -0.0001
     30 C          47.0336   11.3315  -20.0132 C.ar    1  UNL1        0.0064
     31 C          48.2322   11.7875  -19.4362 C.ar    1  UNL1        0.0752
     32 C          48.9754   12.7778  -20.1045 C.ar    1  UNL1        0.0038
     33 C          48.7123   11.1980  -18.1627 C.2     1  UNL1        0.3380
     34 O          49.8287   10.6152  -18.1258 O.2     1  UNL1       -0.2451
     35 O          47.9542   11.2566  -16.9937 O.3     1  UNL1       -0.4771
     36 H          47.0088   11.6157  -16.9740 H       1  UNL1        0.2954
@<TRIPOS>BOND
     1    14    15    1
     2    15    16    1
     3    15     4    1
     4     4     5   ar
     5     5     6   ar
     6     6     7   ar
     7     7     8   ar
     8     8     9   ar
     9     9     1    1
    10     1     2    2
    11     1     3   am
    12     3    26    1
    13    26    27    1
    14    27    28   ar
    15    28    29   ar
    16    29    30   ar
    17    30    31   ar
    18    31    33    1
    19    33    34    2
    20    33    35    1
    21    31    32   ar
    22     3    17    1
    23    17    18    1
    24    17    19    1
    25    19    20   ar
    26    20    21   ar
    27    21    22   ar
    28    22    23    1
    29    22    24   ar
    30    24    25   ar
    31     9    10   ar
    32    10    11   ar
    33    11    12   ar
    34    12    13   ar
    35    13     4   ar
    36    12     7   ar
    37    32    27   ar
    38    25    19   ar
    39    35    36    1
@<TRIPOS>MOLECULE
*****
 36 39 0 0 0
SMALL
GASTEIGER

@<TRIPOS>ATOM
      1 C          47.9335   14.0696  -23.2315 C.2     1  UNL1        0.2690
      2 O          46.9652   14.2602  -22.4452 O.2     1  UNL1       -0.2682
      3 N          49.2719   14.4845  -22.8299 N.am    1  UNL1       -0.2686
      4 C          46.1889   12.3903  -29.2485 C.ar    1  UNL1       -0.0210
      5 C          45.9842   13.7750  -29.0857 C.ar    1  UNL1       -0.0042
      6 C          46.2828   14.4015  -27.8721 C.ar    1  UNL1        0.0013
      7 C          46.7914   13.6528  -26.8031 C.ar    1  UNL1        0.0211
      8 C          47.1012   14.2490  -25.5777 C.ar    1  UNL1        0.0271
      9 C          47.6232   13.4615  -24.5435 C.ar    1  UNL1        0.1562
     10 N          47.7842   12.1273  -24.7489 N.ar    1  UNL1       -0.1434
     11 N          47.4877   11.5501  -25.9143 N.ar    1  UNL1       -0.1479
     12 C          46.9984   12.2701  -26.9563 C.ar    1  UNL1        0.1026
     13 C          46.6989   11.6439  -28.1705 C.ar    1  UNL1        0.0166
     14 C          46.7804   10.4901  -30.7879 C.3     1  UNL1        0.0047
     15 C          45.8681   11.7015  -30.5619 C.3     1  UNL1        0.0224
     16 C          45.9536   12.6835  -31.7363 C.3     1  UNL1        0.0047
     17 C          50.4369   14.5284  -23.7520 C.3     1  UNL1        0.0986
     18 C          50.2769   15.6394  -24.8079 C.3     1  UNL1        0.0264
     19 C          50.7951   13.1691  -24.3491 C.ar    1  UNL1       -0.0041
     20 C          51.0997   13.0769  -25.7223 C.ar    1  UNL1       -0.0004
     21 C          51.4999   11.8625  -26.2868 C.ar    1  UNL1        0.0294
     22 C          51.6240   10.7251  -25.4879 C.ar    1  UNL1        0.1401
     23 F          52.0166    9.5494  -26.0369 F       1  UNL1       -0.2042
     24 C          51.3529   10.8020  -24.1215 C.ar    1  UNL1        0.0294
     25 C          50.9500   12.0131  -23.5524 C.ar    1  UNL1       -0.0004
     26 C          49.4694   14.9923  -21.4564 C.3     1  UNL1        0.1207
     27 C          50.2294   13.9905  -20.6320 C.ar    1  UNL1       -0.0021
     28 C          51.5506   14.2541  -20.2437 C.ar    1  UNL1       -0.0026
     29 C          52.2260   13.3665  -19.4050 C.ar    1  UNL1       -0.0001
     30 C          51.5878   12.2138  -18.9416 C.ar    1  UNL1        0.0064
     31 C          50.2642   11.9287  -19.3215 C.ar    1  UNL1        0.0752
     32 C          49.5899   12.8293  -20.1663 C.ar    1  UNL1        0.0038
     33 C          49.5899   10.7142  -18.8019 C.2     1  UNL1        0.3380
     34 O          48.4650   10.8148  -18.2436 O.2     1  UNL1       -0.2451
     35 O          50.1725    9.4510  -18.9003 O.3     1  UNL1       -0.4771
     36 H          51.1142    9.3096  -19.2414 H       1  UNL1        0.2954
@<TRIPOS>BOND
     1    14    15    1
     2    15    16    1
     3    15     4    1
     4     4     5   ar
     5     5     6   ar
     6     6     7   ar
     7     7     8   ar
     8     8     9   ar
     9     9     1    1
    10     1     2    2
    11     1     3   am
    12     3    26    1
    13    26    27    1
    14    27    28   ar
    15    28    29   ar
    16    29    30   ar
    17    30    31   ar
    18    31    33    1
    19    33    34    2
    20    33    35    1
    21    31    32   ar
    22     3    17    1
    23    17    18    1
    24    17    19    1
    25    19    20   ar
    26    20    21   ar
    27    21    22   ar
    28    22    23    1
    29    22    24   ar
    30    24    25   ar
    31     9    10   ar
    32    10    11   ar
    33    11    12   ar
    34    12    13   ar
    35    13     4   ar
    36    12     7   ar
    37    32    27   ar
    38    25    19   ar
    39    35    36    1
@<TRIPOS>MOLECULE
*****
 36 39 0 0 0
SMALL
GASTEIGER

@<TRIPOS>ATOM
      1 C          51.1735   10.4543  -24.7848 C.2     1  UNL1        0.2690
      2 O          51.5786    9.6934  -23.8634 O.2     1  UNL1       -0.2682
      3 N          50.5747   11.7377  -24.4398 N.am    1  UNL1       -0.2686
      4 C          50.7978    7.7842  -30.6838 C.ar    1  UNL1       -0.0210
      5 C          49.6042    7.5134  -29.9854 C.ar    1  UNL1       -0.0042
      6 C          49.4211    7.9791  -28.6800 C.ar    1  UNL1        0.0013
      7 C          50.4289    8.7233  -28.0534 C.ar    1  UNL1        0.0211
      8 C          50.2766    9.2043  -26.7501 C.ar    1  UNL1        0.0271
      9 C          51.3058    9.9582  -26.1718 C.ar    1  UNL1        0.1562
     10 N          52.4433   10.1749  -26.8840 N.ar    1  UNL1       -0.1434
     11 N          52.5979    9.7164  -28.1271 N.ar    1  UNL1       -0.1479
     12 C          51.6238    8.9980  -28.7425 C.ar    1  UNL1        0.1026
     13 C          51.8064    8.5312  -30.0482 C.ar    1  UNL1        0.0166
     14 C          49.9074    6.2920  -32.5033 C.3     1  UNL1        0.0047
     15 C          51.0056    7.2833  -32.1009 C.3     1  UNL1        0.0224
     16 C          52.3977    6.6632  -32.2693 C.3     1  UNL1        0.0047
     17 C          49.8555   12.6038  -25.4105 C.3     1  UNL1        0.0986
     18 C          50.5617   13.9626  -25.5825 C.3     1  UNL1        0.0264
     19 C          48.3598   12.7274  -25.1275 C.ar    1  UNL1       -0.0041
     20 C          47.8404   13.9612  -24.6859 C.ar    1  UNL1       -0.0004
     21 C          46.4674   14.1293  -24.4854 C.ar    1  UNL1        0.0294
     22 C          45.5874   13.0772  -24.7426 C.ar    1  UNL1        0.1401
     23 F          44.2556   13.2441  -24.5516 F       1  UNL1       -0.2042
     24 C          46.0791   11.8566  -25.2058 C.ar    1  UNL1        0.0294
     25 C          47.4512   11.6823  -25.4056 C.ar    1  UNL1       -0.0004
     26 C          50.5862   12.1626  -23.0246 C.3     1  UNL1        0.1207
     27 C          49.5750   11.3791  -22.2344 C.ar    1  UNL1       -0.0021
     28 C          49.8713   10.0783  -21.8035 C.ar    1  UNL1       -0.0026
     29 C          48.9699    9.3843  -20.9952 C.ar    1  UNL1       -0.0001
     30 C          47.7703    9.9838  -20.6047 C.ar    1  UNL1        0.0064
     31 C          47.4520   11.2864  -21.0285 C.ar    1  UNL1        0.0752
     32 C          48.3668   11.9797  -21.8421 C.ar    1  UNL1        0.0038
     33 C          46.1865   11.9206  -20.5859 C.2     1  UNL1        0.3380
     34 O          45.9918   12.1375  -19.3602 O.2     1  UNL1       -0.2451
     35 O          45.1873   12.2774  -21.4909 O.3     1  UNL1       -0.4771
     36 H          45.2310   12.0402  -22.4733 H       1  UNL1        0.2954
@<TRIPOS>BOND
     1    14    15    1
     2    15    16    1
     3    15     4    1
     4     4     5   ar
     5     5     6   ar
     6     6     7   ar
     7     7     8   ar
     8     8     9   ar
     9     9     1    1
    10     1     2    2
    11     1     3   am
    12     3    26    1
    13    26    27    1
    14    27    28   ar
    15    28    29   ar
    16    29    30   ar
    17    30    31   ar
    18    31    33    1
    19    33    34    2
    20    33    35    1
    21    31    32   ar
    22     3    17    1
    23    17    18    1
    24    17    19    1
    25    19    20   ar
    26    20    21   ar
    27    21    22   ar
    28    22    23    1
    29    22    24   ar
    30    24    25   ar
    31     9    10   ar
    32    10    11   ar
    33    11    12   ar
    34    12    13   ar
    35    13     4   ar
    36    12     7   ar
    37    32    27   ar
    38    25    19   ar
    39    35    36    1
@<TRIPOS>MOLECULE
*****
 36 39 0 0 0
SMALL
GASTEIGER

@<TRIPOS>ATOM
      1 C          52.0029   11.8097  -24.7722 C.2     1  UNL1        0.2690
      2 O          52.7250   11.3120  -23.8651 O.2     1  UNL1       -0.2682
      3 N          51.1809   12.9753  -24.4717 N.am    1  UNL1       -0.2686
      4 C          51.2323    8.2664  -30.1499 C.ar    1  UNL1       -0.0210
      5 C          50.2005    7.9484  -29.2444 C.ar    1  UNL1       -0.0042
      6 C          50.1295    8.5749  -27.9966 C.ar    1  UNL1        0.0013
      7 C          51.0889    9.5296  -27.6358 C.ar    1  UNL1        0.0211
      8 C          51.0453   10.1748  -26.3969 C.ar    1  UNL1        0.0271
      9 C          52.0177   11.1346  -26.0881 C.ar    1  UNL1        0.1562
     10 N          53.0008   11.3902  -26.9915 N.ar    1  UNL1       -0.1434
     11 N          53.0514   10.7762  -28.1747 N.ar    1  UNL1       -0.1479
     12 C          52.1226    9.8530  -28.5330 C.ar    1  UNL1        0.1026
     13 C          52.1933    9.2253  -29.7809 C.ar    1  UNL1        0.0166
     14 C          50.0958    6.7008  -31.7584 C.3     1  UNL1        0.0047
     15 C          51.3175    7.5921  -31.5066 C.3     1  UNL1        0.0224
     16 C          52.6202    6.7957  -31.6469 C.3     1  UNL1        0.0047
     17 C          50.1250   13.4998  -25.3770 C.3     1  UNL1        0.0986
     18 C          50.3619   14.9841  -25.7169 C.3     1  UNL1        0.0264
     19 C          48.7059   13.2053  -24.8955 C.ar    1  UNL1       -0.0041
     20 C          47.8229   14.2770  -24.6526 C.ar    1  UNL1       -0.0004
     21 C          46.4968   14.0413  -24.2793 C.ar    1  UNL1        0.0294
     22 C          46.0229   12.7339  -24.1633 C.ar    1  UNL1        0.1401
     23 F          44.7349   12.5079  -23.8054 F       1  UNL1       -0.2042
     24 C          46.8737   11.6599  -24.4255 C.ar    1  UNL1        0.0294
     25 C          48.2012   11.8897  -24.7966 C.ar    1  UNL1       -0.0004
     26 C          51.3254   13.6169  -23.1485 C.3     1  UNL1        0.1207
     27 C          50.3115   13.0646  -22.1853 C.ar    1  UNL1       -0.0021
     28 C          49.3776   13.9167  -21.5792 C.ar    1  UNL1       -0.0026
     29 C          48.3809   13.3927  -20.7548 C.ar    1  UNL1       -0.0001
     30 C          48.3032   12.0158  -20.5342 C.ar    1  UNL1        0.0064
     31 C          49.2320   11.1437  -21.1296 C.ar    1  UNL1        0.0752
     32 C          50.2329   11.6798  -21.9604 C.ar    1  UNL1        0.0038
     33 C          49.1227    9.6814  -20.9072 C.2     1  UNL1        0.3380
     34 O          50.0154    9.0808  -20.2516 O.2     1  UNL1       -0.2451
     35 O          48.0588    8.9378  -21.4169 O.3     1  UNL1       -0.4771
     36 H          47.3640    9.3335  -22.0366 H       1  UNL1        0.2954
@<TRIPOS>BOND
     1    14    15    1
     2    15    16    1
     3    15     4    1
     4     4     5   ar
     5     5     6   ar
     6     6     7   ar
     7     7     8   ar
     8     8     9   ar
     9     9     1    1
    10     1     2    2
    11     1     3   am
    12     3    26    1
    13    26    27    1
    14    27    28   ar
    15    28    29   ar
    16    29    30   ar
    17    30    31   ar
    18    31    33    1
    19    33    34    2
    20    33    35    1
    21    31    32   ar
    22     3    17    1
    23    17    18    1
    24    17    19    1
    25    19    20   ar
    26    20    21   ar
    27    21    22   ar
    28    22    23    1
    29    22    24   ar
    30    24    25   ar
    31     9    10   ar
    32    10    11   ar
    33    11    12   ar
    34    12    13   ar
    35    13     4   ar
    36    12     7   ar
    37    32    27   ar
    38    25    19   ar
    39    35    36    1
