@<TRIPOS>MOLECULE
*****
 39 43 0 0 0
SMALL
GASTEIGER

@<TRIPOS>ATOM
      1 C         -11.5048  -10.3016   31.3101 C.ar    1  UNL1        0.1316
      2 C         -12.5507  -10.3756   32.2541 C.ar    1  UNL1        0.0281
      3 C         -13.0571  -11.6178   32.6731 C.ar    1  UNL1        0.0691
      4 C         -12.5180  -12.8050   32.1491 C.ar    1  UNL1        0.2396
      5 N         -11.5037  -12.6978   31.2456 N.ar    1  UNL1       -0.1292
      6 C         -10.8016  -13.6517   30.6095 C.ar    1  UNL1        0.3134
      7 C          -9.8747  -13.0090   29.8008 C.ar    1  UNL1        0.1320
      8 N          -9.9977  -11.6685   29.9383 N.ar    1  UNL1       -0.2941
      9 C         -11.0037  -11.5214   30.8238 C.ar    1  UNL1        0.3120
     10 H          -9.4736  -10.9633   29.4943 H       1  UNL1        0.1718
     11 N          -9.9982   -6.4326   30.0058 N.3     1  UNL1       -0.2647
     12 C          -9.8871   -7.6408   29.1499 C.3     1  UNL1        0.0941
     13 C          -9.8436   -8.9502   29.9490 C.3     1  UNL1        0.1084
     14 N         -10.9703   -9.0245   30.8896 N.pl3   1  UNL1       -0.2988
     15 C         -11.5279   -7.7786   31.4333 C.3     1  UNL1        0.1084
     16 C         -10.4791   -6.6652   31.3863 C.3     1  UNL1        0.0941
     17 C          -8.8156   -5.5457   29.9479 C.3     1  UNL1        0.1199
     18 C          -5.8252   -7.5356   29.8579 C.ar    1  UNL1        0.1165
     19 N          -6.9014   -7.0213   29.2235 N.ar    1  UNL1       -0.2344
     20 C          -7.5150   -6.2790   30.1677 C.ar    1  UNL1        0.0878
     21 C          -6.8010   -6.3612   31.3490 C.ar    1  UNL1        0.0499
     22 C          -7.1418   -5.7226   32.6579 C.3     1  UNL1        0.0511
     23 N          -5.7374   -7.1546   31.1478 N.ar    1  UNL1       -0.3443
     24 H          -5.0130   -7.4368   31.8454 H       1  UNL1        0.1668
     25 C          -5.6195   -9.7660   28.7828 C.3     1  UNL1        0.0084
     26 C          -4.8808   -8.5046   29.2168 C.3     1  UNL1        0.0637
     27 C          -8.8887  -13.6456   28.8989 C.ar    1  UNL1        0.0218
     28 C          -9.2883  -14.6929   28.0580 C.ar    1  UNL1        0.0013
     29 C          -8.3796  -15.2892   27.1824 C.ar    1  UNL1       -0.0042
     30 C          -7.0373  -14.8576   27.1161 C.ar    1  UNL1       -0.0228
     31 C          -6.6428  -13.8068   27.9771 C.ar    1  UNL1       -0.0042
     32 C          -7.5553  -13.2128   28.8541 C.ar    1  UNL1        0.0013
     33 C          -6.0702  -15.5310   26.1208 C.3     1  UNL1        0.0189
     34 C          -5.3587  -16.7722   26.7114 C.3     1  UNL1        0.0044
     35 C          -4.9799  -14.5210   25.7008 C.3     1  UNL1        0.0044
     36 C          -6.8532  -15.9897   24.8715 C.3     1  UNL1        0.0044
     37 C         -13.0297  -14.1484   32.6043 C.3     1  UNL1        0.2395
     38 O         -12.0751  -14.7918   33.4262 O.3     1  UNL1       -0.3407
     39 C         -12.4795  -14.7382   34.7770 C.3     1  UNL1        0.1748
@<TRIPOS>BOND
     1    25    26    1
     2    26    18    1
     3    18    19   ar
     4    19    20   ar
     5    20    17    1
     6    17    11    1
     7    11    12    1
     8    12    13    1
     9    13    14    1
    10    14     1    1
    11     1     2   ar
    12     2     3   ar
    13     3     4   ar
    14     4    37    1
    15    37    38    1
    16    38    39    1
    17     4     5   ar
    18     5     6   ar
    19     6     7   ar
    20     7    27    1
    21    27    28   ar
    22    28    29   ar
    23    29    30   ar
    24    30    33    1
    25    33    34    1
    26    33    35    1
    27    33    36    1
    28    30    31   ar
    29    31    32   ar
    30     7     8   ar
    31     8     9   ar
    32    14    15    1
    33    15    16    1
    34    20    21   ar
    35    21    22    1
    36    21    23   ar
    37    23    18   ar
    38    16    11    1
    39     9     1   ar
    40     9     5   ar
    41    32    27   ar
    42    23    24    1
    43     8    10    1
@<TRIPOS>MOLECULE
*****
 39 43 0 0 0
SMALL
GASTEIGER

@<TRIPOS>ATOM
      1 C          -8.1743  -11.5216   30.4991 C.ar    1  UNL1        0.1316
      2 C          -7.1797  -10.5935   30.8733 C.ar    1  UNL1        0.0281
      3 C          -5.9325  -10.5732   30.2260 C.ar    1  UNL1        0.0691
      4 C          -5.6670  -11.4862   29.1913 C.ar    1  UNL1        0.2396
      5 N          -6.6522  -12.3634   28.8496 N.ar    1  UNL1       -0.1292
      6 C          -6.6777  -13.3158   27.9011 C.ar    1  UNL1        0.3134
      7 C          -7.9237  -13.9238   27.9630 C.ar    1  UNL1        0.1320
      8 N          -8.6659  -13.3500   28.9382 N.ar    1  UNL1       -0.2941
      9 C          -7.8530  -12.4075   29.4562 C.ar    1  UNL1        0.3120
     10 H          -9.5871  -13.5700   29.2072 H       1  UNL1        0.1718
     11 N         -12.0822  -11.4615   32.4135 N.3     1  UNL1       -0.2647
     12 C         -10.8782  -10.9071   33.0827 C.3     1  UNL1        0.0941
     13 C          -9.5694  -11.5602   32.6182 C.3     1  UNL1        0.1084
     14 N          -9.4651  -11.5336   31.1525 N.pl3   1  UNL1       -0.2988
     15 C         -10.6957  -11.5590   30.3501 C.3     1  UNL1        0.1084
     16 C         -11.8357  -12.1929   31.1504 C.3     1  UNL1        0.0941
     17 C         -12.9992  -12.1783   33.3265 C.3     1  UNL1        0.1199
     18 C         -12.9655  -15.7517   32.9514 C.ar    1  UNL1        0.1165
     19 N         -13.4355  -14.5447   32.5673 N.ar    1  UNL1       -0.2344
     20 C         -12.7678  -13.6695   33.3466 C.ar    1  UNL1        0.0878
     21 C         -11.9130  -14.3629   34.1837 C.ar    1  UNL1        0.0499
     22 C         -11.0116  -13.7905   35.2310 C.3     1  UNL1        0.0511
     23 N         -12.0420  -15.6745   33.9303 N.ar    1  UNL1       -0.3443
     24 H         -11.5529  -16.4655   34.4056 H       1  UNL1        0.1668
     25 C         -12.5399  -17.6068   31.3545 C.3     1  UNL1        0.0084
     26 C         -13.4878  -17.0457   32.4089 C.3     1  UNL1        0.0637
     27 C          -8.4112  -15.0403   27.1223 C.ar    1  UNL1        0.0218
     28 C          -8.6904  -14.8210   25.7666 C.ar    1  UNL1        0.0013
     29 C          -9.1268  -15.8664   24.9514 C.ar    1  UNL1       -0.0042
     30 C          -9.2987  -17.1704   25.4639 C.ar    1  UNL1       -0.0228
     31 C          -9.0239  -17.3774   26.8360 C.ar    1  UNL1       -0.0042
     32 C          -8.5884  -16.3275   27.6501 C.ar    1  UNL1        0.0013
     33 C          -9.7648  -18.3015   24.5244 C.3     1  UNL1        0.0189
     34 C          -9.9865  -19.6465   25.2572 C.3     1  UNL1        0.0044
     35 C          -8.6988  -18.5331   23.4312 C.3     1  UNL1        0.0044
     36 C         -11.1013  -17.9029   23.8614 C.3     1  UNL1        0.0044
     37 C          -4.3448  -11.4644   28.4669 C.3     1  UNL1        0.2395
     38 O          -4.5034  -10.9538   27.1574 O.3     1  UNL1       -0.3407
     39 C          -4.9438   -9.6141   27.2064 C.3     1  UNL1        0.1748
@<TRIPOS>BOND
     1    25    26    1
     2    26    18    1
     3    18    19   ar
     4    19    20   ar
     5    20    17    1
     6    17    11    1
     7    11    12    1
     8    12    13    1
     9    13    14    1
    10    14     1    1
    11     1     2   ar
    12     2     3   ar
    13     3     4   ar
    14     4    37    1
    15    37    38    1
    16    38    39    1
    17     4     5   ar
    18     5     6   ar
    19     6     7   ar
    20     7    27    1
    21    27    28   ar
    22    28    29   ar
    23    29    30   ar
    24    30    33    1
    25    33    34    1
    26    33    35    1
    27    33    36    1
    28    30    31   ar
    29    31    32   ar
    30     7     8   ar
    31     8     9   ar
    32    14    15    1
    33    15    16    1
    34    20    21   ar
    35    21    22    1
    36    21    23   ar
    37    23    18   ar
    38    16    11    1
    39     9     1   ar
    40     9     5   ar
    41    32    27   ar
    42    23    24    1
    43     8    10    1
@<TRIPOS>MOLECULE
*****
 39 43 0 0 0
SMALL
GASTEIGER

@<TRIPOS>ATOM
      1 C          -9.5537  -17.5127   24.1972 C.ar    1  UNL1        0.1316
      2 C         -10.8813  -17.9421   23.9885 C.ar    1  UNL1        0.0281
      3 C         -11.2130  -18.7501   22.8875 C.ar    1  UNL1        0.0691
      4 C         -10.2135  -19.1392   21.9797 C.ar    1  UNL1        0.2396
      5 N          -8.9407  -18.7135   22.2152 N.ar    1  UNL1       -0.1292
      6 C          -7.8057  -18.9472   21.5336 C.ar    1  UNL1        0.3134
      7 C          -6.7829  -18.2873   22.2002 C.ar    1  UNL1        0.1320
      8 N          -7.2787  -17.6541   23.2885 N.ar    1  UNL1       -0.2941
      9 C          -8.5968  -17.9355   23.2585 C.ar    1  UNL1        0.3120
     10 H          -6.7897  -17.1128   23.9497 H       1  UNL1        0.1718
     11 N          -8.6016  -15.0882   27.6837 N.3     1  UNL1       -0.2647
     12 C          -9.3501  -14.5316   26.5285 C.3     1  UNL1        0.0941
     13 C          -9.0392  -15.2410   25.2036 C.3     1  UNL1        0.1084
     14 N          -9.2065  -16.6947   25.3390 N.pl3   1  UNL1       -0.2988
     15 C          -8.9774  -17.3193   26.6490 C.3     1  UNL1        0.1084
     16 C          -8.0467  -16.4475   27.4949 C.3     1  UNL1        0.0941
     17 C          -7.6299  -14.1452   28.2795 C.3     1  UNL1        0.1199
     18 C          -9.7588  -11.8803   30.0819 C.ar    1  UNL1        0.1165
     19 N          -9.6046  -13.0240   29.3796 N.ar    1  UNL1       -0.2344
     20 C          -8.2841  -13.0667   29.1080 C.ar    1  UNL1        0.0878
     21 C          -7.6703  -11.9515   29.6479 C.ar    1  UNL1        0.0499
     22 C          -6.2241  -11.5815   29.5553 C.3     1  UNL1        0.0511
     23 N          -8.6045  -11.2074   30.2601 N.ar    1  UNL1       -0.3443
     24 H          -8.4714  -10.2928   30.7467 H       1  UNL1        0.1668
     25 C         -11.6719  -12.2679   31.6189 C.3     1  UNL1        0.0084
     26 C         -11.0914  -11.3683   30.5331 C.3     1  UNL1        0.0637
     27 C          -5.3545  -18.2417   21.8150 C.ar    1  UNL1        0.0218
     28 C          -4.4951  -17.3235   22.4333 C.ar    1  UNL1        0.0013
     29 C          -3.1400  -17.2821   22.1022 C.ar    1  UNL1       -0.0042
     30 C          -2.5953  -18.1597   21.1400 C.ar    1  UNL1       -0.0228
     31 C          -3.4742  -19.0750   20.5150 C.ar    1  UNL1       -0.0042
     32 C          -4.8316  -19.1127   20.8480 C.ar    1  UNL1        0.0013
     33 C          -1.0884  -18.0936   20.8170 C.3     1  UNL1        0.0189
     34 C          -0.2414  -19.0678   21.6707 C.3     1  UNL1        0.0044
     35 C          -0.5685  -16.6638   21.0824 C.3     1  UNL1        0.0044
     36 C          -0.8633  -18.4539   19.3324 C.3     1  UNL1        0.0044
     37 C         -10.5436  -20.0265   20.8062 C.3     1  UNL1        0.2395
     38 O         -10.3763  -19.3249   19.5895 O.3     1  UNL1       -0.3407
     39 C         -10.9825  -18.0535   19.6724 C.3     1  UNL1        0.1748
@<TRIPOS>BOND
     1    25    26    1
     2    26    18    1
     3    18    19   ar
     4    19    20   ar
     5    20    17    1
     6    17    11    1
     7    11    12    1
     8    12    13    1
     9    13    14    1
    10    14     1    1
    11     1     2   ar
    12     2     3   ar
    13     3     4   ar
    14     4    37    1
    15    37    38    1
    16    38    39    1
    17     4     5   ar
    18     5     6   ar
    19     6     7   ar
    20     7    27    1
    21    27    28   ar
    22    28    29   ar
    23    29    30   ar
    24    30    33    1
    25    33    34    1
    26    33    35    1
    27    33    36    1
    28    30    31   ar
    29    31    32   ar
    30     7     8   ar
    31     8     9   ar
    32    14    15    1
    33    15    16    1
    34    20    21   ar
    35    21    22    1
    36    21    23   ar
    37    23    18   ar
    38    16    11    1
    39     9     1   ar
    40     9     5   ar
    41    32    27   ar
    42    23    24    1
    43     8    10    1
@<TRIPOS>MOLECULE
*****
 39 43 0 0 0
SMALL
GASTEIGER

@<TRIPOS>ATOM
      1 C          -7.2437  -17.3995   23.5561 C.ar    1  UNL1        0.1316
      2 C          -7.9491  -18.4289   22.8980 C.ar    1  UNL1        0.0281
      3 C          -9.2136  -18.8408   23.3520 C.ar    1  UNL1        0.0691
      4 C          -9.7885  -18.2223   24.4753 C.ar    1  UNL1        0.2396
      5 N          -9.0840  -17.2265   25.0824 N.ar    1  UNL1       -0.1292
      6 C          -9.3964  -16.4632   26.1441 C.ar    1  UNL1        0.3134
      7 C          -8.3358  -15.5922   26.3502 C.ar    1  UNL1        0.1320
      8 N          -7.3764  -15.8102   25.4211 N.ar    1  UNL1       -0.2941
      9 C          -7.8697  -16.8162   24.6713 C.ar    1  UNL1        0.3120
     10 H          -6.5166  -15.3421   25.3167 H       1  UNL1        0.1718
     11 N          -3.3470  -16.0073   22.2077 N.3     1  UNL1       -0.2647
     12 C          -4.6070  -15.4858   21.6199 C.3     1  UNL1        0.0941
     13 C          -5.7739  -16.4791   21.7039 C.3     1  UNL1        0.1084
     14 N          -5.9491  -16.9621   23.0808 N.pl3   1  UNL1       -0.2988
     15 C          -4.7780  -17.0336   23.9651 C.3     1  UNL1        0.1084
     16 C          -3.4963  -17.1497   23.1370 C.3     1  UNL1        0.0941
     17 C          -2.2612  -16.2023   21.2223 C.3     1  UNL1        0.1199
     18 C          -0.7012  -19.4388   21.2737 C.ar    1  UNL1        0.1165
     19 N          -0.7446  -18.1599   21.7068 N.ar    1  UNL1       -0.2344
     20 C          -1.8298  -17.6429   21.0949 C.ar    1  UNL1        0.0878
     21 C          -2.4162  -18.6156   20.3062 C.ar    1  UNL1        0.0499
     22 C          -3.6187  -18.4651   19.4296 C.3     1  UNL1        0.0511
     23 N          -1.7006  -19.7450   20.4226 N.ar    1  UNL1       -0.3443
     24 H          -1.8663  -20.6559   19.9392 H       1  UNL1        0.1668
     25 C           1.7340  -19.8931   21.0841 C.3     1  UNL1        0.0084
     26 C           0.3996  -20.3887   21.6308 C.3     1  UNL1        0.0637
     27 C          -8.2177  -14.5710   27.4150 C.ar    1  UNL1        0.0218
     28 C          -6.9614  -14.0364   27.7312 C.ar    1  UNL1        0.0013
     29 C          -6.8326  -13.0544   28.7146 C.ar    1  UNL1       -0.0042
     30 C          -7.9576  -12.5709   29.4169 C.ar    1  UNL1       -0.0228
     31 C          -9.2189  -13.1254   29.0966 C.ar    1  UNL1       -0.0042
     32 C          -9.3441  -14.1102   28.1120 C.ar    1  UNL1        0.0013
     33 C          -7.7737  -11.4714   30.4830 C.3     1  UNL1        0.0189
     34 C          -8.6106  -11.7194   31.7611 C.3     1  UNL1        0.0044
     35 C          -8.2058  -10.1097   29.8963 C.3     1  UNL1        0.0044
     36 C          -6.2888  -11.4019   30.9009 C.3     1  UNL1        0.0044
     37 C         -11.1551  -18.6319   24.9633 C.3     1  UNL1        0.2395
     38 O         -11.9903  -18.9741   23.8743 O.3     1  UNL1       -0.3407
     39 C         -12.8093  -17.8794   23.5251 C.3     1  UNL1        0.1748
@<TRIPOS>BOND
     1    25    26    1
     2    26    18    1
     3    18    19   ar
     4    19    20   ar
     5    20    17    1
     6    17    11    1
     7    11    12    1
     8    12    13    1
     9    13    14    1
    10    14     1    1
    11     1     2   ar
    12     2     3   ar
    13     3     4   ar
    14     4    37    1
    15    37    38    1
    16    38    39    1
    17     4     5   ar
    18     5     6   ar
    19     6     7   ar
    20     7    27    1
    21    27    28   ar
    22    28    29   ar
    23    29    30   ar
    24    30    33    1
    25    33    34    1
    26    33    35    1
    27    33    36    1
    28    30    31   ar
    29    31    32   ar
    30     7     8   ar
    31     8     9   ar
    32    14    15    1
    33    15    16    1
    34    20    21   ar
    35    21    22    1
    36    21    23   ar
    37    23    18   ar
    38    16    11    1
    39     9     1   ar
    40     9     5   ar
    41    32    27   ar
    42    23    24    1
    43     8    10    1
@<TRIPOS>MOLECULE
*****
 39 43 0 0 0
SMALL
GASTEIGER

@<TRIPOS>ATOM
      1 C          -9.5015  -17.4367   24.1149 C.ar    1  UNL1        0.1316
      2 C         -10.8176  -17.8904   23.8857 C.ar    1  UNL1        0.0281
      3 C         -11.1175  -18.7032   22.7792 C.ar    1  UNL1        0.0691
      4 C         -10.0972  -19.0727   21.8864 C.ar    1  UNL1        0.2396
      5 N          -8.8362  -18.6239   22.1415 N.ar    1  UNL1       -0.1292
      6 C          -7.6869  -18.8358   21.4771 C.ar    1  UNL1        0.3134
      7 C          -6.6868  -18.1578   22.1597 C.ar    1  UNL1        0.1320
      8 N          -7.2107  -17.5351   23.2409 N.ar    1  UNL1       -0.2941
      9 C          -8.5228  -17.8408   23.1906 C.ar    1  UNL1        0.3120
     10 H          -6.7419  -16.9855   23.9098 H       1  UNL1        0.1718
     11 N          -8.4565  -14.9362   27.5202 N.3     1  UNL1       -0.2647
     12 C          -8.1978  -16.3983   27.5187 C.3     1  UNL1        0.0941
     13 C          -9.1582  -17.1849   26.6163 C.3     1  UNL1        0.1084
     14 N          -9.1868  -16.6137   25.2626 N.pl3   1  UNL1       -0.2988
     15 C          -8.9287  -15.1777   25.0895 C.3     1  UNL1        0.1084
     16 C          -9.2508  -14.4232   26.3813 C.3     1  UNL1        0.0941
     17 C          -8.9109  -14.4088   28.8254 C.3     1  UNL1        0.1199
     18 C          -6.9179  -11.5007   29.5194 C.ar    1  UNL1        0.1165
     19 N          -7.0041  -12.7767   29.0839 N.ar    1  UNL1       -0.2344
     20 C          -8.3209  -13.0597   29.1562 C.ar    1  UNL1        0.0878
     21 C          -9.0003  -11.9541   29.6338 C.ar    1  UNL1        0.0499
     22 C         -10.4674  -11.8404   29.9014 C.3     1  UNL1        0.0511
     23 N          -8.1111  -10.9749   29.8611 N.ar    1  UNL1       -0.3443
     24 H          -8.2985  -10.0214   30.2440 H       1  UNL1        0.1668
     25 C          -5.0386  -11.0423   31.0785 C.3     1  UNL1        0.0084
     26 C          -5.6174  -10.7793   29.6925 C.3     1  UNL1        0.0637
     27 C          -5.2537  -18.0855   21.7963 C.ar    1  UNL1        0.0218
     28 C          -4.2848  -18.5752   22.6825 C.ar    1  UNL1        0.0013
     29 C          -2.9304  -18.5391   22.3475 C.ar    1  UNL1       -0.0042
     30 C          -2.4967  -18.0119   21.1120 C.ar    1  UNL1       -0.0228
     31 C          -3.4827  -17.5109   20.2301 C.ar    1  UNL1       -0.0042
     32 C          -4.8385  -17.5472   20.5695 C.ar    1  UNL1        0.0013
     33 C          -0.9918  -18.0080   20.7730 C.3     1  UNL1        0.0189
     34 C          -0.6932  -18.4848   19.3312 C.3     1  UNL1        0.0044
     35 C          -0.2446  -18.9497   21.7427 C.3     1  UNL1        0.0044
     36 C          -0.4346  -16.5753   20.9180 C.3     1  UNL1        0.0044
     37 C         -10.3931  -19.9648   20.7073 C.3     1  UNL1        0.2395
     38 O         -10.2781  -19.2430   19.4963 O.3     1  UNL1       -0.3407
     39 C         -10.9787  -18.0216   19.5884 C.3     1  UNL1        0.1748
@<TRIPOS>BOND
     1    25    26    1
     2    26    18    1
     3    18    19   ar
     4    19    20   ar
     5    20    17    1
     6    17    11    1
     7    11    12    1
     8    12    13    1
     9    13    14    1
    10    14     1    1
    11     1     2   ar
    12     2     3   ar
    13     3     4   ar
    14     4    37    1
    15    37    38    1
    16    38    39    1
    17     4     5   ar
    18     5     6   ar
    19     6     7   ar
    20     7    27    1
    21    27    28   ar
    22    28    29   ar
    23    29    30   ar
    24    30    33    1
    25    33    34    1
    26    33    35    1
    27    33    36    1
    28    30    31   ar
    29    31    32   ar
    30     7     8   ar
    31     8     9   ar
    32    14    15    1
    33    15    16    1
    34    20    21   ar
    35    21    22    1
    36    21    23   ar
    37    23    18   ar
    38    16    11    1
    39     9     1   ar
    40     9     5   ar
    41    32    27   ar
    42    23    24    1
    43     8    10    1
@<TRIPOS>MOLECULE
*****
 39 43 0 0 0
SMALL
GASTEIGER

@<TRIPOS>ATOM
      1 C         -11.1735  -10.0318   31.3655 C.ar    1  UNL1        0.1316
      2 C         -12.2381  -10.0221   32.2913 C.ar    1  UNL1        0.0281
      3 C         -12.8700  -11.2171   32.6757 C.ar    1  UNL1        0.0691
      4 C         -12.4397  -12.4406   32.1349 C.ar    1  UNL1        0.2396
      5 N         -11.4041  -12.4149   31.2498 N.ar    1  UNL1       -0.1292
      6 C         -10.7869  -13.4199   30.6044 C.ar    1  UNL1        0.3134
      7 C          -9.7879  -12.8548   29.8241 C.ar    1  UNL1        0.1320
      8 N          -9.7825  -11.5116   29.9883 N.ar    1  UNL1       -0.2941
      9 C         -10.7848  -11.2847   30.8610 C.ar    1  UNL1        0.3120
     10 H          -9.1847  -10.8522   29.5676 H       1  UNL1        0.1718
     11 N          -9.2754   -6.2866   30.2204 N.3     1  UNL1       -0.2647
     12 C          -9.8200   -7.2257   29.2073 C.3     1  UNL1        0.0941
     13 C          -9.8379   -8.6859   29.6793 C.3     1  UNL1        0.1084
     14 N         -10.5103   -8.8048   30.9807 N.pl3   1  UNL1       -0.2988
     15 C         -10.4682   -7.6683   31.9108 C.3     1  UNL1        0.1084
     16 C          -9.2534   -6.7864   31.6135 C.3     1  UNL1        0.0941
     17 C          -8.0069   -5.6403   29.8184 C.3     1  UNL1        0.1199
     18 C          -5.0881   -6.6324   31.6642 C.ar    1  UNL1        0.1165
     19 N          -6.1222   -5.7806   31.4902 N.ar    1  UNL1       -0.2344
     20 C          -6.7915   -6.2884   30.4350 C.ar    1  UNL1        0.0878
     21 C          -6.1495   -7.4309   29.9937 C.ar    1  UNL1        0.0499
     22 C          -6.5306   -8.2899   28.8301 C.3     1  UNL1        0.0511
     23 N          -5.0768   -7.6426   30.7719 N.ar    1  UNL1       -0.3443
     24 H          -4.3715   -8.4084   30.6887 H       1  UNL1        0.1668
     25 C          -4.0809   -7.4948   33.7653 C.3     1  UNL1        0.0084
     26 C          -4.0138   -6.4203   32.6854 C.3     1  UNL1        0.0637
     27 C          -8.8527  -13.5665   28.9242 C.ar    1  UNL1        0.0218
     28 C          -9.3216  -14.6131   28.1189 C.ar    1  UNL1        0.0013
     29 C          -8.4610  -15.2797   27.2454 C.ar    1  UNL1       -0.0042
     30 C          -7.0992  -14.9219   27.1457 C.ar    1  UNL1       -0.0228
     31 C          -6.6350  -13.8711   27.9710 C.ar    1  UNL1       -0.0042
     32 C          -7.4994  -13.2064   28.8461 C.ar    1  UNL1        0.0013
     33 C          -6.1865  -15.6719   26.1538 C.3     1  UNL1        0.0189
     34 C          -4.9825  -14.8243   25.6770 C.3     1  UNL1        0.0044
     35 C          -7.0032  -16.0706   24.9051 C.3     1  UNL1        0.0044
     36 C          -5.6271  -16.9433   26.8283 C.3     1  UNL1        0.0044
     37 C         -13.0873  -13.7365   32.5533 C.3     1  UNL1        0.2395
     38 O         -12.1602  -14.5581   33.2359 O.3     1  UNL1       -0.3407
     39 C         -12.4766  -14.6130   34.6100 C.3     1  UNL1        0.1748
@<TRIPOS>BOND
     1    25    26    1
     2    26    18    1
     3    18    19   ar
     4    19    20   ar
     5    20    17    1
     6    17    11    1
     7    11    12    1
     8    12    13    1
     9    13    14    1
    10    14     1    1
    11     1     2   ar
    12     2     3   ar
    13     3     4   ar
    14     4    37    1
    15    37    38    1
    16    38    39    1
    17     4     5   ar
    18     5     6   ar
    19     6     7   ar
    20     7    27    1
    21    27    28   ar
    22    28    29   ar
    23    29    30   ar
    24    30    33    1
    25    33    34    1
    26    33    35    1
    27    33    36    1
    28    30    31   ar
    29    31    32   ar
    30     7     8   ar
    31     8     9   ar
    32    14    15    1
    33    15    16    1
    34    20    21   ar
    35    21    22    1
    36    21    23   ar
    37    23    18   ar
    38    16    11    1
    39     9     1   ar
    40     9     5   ar
    41    32    27   ar
    42    23    24    1
    43     8    10    1
@<TRIPOS>MOLECULE
*****
 39 43 0 0 0
SMALL
GASTEIGER

@<TRIPOS>ATOM
      1 C          -7.2451  -17.3006   23.7023 C.ar    1  UNL1        0.1316
      2 C          -7.9288  -18.3500   23.0529 C.ar    1  UNL1        0.0281
      3 C          -9.1885  -18.7783   23.5052 C.ar    1  UNL1        0.0691
      4 C          -9.7802  -18.1565   24.6178 C.ar    1  UNL1        0.2396
      5 N          -9.0965  -17.1413   25.2166 N.ar    1  UNL1       -0.1292
      6 C          -9.4279  -16.3709   26.2673 C.ar    1  UNL1        0.3134
      7 C          -8.3837  -15.4792   26.4684 C.ar    1  UNL1        0.1320
      8 N          -7.4156  -15.6916   25.5472 N.ar    1  UNL1       -0.2941
      9 C          -7.8872  -16.7150   24.8070 C.ar    1  UNL1        0.3120
     10 H          -6.5634  -15.2099   25.4417 H       1  UNL1        0.1718
     11 N          -3.3616  -15.8632   22.3632 N.3     1  UNL1       -0.2647
     12 C          -4.6275  -15.2963   21.8330 C.3     1  UNL1        0.0941
     13 C          -5.8022  -16.2826   21.8801 C.3     1  UNL1        0.1084
     14 N          -5.9556  -16.8465   23.2286 N.pl3   1  UNL1       -0.2988
     15 C          -4.7684  -16.9815   24.0836 C.3     1  UNL1        0.1084
     16 C          -3.5042  -17.0583   23.2247 C.3     1  UNL1        0.0941
     17 C          -2.2969  -16.0077   21.3464 C.3     1  UNL1        0.1199
     18 C          -2.9771  -19.2311   19.9120 C.ar    1  UNL1        0.1165
     19 N          -3.4214  -18.1108   20.5224 N.ar    1  UNL1       -0.2344
     20 C          -2.3159  -17.3499   20.6568 C.ar    1  UNL1        0.0878
     21 C          -1.2303  -18.0242   20.1287 C.ar    1  UNL1        0.0499
     22 C           0.1925  -17.5640   20.0984 C.3     1  UNL1        0.0511
     23 N          -1.6529  -19.2090   19.6611 N.ar    1  UNL1       -0.3443
     24 H          -1.0773  -19.9617   19.2217 H       1  UNL1        0.1668
     25 C          -5.1342  -20.3396   20.4510 C.3     1  UNL1        0.0084
     26 C          -3.8516  -20.4132   19.6297 C.3     1  UNL1        0.0637
     27 C          -8.2892  -14.4434   27.5215 C.ar    1  UNL1        0.0218
     28 C          -9.4529  -13.9821   28.1514 C.ar    1  UNL1        0.0013
     29 C          -9.3825  -13.0243   29.1641 C.ar    1  UNL1       -0.0042
     30 C          -8.1436  -12.4938   29.5838 C.ar    1  UNL1       -0.0228
     31 C          -6.9766  -12.9591   28.9336 C.ar    1  UNL1       -0.0042
     32 C          -7.0510  -13.9176   27.9185 C.ar    1  UNL1        0.0013
     33 C          -8.1085  -11.4506   30.7196 C.3     1  UNL1        0.0189
     34 C          -6.6891  -11.2265   31.2942 C.3     1  UNL1        0.0044
     35 C          -9.0145  -11.9221   31.8781 C.3     1  UNL1        0.0044
     36 C          -8.6192  -10.0934   30.1888 C.3     1  UNL1        0.0044
     37 C         -11.1422  -18.5839   25.1036 C.3     1  UNL1        0.2395
     38 O         -11.9588  -18.9726   24.0160 O.3     1  UNL1       -0.3407
     39 C         -12.6897  -17.8655   23.5350 C.3     1  UNL1        0.1748
@<TRIPOS>BOND
     1    25    26    1
     2    26    18    1
     3    18    19   ar
     4    19    20   ar
     5    20    17    1
     6    17    11    1
     7    11    12    1
     8    12    13    1
     9    13    14    1
    10    14     1    1
    11     1     2   ar
    12     2     3   ar
    13     3     4   ar
    14     4    37    1
    15    37    38    1
    16    38    39    1
    17     4     5   ar
    18     5     6   ar
    19     6     7   ar
    20     7    27    1
    21    27    28   ar
    22    28    29   ar
    23    29    30   ar
    24    30    33    1
    25    33    34    1
    26    33    35    1
    27    33    36    1
    28    30    31   ar
    29    31    32   ar
    30     7     8   ar
    31     8     9   ar
    32    14    15    1
    33    15    16    1
    34    20    21   ar
    35    21    22    1
    36    21    23   ar
    37    23    18   ar
    38    16    11    1
    39     9     1   ar
    40     9     5   ar
    41    32    27   ar
    42    23    24    1
    43     8    10    1
@<TRIPOS>MOLECULE
*****
 39 43 0 0 0
SMALL
GASTEIGER

@<TRIPOS>ATOM
      1 C          -5.7997  -12.1981   27.9708 C.ar    1  UNL1        0.1316
      2 C          -4.7651  -11.2909   27.6594 C.ar    1  UNL1        0.0281
      3 C          -4.6123  -10.0957   28.3828 C.ar    1  UNL1        0.0691
      4 C          -5.4981   -9.7954   29.4315 C.ar    1  UNL1        0.2396
      5 N          -6.4809  -10.6969   29.7110 N.ar    1  UNL1       -0.1292
      6 C          -7.4372  -10.6755   30.6556 C.ar    1  UNL1        0.3134
      7 C          -8.1783  -11.8406   30.5163 C.ar    1  UNL1        0.1320
      8 N          -7.6825  -12.5802   29.4973 N.ar    1  UNL1       -0.2941
      9 C          -6.6525  -11.8459   29.0311 C.ar    1  UNL1        0.3120
     10 H          -8.0006  -13.4531   29.1716 H       1  UNL1        0.1718
     11 N          -6.2115  -15.9806   25.8580 N.3     1  UNL1       -0.2647
     12 C          -4.9845  -15.1526   25.7414 C.3     1  UNL1        0.0941
     13 C          -5.2364  -13.6564   25.9722 C.3     1  UNL1        0.1084
     14 N          -5.9489  -13.4371   27.2386 N.pl3   1  UNL1       -0.2988
     15 C          -6.8525  -14.4825   27.7380 C.3     1  UNL1        0.1084
     16 C          -7.3422  -15.3554   26.5803 C.3     1  UNL1        0.0941
     17 C          -6.6214  -16.6271   24.5922 C.3     1  UNL1        0.1199
     18 C          -3.8693  -16.2776   22.3087 C.ar    1  UNL1        0.1165
     19 N          -4.3643  -16.7550   23.4716 N.ar    1  UNL1       -0.2344
     20 C          -5.6578  -16.3727   23.4590 C.ar    1  UNL1        0.0878
     21 C          -5.9161  -15.6733   22.2944 C.ar    1  UNL1        0.0499
     22 C          -7.2088  -15.0403   21.8877 C.3     1  UNL1        0.0511
     23 N          -4.7855  -15.6164   21.5736 N.ar    1  UNL1       -0.3443
     24 H          -4.6396  -15.1410   20.6551 H       1  UNL1        0.1668
     25 C          -1.9972  -17.8543   21.8820 C.3     1  UNL1        0.0084
     26 C          -2.4271  -16.3918   21.9229 C.3     1  UNL1        0.0637
     27 C          -9.3477  -12.2528   31.3247 C.ar    1  UNL1        0.0218
     28 C         -10.4631  -12.8227   30.6961 C.ar    1  UNL1        0.0013
     29 C         -11.5651  -13.2409   31.4434 C.ar    1  UNL1       -0.0042
     30 C         -11.5902  -13.1046   32.8481 C.ar    1  UNL1       -0.0228
     31 C         -10.4633  -12.5184   33.4705 C.ar    1  UNL1       -0.0042
     32 C          -9.3616  -12.0991   32.7187 C.ar    1  UNL1        0.0013
     33 C         -12.8201  -13.5971   33.6382 C.3     1  UNL1        0.0189
     34 C         -12.4531  -14.2180   35.0075 C.3     1  UNL1        0.0044
     35 C         -13.5598  -14.6759   32.8170 C.3     1  UNL1        0.0044
     36 C         -13.7724  -12.4104   33.9016 C.3     1  UNL1        0.0044
     37 C          -5.3362   -8.5307   30.2365 C.3     1  UNL1        0.2395
     38 O          -6.2283   -7.5327   29.7796 O.3     1  UNL1       -0.3407
     39 C          -6.1702   -6.4033   30.6235 C.3     1  UNL1        0.1748
@<TRIPOS>BOND
     1    25    26    1
     2    26    18    1
     3    18    19   ar
     4    19    20   ar
     5    20    17    1
     6    17    11    1
     7    11    12    1
     8    12    13    1
     9    13    14    1
    10    14     1    1
    11     1     2   ar
    12     2     3   ar
    13     3     4   ar
    14     4    37    1
    15    37    38    1
    16    38    39    1
    17     4     5   ar
    18     5     6   ar
    19     6     7   ar
    20     7    27    1
    21    27    28   ar
    22    28    29   ar
    23    29    30   ar
    24    30    33    1
    25    33    34    1
    26    33    35    1
    27    33    36    1
    28    30    31   ar
    29    31    32   ar
    30     7     8   ar
    31     8     9   ar
    32    14    15    1
    33    15    16    1
    34    20    21   ar
    35    21    22    1
    36    21    23   ar
    37    23    18   ar
    38    16    11    1
    39     9     1   ar
    40     9     5   ar
    41    32    27   ar
    42    23    24    1
    43     8    10    1
@<TRIPOS>MOLECULE
*****
 39 43 0 0 0
SMALL
GASTEIGER

@<TRIPOS>ATOM
      1 C          -9.4042  -11.3971   32.3172 C.ar    1  UNL1        0.1316
      2 C         -10.4291  -11.3540   33.2859 C.ar    1  UNL1        0.0281
      3 C         -11.5506  -12.1951   33.1867 C.ar    1  UNL1        0.0691
      4 C         -11.6578  -13.0933   32.1114 C.ar    1  UNL1        0.2396
      5 N         -10.6467  -13.1147   31.1982 N.ar    1  UNL1       -0.1292
      6 C         -10.4822  -13.8739   30.1009 C.ar    1  UNL1        0.3134
      7 C          -9.2759  -13.5043   29.5228 C.ar    1  UNL1        0.1320
      8 N          -8.6952  -12.5279   30.2581 N.ar    1  UNL1       -0.2941
      9 C          -9.5646  -12.3170   31.2667 C.ar    1  UNL1        0.3120
     10 H          -7.8361  -12.0758   30.0943 H       1  UNL1        0.1718
     11 N          -5.8747   -8.8859   32.7376 N.3     1  UNL1       -0.2647
     12 C          -7.1951   -8.4703   33.2748 C.3     1  UNL1        0.0941
     13 C          -8.3803   -9.0841   32.5173 C.3     1  UNL1        0.1084
     14 N          -8.2406  -10.5442   32.4259 N.pl3   1  UNL1       -0.2988
     15 C          -6.8938  -11.1312   32.4066 C.3     1  UNL1        0.1084
     16 C          -5.8773  -10.1059   31.8993 C.3     1  UNL1        0.0941
     17 C          -5.0933   -7.7789   32.1441 C.3     1  UNL1        0.1199
     18 C          -7.1969   -5.5791   30.2346 C.ar    1  UNL1        0.1165
     19 N          -6.6561   -5.9349   31.4204 N.ar    1  UNL1       -0.2344
     20 C          -5.8704   -6.9892   31.1195 C.ar    1  UNL1        0.0878
     21 C          -5.9539   -7.2490   29.7639 C.ar    1  UNL1        0.0499
     22 C          -5.2743   -8.3478   29.0103 C.3     1  UNL1        0.0511
     23 N          -6.7914   -6.3575   29.2115 N.ar    1  UNL1       -0.3443
     24 H          -7.0856   -6.2957   28.2113 H       1  UNL1        0.1668
     25 C          -9.5771   -5.0743   29.7322 C.3     1  UNL1        0.0084
     26 C          -8.2149   -4.4906   30.0910 C.3     1  UNL1        0.0637
     27 C          -8.6770  -14.0543   28.2860 C.ar    1  UNL1        0.0218
     28 C          -7.2832  -14.1315   28.1615 C.ar    1  UNL1        0.0013
     29 C          -6.6997  -14.6700   27.0138 C.ar    1  UNL1       -0.0042
     30 C          -7.4908  -15.1520   25.9487 C.ar    1  UNL1       -0.0228
     31 C          -8.8960  -15.0593   26.0810 C.ar    1  UNL1       -0.0042
     32 C          -9.4773  -14.5178   27.2316 C.ar    1  UNL1        0.0013
     33 C          -6.8059  -15.7569   24.7059 C.3     1  UNL1        0.0189
     34 C          -7.3647  -17.1482   24.3219 C.3     1  UNL1        0.0044
     35 C          -5.2945  -15.9177   24.9795 C.3     1  UNL1        0.0044
     36 C          -7.0113  -14.8190   23.4965 C.3     1  UNL1        0.0044
     37 C         -12.8405  -14.0220   32.0001 C.3     1  UNL1        0.2395
     38 O         -12.4705  -15.3423   32.3473 O.3     1  UNL1       -0.3407
     39 C         -13.5174  -15.9726   33.0527 C.3     1  UNL1        0.1748
@<TRIPOS>BOND
     1    25    26    1
     2    26    18    1
     3    18    19   ar
     4    19    20   ar
     5    20    17    1
     6    17    11    1
     7    11    12    1
     8    12    13    1
     9    13    14    1
    10    14     1    1
    11     1     2   ar
    12     2     3   ar
    13     3     4   ar
    14     4    37    1
    15    37    38    1
    16    38    39    1
    17     4     5   ar
    18     5     6   ar
    19     6     7   ar
    20     7    27    1
    21    27    28   ar
    22    28    29   ar
    23    29    30   ar
    24    30    33    1
    25    33    34    1
    26    33    35    1
    27    33    36    1
    28    30    31   ar
    29    31    32   ar
    30     7     8   ar
    31     8     9   ar
    32    14    15    1
    33    15    16    1
    34    20    21   ar
    35    21    22    1
    36    21    23   ar
    37    23    18   ar
    38    16    11    1
    39     9     1   ar
    40     9     5   ar
    41    32    27   ar
    42    23    24    1
    43     8    10    1
