@<TRIPOS>MOLECULE
*****
 35 38 0 0 0
SMALL
GASTEIGER

@<TRIPOS>ATOM
      1 C         -10.9476   -6.5905   30.9738 C.ar    1  UNL1        0.0875
      2 C         -11.4843   -5.5229   30.2327 C.ar    1  UNL1        0.0076
      3 C         -10.6519   -4.5728   29.6493 C.ar    1  UNL1        0.0000
      4 C          -9.2728   -4.6675   29.8011 C.ar    1  UNL1       -0.0012
      5 C          -8.7087   -5.7136   30.5481 C.ar    1  UNL1        0.0128
      6 C          -9.5417   -6.6906   31.1332 C.ar    1  UNL1        0.1455
      7 O          -9.0348   -7.7243   31.9375 O.3     1  UNL1       -0.4540
      8 C          -7.8662   -8.5007   31.8083 C.ar    1  UNL1        0.1412
      9 C          -7.7958   -9.6193   32.6481 C.ar    1  UNL1        0.0371
     10 C          -6.7415  -10.5263   32.5619 C.ar    1  UNL1        0.0070
     11 C          -5.7066  -10.3223   31.6422 C.ar    1  UNL1        0.0713
     12 C          -5.7566   -9.2009   30.8021 C.ar    1  UNL1        0.0026
     13 C          -6.8024   -8.2617   30.8944 C.ar    1  UNL1        0.0126
     14 C          -6.7293   -7.0589   29.9914 C.3     1  UNL1        0.0342
     15 C          -7.2225   -5.7956   30.6840 C.3     1  UNL1        0.0342
     16 N         -11.4538   -8.9211   31.8778 N.am    1  UNL1       -0.2986
     17 C         -11.8821   -7.5941   31.5498 C.2     1  UNL1        0.2490
     18 O         -13.0848   -7.2791   31.7593 O.2     1  UNL1       -0.2700
     19 H         -11.2030   -9.1118   32.8741 H       1  UNL1        0.1500
     20 C         -10.4015  -10.1868   30.0075 C.3     1  UNL1        0.0262
     21 C         -11.5936  -10.0649   30.9673 C.3     1  UNL1        0.0944
     22 C         -11.8442  -11.3434   31.7433 C.ar    1  UNL1       -0.0045
     23 C         -10.8637  -11.8255   32.6263 C.ar    1  UNL1       -0.0025
     24 C         -11.0442  -13.0347   33.3022 C.ar    1  UNL1        0.0062
     25 C         -12.2128  -13.7913   33.1119 C.ar    1  UNL1        0.0754
     26 C         -13.1979  -13.3054   32.2347 C.ar    1  UNL1        0.0062
     27 C         -13.0185  -12.0941   31.5621 C.ar    1  UNL1       -0.0025
     28 C         -12.3982  -15.1016   33.7828 C.2     1  UNL1        0.3380
     29 O         -12.3527  -16.1622   33.1044 O.2     1  UNL1       -0.2451
     30 O         -12.6319  -15.2007   35.1540 O.3     1  UNL1       -0.4771
     31 H         -12.7797  -14.3926   35.7440 H       1  UNL1        0.2954
     32 C          -4.6039  -11.3393   31.4853 C.3     1  UNL1        0.4186
     33 F          -3.8165  -11.3957   32.6225 F       1  UNL1       -0.1659
     34 F          -5.1620  -12.5843   31.2626 F       1  UNL1       -0.1659
     35 F          -3.7918  -11.0110   30.4136 F       1  UNL1       -0.1659
@<TRIPOS>BOND
     1    20    21    1
     2    21    16    1
     3    16    17   am
     4    17    18    2
     5    17     1    1
     6     1     2   ar
     7     2     3   ar
     8     3     4   ar
     9     4     5   ar
    10     5     6   ar
    11     6     7    1
    12     7     8    1
    13     8     9   ar
    14     9    10   ar
    15    10    11   ar
    16    11    32    1
    17    32    33    1
    18    32    34    1
    19    32    35    1
    20    11    12   ar
    21    12    13   ar
    22    13    14    1
    23    14    15    1
    24    21    22    1
    25    22    23   ar
    26    23    24   ar
    27    24    25   ar
    28    25    28    1
    29    28    29    2
    30    28    30    1
    31    25    26   ar
    32    26    27   ar
    33     6     1   ar
    34    13     8   ar
    35    27    22   ar
    36    15     5    1
    37    16    19    1
    38    30    31    1
@<TRIPOS>MOLECULE
*****
 35 38 0 0 0
SMALL
GASTEIGER

@<TRIPOS>ATOM
      1 C          -8.4900   -6.6559   31.4461 C.ar    1  UNL1        0.0875
      2 C          -8.8473   -5.4816   30.7604 C.ar    1  UNL1        0.0076
      3 C          -9.8458   -5.4997   29.7915 C.ar    1  UNL1        0.0000
      4 C         -10.4986   -6.6889   29.4859 C.ar    1  UNL1       -0.0012
      5 C         -10.1531   -7.8803   30.1431 C.ar    1  UNL1        0.0128
      6 C          -9.1514   -7.8719   31.1368 C.ar    1  UNL1        0.1455
      7 O          -8.7270   -9.0440   31.7837 O.3     1  UNL1       -0.4540
      8 C          -9.4578  -10.1598   32.2374 C.ar    1  UNL1        0.1412
      9 C          -8.7523  -11.0387   33.0689 C.ar    1  UNL1        0.0371
     10 C          -9.3766  -12.1328   33.6644 C.ar    1  UNL1        0.0070
     11 C         -10.7298  -12.3939   33.4208 C.ar    1  UNL1        0.0713
     12 C         -11.4472  -11.5299   32.5814 C.ar    1  UNL1        0.0026
     13 C         -10.8243  -10.4344   31.9521 C.ar    1  UNL1        0.0126
     14 C         -11.6673   -9.6056   31.0193 C.3     1  UNL1        0.0342
     15 C         -10.8803   -9.1406   29.8014 C.3     1  UNL1        0.0342
     16 N          -6.1362   -6.0422   32.2130 N.am    1  UNL1       -0.2986
     17 C          -7.4370   -6.5727   32.4933 C.2     1  UNL1        0.2490
     18 O          -7.6851   -6.9765   33.6616 O.2     1  UNL1       -0.2700
     19 H          -5.9611   -5.0433   32.4646 H       1  UNL1        0.1500
     20 C          -4.0331   -7.1033   33.0246 C.3     1  UNL1        0.0262
     21 C          -4.9851   -6.8753   31.8418 C.3     1  UNL1        0.0944
     22 C          -5.4431   -8.1753   31.2093 C.ar    1  UNL1       -0.0045
     23 C          -5.9330   -8.1744   29.8928 C.ar    1  UNL1       -0.0025
     24 C          -6.4215   -9.3473   29.3121 C.ar    1  UNL1        0.0062
     25 C          -6.4302  -10.5519   30.0354 C.ar    1  UNL1        0.0754
     26 C          -5.9325  -10.5552   31.3499 C.ar    1  UNL1        0.0062
     27 C          -5.4405   -9.3827   31.9287 C.ar    1  UNL1       -0.0025
     28 C          -6.9917  -11.7950   29.4517 C.2     1  UNL1        0.3380
     29 O          -8.1723  -12.1367   29.7285 O.2     1  UNL1       -0.2451
     30 O          -6.2460  -12.6129   28.6033 O.3     1  UNL1       -0.4771
     31 H          -5.2644  -12.4569   28.4158 H       1  UNL1        0.2954
     32 C         -11.4342  -13.5275   34.1235 C.3     1  UNL1        0.4186
     33 F         -10.7095  -13.9559   35.2224 F       1  UNL1       -0.1659
     34 F         -12.6786  -13.0977   34.5452 F       1  UNL1       -0.1659
     35 F         -11.5950  -14.6025   33.2665 F       1  UNL1       -0.1659
@<TRIPOS>BOND
     1    20    21    1
     2    21    16    1
     3    16    17   am
     4    17    18    2
     5    17     1    1
     6     1     2   ar
     7     2     3   ar
     8     3     4   ar
     9     4     5   ar
    10     5     6   ar
    11     6     7    1
    12     7     8    1
    13     8     9   ar
    14     9    10   ar
    15    10    11   ar
    16    11    32    1
    17    32    33    1
    18    32    34    1
    19    32    35    1
    20    11    12   ar
    21    12    13   ar
    22    13    14    1
    23    14    15    1
    24    21    22    1
    25    22    23   ar
    26    23    24   ar
    27    24    25   ar
    28    25    28    1
    29    28    29    2
    30    28    30    1
    31    25    26   ar
    32    26    27   ar
    33     6     1   ar
    34    13     8   ar
    35    27    22   ar
    36    15     5    1
    37    16    19    1
    38    30    31    1
@<TRIPOS>MOLECULE
*****
 35 38 0 0 0
SMALL
GASTEIGER

@<TRIPOS>ATOM
      1 C          -8.6505   -8.2675   31.6375 C.ar    1  UNL1        0.0875
      2 C          -8.7832   -7.1618   30.7792 C.ar    1  UNL1        0.0076
      3 C          -9.6275   -7.2163   29.6746 C.ar    1  UNL1        0.0000
      4 C         -10.3469   -8.3752   29.4039 C.ar    1  UNL1       -0.0012
      5 C         -10.2233   -9.5003   30.2343 C.ar    1  UNL1        0.0128
      6 C          -9.3806   -9.4526   31.3649 C.ar    1  UNL1        0.1455
      7 O          -9.1759  -10.5666   32.1953 O.3     1  UNL1       -0.4540
      8 C         -10.0746  -11.5519   32.6498 C.ar    1  UNL1        0.1412
      9 C          -9.5902  -12.3767   33.6729 C.ar    1  UNL1        0.0371
     10 C         -10.4023  -13.3319   34.2808 C.ar    1  UNL1        0.0070
     11 C         -11.7254  -13.5066   33.8596 C.ar    1  UNL1        0.0713
     12 C         -12.2220  -12.6964   32.8286 C.ar    1  UNL1        0.0026
     13 C         -11.4061  -11.7440   32.1870 C.ar    1  UNL1        0.0126
     14 C         -12.0163  -10.9699   31.0487 C.3     1  UNL1        0.0342
     15 C         -11.0181  -10.7277   29.9246 C.3     1  UNL1        0.0342
     16 N          -6.8329   -7.0575   32.9557 N.am    1  UNL1       -0.2986
     17 C          -7.7573   -8.1435   32.8204 C.2     1  UNL1        0.2490
     18 O          -7.8070   -9.0110   33.7339 O.2     1  UNL1       -0.2700
     19 H          -7.1291   -6.2457   33.5431 H       1  UNL1        0.1500
     20 C          -4.5296   -7.7126   33.6435 C.3     1  UNL1        0.0262
     21 C          -5.4266   -7.1351   32.5394 C.3     1  UNL1        0.0944
     22 C          -5.2932   -7.8910   31.2316 C.ar    1  UNL1       -0.0045
     23 C          -5.5192   -7.2244   30.0159 C.ar    1  UNL1       -0.0025
     24 C          -5.4666   -7.9149   28.8026 C.ar    1  UNL1        0.0062
     25 C          -5.1846   -9.2912   28.7762 C.ar    1  UNL1        0.0754
     26 C          -4.9503   -9.9571   29.9917 C.ar    1  UNL1        0.0062
     27 C          -4.9992   -9.2651   31.2044 C.ar    1  UNL1       -0.0025
     28 C          -5.1747  -10.0496   27.5011 C.2     1  UNL1        0.3380
     29 O          -4.6082  -11.1736   27.4478 O.2     1  UNL1       -0.2451
     30 O          -5.7711   -9.5518   26.3430 O.3     1  UNL1       -0.4771
     31 H          -6.1562   -8.6184   26.2833 H       1  UNL1        0.2954
     32 C         -12.6360  -14.4807   34.5646 C.3     1  UNL1        0.4186
     33 F         -13.6551  -14.9010   33.7273 F       1  UNL1       -0.1659
     34 F         -11.9014  -15.5807   34.9662 F       1  UNL1       -0.1659
     35 F         -13.2079  -13.8895   35.6779 F       1  UNL1       -0.1659
@<TRIPOS>BOND
     1    20    21    1
     2    21    16    1
     3    16    17   am
     4    17    18    2
     5    17     1    1
     6     1     2   ar
     7     2     3   ar
     8     3     4   ar
     9     4     5   ar
    10     5     6   ar
    11     6     7    1
    12     7     8    1
    13     8     9   ar
    14     9    10   ar
    15    10    11   ar
    16    11    32    1
    17    32    33    1
    18    32    34    1
    19    32    35    1
    20    11    12   ar
    21    12    13   ar
    22    13    14    1
    23    14    15    1
    24    21    22    1
    25    22    23   ar
    26    23    24   ar
    27    24    25   ar
    28    25    28    1
    29    28    29    2
    30    28    30    1
    31    25    26   ar
    32    26    27   ar
    33     6     1   ar
    34    13     8   ar
    35    27    22   ar
    36    15     5    1
    37    16    19    1
    38    30    31    1
@<TRIPOS>MOLECULE
*****
 35 38 0 0 0
SMALL
GASTEIGER

@<TRIPOS>ATOM
      1 C          -5.2289   -8.4700   30.3098 C.ar    1  UNL1        0.0875
      2 C          -4.5547   -8.1929   29.1074 C.ar    1  UNL1        0.0076
      3 C          -4.5070   -9.1357   28.0853 C.ar    1  UNL1        0.0000
      4 C          -5.1237  -10.3715   28.2478 C.ar    1  UNL1       -0.0012
      5 C          -5.7913  -10.6825   29.4429 C.ar    1  UNL1        0.0128
      6 C          -5.8580   -9.7296   30.4814 C.ar    1  UNL1        0.1455
      7 O          -6.4625  -10.0091   31.7179 O.3     1  UNL1       -0.4540
      8 C          -7.6310  -10.7329   32.0273 C.ar    1  UNL1        0.1412
      9 C          -8.0849  -10.6004   33.3456 C.ar    1  UNL1        0.0371
     10 C          -9.2782  -11.1851   33.7645 C.ar    1  UNL1        0.0070
     11 C         -10.0433  -11.9468   32.8739 C.ar    1  UNL1        0.0713
     12 C          -9.5966  -12.0985   31.5535 C.ar    1  UNL1        0.0026
     13 C          -8.3800  -11.5348   31.1218 C.ar    1  UNL1        0.0126
     14 C          -7.9589  -11.8102   29.7026 C.3     1  UNL1        0.0342
     15 C          -6.4546  -12.0145   29.5840 C.3     1  UNL1        0.0342
     16 N          -6.4880   -7.0859   32.0431 N.am    1  UNL1       -0.2986
     17 C          -5.2743   -7.4144   31.3566 C.2     1  UNL1        0.2490
     18 O          -4.2228   -6.7863   31.6558 O.2     1  UNL1       -0.2700
     19 H          -6.6410   -7.5198   32.9812 H       1  UNL1        0.1500
     20 C          -6.8514   -5.2515   30.3967 C.3     1  UNL1        0.0262
     21 C          -7.3836   -5.9984   31.6280 C.3     1  UNL1        0.0944
     22 C          -8.7964   -6.5115   31.4272 C.ar    1  UNL1       -0.0045
     23 C          -9.8485   -5.5995   31.2409 C.ar    1  UNL1       -0.0025
     24 C         -11.1668   -6.0456   31.1195 C.ar    1  UNL1        0.0062
     25 C         -11.4646   -7.4174   31.1803 C.ar    1  UNL1        0.0754
     26 C         -10.4113   -8.3310   31.3586 C.ar    1  UNL1        0.0062
     27 C          -9.0927   -7.8845   31.4759 C.ar    1  UNL1       -0.0025
     28 C         -12.8640   -7.9045   31.1039 C.2     1  UNL1        0.3380
     29 O         -13.1072   -9.1311   31.2566 O.2     1  UNL1       -0.2451
     30 O         -13.9319   -7.0421   30.8578 O.3     1  UNL1       -0.4771
     31 H         -13.8050   -6.0654   30.6275 H       1  UNL1        0.2954
     32 C         -11.3753  -12.5160   33.2945 C.3     1  UNL1        0.4186
     33 F         -11.9195  -13.2974   32.2897 F       1  UNL1       -0.1659
     34 F         -11.2012  -13.2933   34.4243 F       1  UNL1       -0.1659
     35 F         -12.2679  -11.4976   33.5809 F       1  UNL1       -0.1659
@<TRIPOS>BOND
     1    20    21    1
     2    21    16    1
     3    16    17   am
     4    17    18    2
     5    17     1    1
     6     1     2   ar
     7     2     3   ar
     8     3     4   ar
     9     4     5   ar
    10     5     6   ar
    11     6     7    1
    12     7     8    1
    13     8     9   ar
    14     9    10   ar
    15    10    11   ar
    16    11    32    1
    17    32    33    1
    18    32    34    1
    19    32    35    1
    20    11    12   ar
    21    12    13   ar
    22    13    14    1
    23    14    15    1
    24    21    22    1
    25    22    23   ar
    26    23    24   ar
    27    24    25   ar
    28    25    28    1
    29    28    29    2
    30    28    30    1
    31    25    26   ar
    32    26    27   ar
    33     6     1   ar
    34    13     8   ar
    35    27    22   ar
    36    15     5    1
    37    16    19    1
    38    30    31    1
@<TRIPOS>MOLECULE
*****
 35 38 0 0 0
SMALL
GASTEIGER

@<TRIPOS>ATOM
      1 C         -11.3146   -8.6915   30.8418 C.ar    1  UNL1        0.0875
      2 C         -12.5169   -8.4237   31.5198 C.ar    1  UNL1        0.0076
      3 C         -12.8913   -9.1769   32.6281 C.ar    1  UNL1        0.0000
      4 C         -12.0776  -10.2129   33.0737 C.ar    1  UNL1       -0.0012
      5 C         -10.8788  -10.5136   32.4080 C.ar    1  UNL1        0.0128
      6 C         -10.4819   -9.7482   31.2910 C.ar    1  UNL1        0.1455
      7 O          -9.3230  -10.0421   30.5541 O.3     1  UNL1       -0.4540
      8 C          -8.0476  -10.4660   30.9768 C.ar    1  UNL1        0.1412
      9 C          -7.0475  -10.4207   29.9974 C.ar    1  UNL1        0.0371
     10 C          -5.7213  -10.7225   30.3000 C.ar    1  UNL1        0.0070
     11 C          -5.3616  -11.1065   31.5968 C.ar    1  UNL1        0.0713
     12 C          -6.3533  -11.1678   32.5861 C.ar    1  UNL1        0.0026
     13 C          -7.7022  -10.8903   32.2901 C.ar    1  UNL1        0.0126
     14 C          -8.6987  -11.0473   33.4080 C.3     1  UNL1        0.0342
     15 C         -10.0193  -11.6253   32.9172 C.3     1  UNL1        0.0342
     16 N          -9.5872   -7.4948   29.3963 N.am    1  UNL1       -0.2986
     17 C         -10.9491   -7.8354   29.6817 C.2     1  UNL1        0.2490
     18 O         -11.8536   -7.3929   28.9229 O.2     1  UNL1       -0.2700
     19 H          -9.0914   -8.0646   28.6743 H       1  UNL1        0.1500
     20 C          -9.9505   -5.3081   30.5338 C.3     1  UNL1        0.0262
     21 C          -8.9482   -6.2568   29.8612 C.3     1  UNL1        0.0944
     22 C          -7.7587   -6.5657   30.7495 C.ar    1  UNL1       -0.0045
     23 C          -7.9662   -6.9193   32.0931 C.ar    1  UNL1       -0.0025
     24 C          -6.8840   -7.1442   32.9474 C.ar    1  UNL1        0.0062
     25 C          -5.5657   -7.0220   32.4768 C.ar    1  UNL1        0.0754
     26 C          -5.3574   -6.6762   31.1304 C.ar    1  UNL1        0.0062
     27 C          -6.4401   -6.4553   30.2756 C.ar    1  UNL1       -0.0025
     28 C          -4.4056   -7.2078   33.3829 C.2     1  UNL1        0.3380
     29 O          -3.3304   -6.5923   33.1546 O.2     1  UNL1       -0.2451
     30 O          -4.4622   -8.0569   34.4877 O.3     1  UNL1       -0.4771
     31 H          -5.2541   -8.6570   34.6770 H       1  UNL1        0.2954
     32 C          -3.9175  -11.3567   31.9534 C.3     1  UNL1        0.4186
     33 F          -3.7757  -12.5533   32.6348 F       1  UNL1       -0.1659
     34 F          -3.1652  -11.4070   30.7948 F       1  UNL1       -0.1659
     35 F          -3.4354  -10.3406   32.7603 F       1  UNL1       -0.1659
@<TRIPOS>BOND
     1    20    21    1
     2    21    16    1
     3    16    17   am
     4    17    18    2
     5    17     1    1
     6     1     2   ar
     7     2     3   ar
     8     3     4   ar
     9     4     5   ar
    10     5     6   ar
    11     6     7    1
    12     7     8    1
    13     8     9   ar
    14     9    10   ar
    15    10    11   ar
    16    11    32    1
    17    32    33    1
    18    32    34    1
    19    32    35    1
    20    11    12   ar
    21    12    13   ar
    22    13    14    1
    23    14    15    1
    24    21    22    1
    25    22    23   ar
    26    23    24   ar
    27    24    25   ar
    28    25    28    1
    29    28    29    2
    30    28    30    1
    31    25    26   ar
    32    26    27   ar
    33     6     1   ar
    34    13     8   ar
    35    27    22   ar
    36    15     5    1
    37    16    19    1
    38    30    31    1
@<TRIPOS>MOLECULE
*****
 35 38 0 0 0
SMALL
GASTEIGER

@<TRIPOS>ATOM
      1 C          -8.7688   -6.6710   29.9088 C.ar    1  UNL1        0.0875
      2 C          -8.8641   -5.2963   30.1882 C.ar    1  UNL1        0.0076
      3 C         -10.0709   -4.7352   30.5942 C.ar    1  UNL1        0.0000
      4 C         -11.2027   -5.5332   30.7212 C.ar    1  UNL1       -0.0012
      5 C         -11.1418   -6.9061   30.4345 C.ar    1  UNL1        0.0128
      6 C          -9.9207   -7.4891   30.0349 C.ar    1  UNL1        0.1455
      7 O          -9.8170   -8.8442   29.6808 O.3     1  UNL1       -0.4540
      8 C         -10.4185   -9.9890   30.2398 C.ar    1  UNL1        0.1412
      9 C          -9.8967  -11.2128   29.8017 C.ar    1  UNL1        0.0371
     10 C         -10.3328  -12.4219   30.3398 C.ar    1  UNL1        0.0070
     11 C         -11.3303  -12.4403   31.3212 C.ar    1  UNL1        0.0713
     12 C         -11.8710  -11.2242   31.7622 C.ar    1  UNL1        0.0026
     13 C         -11.4588   -9.9955   31.2102 C.ar    1  UNL1        0.0126
     14 C         -12.1472   -8.7519   31.7072 C.3     1  UNL1        0.0342
     15 C         -12.3720   -7.7404   30.5913 C.3     1  UNL1        0.0342
     16 N          -7.0615   -8.5643   29.8309 N.am    1  UNL1       -0.2986
     17 C          -7.4471   -7.2229   29.5080 C.2     1  UNL1        0.2490
     18 O          -6.6373   -6.5002   28.8666 O.2     1  UNL1       -0.2700
     19 H          -7.1877   -9.2911   29.0909 H       1  UNL1        0.1500
     20 C          -5.6747   -7.6789   31.7018 C.3     1  UNL1        0.0262
     21 C          -6.2770   -8.9164   31.0215 C.3     1  UNL1        0.0944
     22 C          -7.0985   -9.7595   31.9775 C.ar    1  UNL1       -0.0045
     23 C          -7.8347   -9.1364   32.9989 C.ar    1  UNL1       -0.0025
     24 C          -8.5459   -9.8957   33.9312 C.ar    1  UNL1        0.0062
     25 C          -8.5389  -11.2991   33.8633 C.ar    1  UNL1        0.0754
     26 C          -7.8090  -11.9230   32.8366 C.ar    1  UNL1        0.0062
     27 C          -7.1012  -11.1630   31.9022 C.ar    1  UNL1       -0.0025
     28 C          -9.2472  -12.1214   34.8749 C.2     1  UNL1        0.3380
     29 O         -10.4675  -12.3913   34.7166 O.2     1  UNL1       -0.2451
     30 O          -8.6031  -12.6053   36.0132 O.3     1  UNL1       -0.4771
     31 H          -7.6557  -12.3482   36.2571 H       1  UNL1        0.2954
     32 C         -11.7515  -13.7366   31.9671 C.3     1  UNL1        0.4186
     33 F         -11.1839  -13.8719   33.2224 F       1  UNL1       -0.1659
     34 F         -13.1282  -13.7563   32.0915 F       1  UNL1       -0.1659
     35 F         -11.3531  -14.8139   31.1947 F       1  UNL1       -0.1659
@<TRIPOS>BOND
     1    20    21    1
     2    21    16    1
     3    16    17   am
     4    17    18    2
     5    17     1    1
     6     1     2   ar
     7     2     3   ar
     8     3     4   ar
     9     4     5   ar
    10     5     6   ar
    11     6     7    1
    12     7     8    1
    13     8     9   ar
    14     9    10   ar
    15    10    11   ar
    16    11    32    1
    17    32    33    1
    18    32    34    1
    19    32    35    1
    20    11    12   ar
    21    12    13   ar
    22    13    14    1
    23    14    15    1
    24    21    22    1
    25    22    23   ar
    26    23    24   ar
    27    24    25   ar
    28    25    28    1
    29    28    29    2
    30    28    30    1
    31    25    26   ar
    32    26    27   ar
    33     6     1   ar
    34    13     8   ar
    35    27    22   ar
    36    15     5    1
    37    16    19    1
    38    30    31    1
@<TRIPOS>MOLECULE
*****
 35 38 0 0 0
SMALL
GASTEIGER

@<TRIPOS>ATOM
      1 C         -11.2565   -7.6834   31.3583 C.ar    1  UNL1        0.0875
      2 C         -12.1271   -6.5839   31.2572 C.ar    1  UNL1        0.0076
      3 C         -11.6291   -5.2955   31.0905 C.ar    1  UNL1        0.0000
      4 C         -10.2563   -5.0816   31.0292 C.ar    1  UNL1       -0.0012
      5 C          -9.3621   -6.1578   31.1424 C.ar    1  UNL1        0.0128
      6 C          -9.8555   -7.4705   31.2983 C.ar    1  UNL1        0.1455
      7 O          -9.0060   -8.5750   31.4739 O.3     1  UNL1       -0.4540
      8 C          -7.7706   -8.8892   30.8738 C.ar    1  UNL1        0.1412
      9 C          -7.3165  -10.1965   31.0895 C.ar    1  UNL1        0.0371
     10 C          -6.1575  -10.6720   30.4795 C.ar    1  UNL1        0.0070
     11 C          -5.4008   -9.8363   29.6503 C.ar    1  UNL1        0.0713
     12 C          -5.8359   -8.5211   29.4335 C.ar    1  UNL1        0.0026
     13 C          -6.9914   -8.0180   30.0628 C.ar    1  UNL1        0.0126
     14 C          -7.3369   -6.5736   29.8145 C.3     1  UNL1        0.0342
     15 C          -7.8924   -5.8982   31.0612 C.3     1  UNL1        0.0342
     16 N         -11.6041   -9.8451   32.6666 N.am    1  UNL1       -0.2986
     17 C         -11.8443   -9.0418   31.5050 C.2     1  UNL1        0.2490
     18 O         -12.5748   -9.5082   30.5894 O.2     1  UNL1       -0.2700
     19 H         -12.3348   -9.8391   33.4134 H       1  UNL1        0.1500
     20 C          -9.5854  -10.5902   33.9225 C.3     1  UNL1        0.0262
     21 C         -10.5385  -10.8525   32.7477 C.3     1  UNL1        0.0944
     22 C         -11.1218  -12.2519   32.7777 C.ar    1  UNL1       -0.0045
     23 C         -11.7976  -12.7489   31.6509 C.ar    1  UNL1       -0.0025
     24 C         -12.3997  -14.0092   31.6779 C.ar    1  UNL1        0.0062
     25 C         -12.3389  -14.8046   32.8345 C.ar    1  UNL1        0.0754
     26 C         -11.6558  -14.3113   33.9596 C.ar    1  UNL1        0.0062
     27 C         -11.0504  -13.0526   33.9306 C.ar    1  UNL1       -0.0025
     28 C         -13.0157  -16.1234   32.8971 C.2     1  UNL1        0.3380
     29 O         -14.0664  -16.2541   33.5798 O.2     1  UNL1       -0.2451
     30 O         -12.5187  -17.2394   32.2245 O.3     1  UNL1       -0.4771
     31 H         -11.6308  -17.2361   31.7401 H       1  UNL1        0.2954
     32 C          -4.1904  -10.3649   28.9221 C.3     1  UNL1        0.4186
     33 F          -3.3205   -9.3383   28.5968 F       1  UNL1       -0.1659
     34 F          -3.5327  -11.2720   29.7319 F       1  UNL1       -0.1659
     35 F          -4.5687  -10.9978   27.7506 F       1  UNL1       -0.1659
@<TRIPOS>BOND
     1    20    21    1
     2    21    16    1
     3    16    17   am
     4    17    18    2
     5    17     1    1
     6     1     2   ar
     7     2     3   ar
     8     3     4   ar
     9     4     5   ar
    10     5     6   ar
    11     6     7    1
    12     7     8    1
    13     8     9   ar
    14     9    10   ar
    15    10    11   ar
    16    11    32    1
    17    32    33    1
    18    32    34    1
    19    32    35    1
    20    11    12   ar
    21    12    13   ar
    22    13    14    1
    23    14    15    1
    24    21    22    1
    25    22    23   ar
    26    23    24   ar
    27    24    25   ar
    28    25    28    1
    29    28    29    2
    30    28    30    1
    31    25    26   ar
    32    26    27   ar
    33     6     1   ar
    34    13     8   ar
    35    27    22   ar
    36    15     5    1
    37    16    19    1
    38    30    31    1
