@<TRIPOS>MOLECULE
*****
 35 39 0 0 0
SMALL
GASTEIGER

@<TRIPOS>ATOM
      1 C         -21.4229   -7.9523   -9.6111 C.2     1  UNL1        0.2495
      2 O         -22.0163   -7.4979   -8.5953 O.2     1  UNL1       -0.2699
      3 N         -21.8057   -7.4817  -10.9212 N.am    1  UNL1       -0.2760
      4 C         -20.8482   -7.4260  -12.0338 C.3     1  UNL1        0.0954
      5 C         -21.4237   -8.1153  -13.2853 C.3     1  UNL1        0.0399
      6 C         -22.9772   -7.9953  -13.4262 C.3     1  UNL1        0.0645
      7 C         -23.4916   -6.7792  -12.6113 C.3     1  UNL1        0.0399
      8 C         -23.1445   -6.9063  -11.1161 C.3     1  UNL1        0.0954
      9 C         -23.6800   -9.3013  -12.9008 C.3     1  UNL1        0.0477
     10 C         -23.5497  -10.4197  -13.8881 C.ar    1  UNL1        0.0220
     11 C         -23.7742  -11.7691  -13.7431 C.ar    1  UNL1        0.0923
     12 N         -23.7533  -12.3320  -14.9793 N.ar    1  UNL1       -0.2534
     13 N         -23.5804  -11.3807  -15.8932 N.ar    1  UNL1       -0.1651
     14 C         -23.4500  -10.2197  -15.2292 C.ar    1  UNL1        0.1515
     15 C         -23.3634   -8.8766  -15.7824 C.2     1  UNL1        0.2650
     16 O         -23.3752   -8.6779  -17.0258 O.2     1  UNL1       -0.2684
     17 N         -23.2981   -7.7786  -14.8581 N.am    1  UNL1       -0.3023
     18 H         -23.2962   -6.8076  -15.2458 H       1  UNL1        0.1497
     19 C         -19.5347  -12.3195  -10.9358 C.ar    1  UNL1        0.2248
     20 N         -18.5903  -13.2898  -10.7798 N.ar    1  UNL1       -0.2101
     21 C         -17.6080  -13.1989   -9.8456 C.ar    1  UNL1        0.1021
     22 C         -17.5321  -12.0819   -9.0129 C.ar    1  UNL1        0.0209
     23 C         -18.4832  -11.0618   -9.1422 C.ar    1  UNL1        0.0065
     24 C         -18.4192   -9.9177   -8.3358 C.ar    1  UNL1        0.0070
     25 C         -19.3592   -8.8902   -8.4801 C.ar    1  UNL1        0.0389
     26 BR        -19.1313   -7.3218   -7.3966 Br      1  UNL1       -0.0489
     27 C         -20.3957   -9.0090   -9.4332 C.ar    1  UNL1        0.0599
     28 C         -20.4692  -10.1693  -10.2219 C.ar    1  UNL1        0.0096
     29 C         -19.5089  -11.1844  -10.1039 C.ar    1  UNL1        0.0534
     30 C         -20.3651  -13.2864  -13.0633 C.3     1  UNL1        0.2542
     31 O         -20.5134  -12.4401  -11.9303 O.3     1  UNL1       -0.4561
     32 C         -24.0590  -13.7339  -15.3321 C.3     1  UNL1        0.0867
     33 C         -22.8198  -14.6442  -15.1792 C.3     1  UNL1        0.0244
     34 C         -25.1768  -14.2457  -14.4078 C.3     1  UNL1        0.0244
     35 C         -24.5345  -13.7989  -16.7971 C.3     1  UNL1        0.0244
@<TRIPOS>BOND
     1    30    31    1
     2    31    19    1
     3    19    20   ar
     4    20    21   ar
     5    21    22   ar
     6    22    23   ar
     7    23    24   ar
     8    24    25   ar
     9    25    26    1
    10    25    27   ar
    11    27     1    1
    12     1     2    2
    13     1     3   am
    14     3     4    1
    15     4     5    1
    16     5     6    1
    17     6     7    1
    18     7     8    1
    19     6     9    1
    20     9    10    1
    21    10    11   ar
    22    11    12   ar
    23    12    32    1
    24    32    33    1
    25    32    34    1
    26    32    35    1
    27    12    13   ar
    28    13    14   ar
    29    14    15    1
    30    15    16    2
    31    15    17   am
    32    27    28   ar
    33    28    29   ar
    34    29    19   ar
    35    29    23   ar
    36     8     3    1
    37    14    10   ar
    38    17     6    1
    39    17    18    1
@<TRIPOS>MOLECULE
*****
 35 39 0 0 0
SMALL
GASTEIGER

@<TRIPOS>ATOM
      1 C         -23.5237   -7.8286  -13.3923 C.2     1  UNL1        0.2495
      2 O         -23.4315   -7.0984  -14.4164 O.2     1  UNL1       -0.2699
      3 N         -23.0943   -7.3101  -12.1151 N.am    1  UNL1       -0.2760
      4 C         -23.7021   -7.7567  -10.8546 C.3     1  UNL1        0.0954
      5 C         -22.6184   -8.1797   -9.8449 C.3     1  UNL1        0.0399
      6 C         -21.2809   -7.3772   -9.9660 C.3     1  UNL1        0.0645
      7 C         -21.5400   -6.0163  -10.6650 C.3     1  UNL1        0.0399
      8 C         -22.1281   -6.2027  -12.0763 C.3     1  UNL1        0.0954
      9 C         -20.2242   -8.1913  -10.8004 C.3     1  UNL1        0.0477
     10 C         -19.6325   -9.3010   -9.9872 C.ar    1  UNL1        0.0220
     11 C         -18.8886  -10.3919  -10.3731 C.ar    1  UNL1        0.0923
     12 N         -18.3838  -10.9716   -9.2531 N.ar    1  UNL1       -0.2534
     13 N         -18.7367  -10.2548   -8.1892 N.ar    1  UNL1       -0.1651
     14 C         -19.5011   -9.2436   -8.6352 C.ar    1  UNL1        0.1515
     15 C         -20.0291   -8.1188   -7.8779 C.2     1  UNL1        0.2650
     16 O         -19.8220   -8.0065   -6.6409 O.2     1  UNL1       -0.2684
     17 N         -20.7686   -7.1195   -8.5981 N.am    1  UNL1       -0.3023
     18 H         -21.1002   -6.2782   -8.0732 H       1  UNL1        0.1497
     19 C         -22.5421  -12.6307  -13.9989 C.ar    1  UNL1        0.2248
     20 N         -22.9808  -13.9142  -14.1323 N.ar    1  UNL1       -0.2101
     21 C         -24.3022  -14.2298  -14.1355 C.ar    1  UNL1        0.1021
     22 C         -25.2634  -13.2293  -13.9877 C.ar    1  UNL1        0.0209
     23 C         -24.8536  -11.8974  -13.8467 C.ar    1  UNL1        0.0065
     24 C         -25.7949  -10.8738  -13.6737 C.ar    1  UNL1        0.0070
     25 C         -25.3824   -9.5455  -13.5132 C.ar    1  UNL1        0.0389
     26 BR        -26.7408   -8.2290  -13.1865 Br      1  UNL1       -0.0489
     27 C         -24.0067   -9.2240  -13.5431 C.ar    1  UNL1        0.0599
     28 C         -23.0689  -10.2511  -13.7415 C.ar    1  UNL1        0.0096
     29 C         -23.4770  -11.5868  -13.8676 C.ar    1  UNL1        0.0534
     30 C         -20.2386  -13.1216  -13.2219 C.3     1  UNL1        0.2542
     31 O         -21.1697  -12.3527  -13.9727 O.3     1  UNL1       -0.4561
     32 C         -17.4333  -12.1003   -9.1775 C.3     1  UNL1        0.0867
     33 C         -15.9948  -11.6598   -9.5300 C.3     1  UNL1        0.0244
     34 C         -17.4499  -12.6683   -7.7482 C.3     1  UNL1        0.0244
     35 C         -17.8648  -13.1975  -10.1707 C.3     1  UNL1        0.0244
@<TRIPOS>BOND
     1    30    31    1
     2    31    19    1
     3    19    20   ar
     4    20    21   ar
     5    21    22   ar
     6    22    23   ar
     7    23    24   ar
     8    24    25   ar
     9    25    26    1
    10    25    27   ar
    11    27     1    1
    12     1     2    2
    13     1     3   am
    14     3     4    1
    15     4     5    1
    16     5     6    1
    17     6     7    1
    18     7     8    1
    19     6     9    1
    20     9    10    1
    21    10    11   ar
    22    11    12   ar
    23    12    32    1
    24    32    33    1
    25    32    34    1
    26    32    35    1
    27    12    13   ar
    28    13    14   ar
    29    14    15    1
    30    15    16    2
    31    15    17   am
    32    27    28   ar
    33    28    29   ar
    34    29    19   ar
    35    29    23   ar
    36     8     3    1
    37    14    10   ar
    38    17     6    1
    39    17    18    1
@<TRIPOS>MOLECULE
*****
 35 39 0 0 0
SMALL
GASTEIGER

@<TRIPOS>ATOM
      1 C         -21.8334   -8.8006   -9.6048 C.2     1  UNL1        0.2495
      2 O         -22.5959   -8.7736   -8.6007 O.2     1  UNL1       -0.2699
      3 N         -22.1015   -7.9214  -10.7181 N.am    1  UNL1       -0.2760
      4 C         -21.0258   -7.4153  -11.5810 C.3     1  UNL1        0.0954
      5 C         -21.3599   -7.6511  -13.0662 C.3     1  UNL1        0.0399
      6 C         -22.8874   -7.5864  -13.3979 C.3     1  UNL1        0.0645
      7 C         -23.6332   -6.7725  -12.3075 C.3     1  UNL1        0.0399
      8 C         -23.4622   -7.3991  -10.9109 C.3     1  UNL1        0.0954
      9 C         -23.4976   -9.0350  -13.4664 C.3     1  UNL1        0.0477
     10 C         -23.1200   -9.7207  -14.7431 C.ar    1  UNL1        0.0220
     11 C         -23.2066  -11.0452  -15.1045 C.ar    1  UNL1        0.0923
     12 N         -22.9689  -11.1311  -16.4393 N.ar    1  UNL1       -0.2534
     13 N         -22.7927   -9.9089  -16.9346 N.ar    1  UNL1       -0.1651
     14 C         -22.8780   -9.0527  -15.9024 C.ar    1  UNL1        0.1515
     15 C         -22.8760   -7.5982  -15.9429 C.2     1  UNL1        0.2650
     16 O         -22.7558   -6.9730  -17.0294 O.2     1  UNL1       -0.2684
     17 N         -23.0506   -6.8970  -14.7011 N.am    1  UNL1       -0.3023
     18 H         -23.1104   -5.8535  -14.7286 H       1  UNL1        0.1497
     19 C         -17.5999  -10.5129   -7.7238 C.ar    1  UNL1        0.2248
     20 N         -16.5814  -11.4183   -7.7494 N.ar    1  UNL1       -0.2101
     21 C         -16.5141  -12.4044   -8.6815 C.ar    1  UNL1        0.1021
     22 C         -17.5122  -12.5254   -9.6490 C.ar    1  UNL1        0.0209
     23 C         -18.5768  -11.6154   -9.6564 C.ar    1  UNL1        0.0065
     24 C         -19.6056  -11.7255  -10.6014 C.ar    1  UNL1        0.0070
     25 C         -20.6791  -10.8268  -10.5947 C.ar    1  UNL1        0.0389
     26 BR        -22.0866  -11.1179  -11.8674 Br      1  UNL1       -0.0489
     27 C         -20.7233   -9.7853   -9.6406 C.ar    1  UNL1        0.0599
     28 C         -19.6766   -9.6651   -8.7112 C.ar    1  UNL1        0.0096
     29 C         -18.6180  -10.5845   -8.6932 C.ar    1  UNL1        0.0534
     30 C         -17.7459   -9.8343   -5.3430 C.3     1  UNL1        0.2542
     31 O         -17.6454   -9.5291   -6.7281 O.3     1  UNL1       -0.4561
     32 C         -23.0678  -12.3333  -17.2926 C.3     1  UNL1        0.0867
     33 C         -23.2204  -11.9630  -18.7850 C.3     1  UNL1        0.0244
     34 C         -21.7946  -13.1769  -17.1109 C.3     1  UNL1        0.0244
     35 C         -24.2968  -13.1608  -16.8670 C.3     1  UNL1        0.0244
@<TRIPOS>BOND
     1    30    31    1
     2    31    19    1
     3    19    20   ar
     4    20    21   ar
     5    21    22   ar
     6    22    23   ar
     7    23    24   ar
     8    24    25   ar
     9    25    26    1
    10    25    27   ar
    11    27     1    1
    12     1     2    2
    13     1     3   am
    14     3     4    1
    15     4     5    1
    16     5     6    1
    17     6     7    1
    18     7     8    1
    19     6     9    1
    20     9    10    1
    21    10    11   ar
    22    11    12   ar
    23    12    32    1
    24    32    33    1
    25    32    34    1
    26    32    35    1
    27    12    13   ar
    28    13    14   ar
    29    14    15    1
    30    15    16    2
    31    15    17   am
    32    27    28   ar
    33    28    29   ar
    34    29    19   ar
    35    29    23   ar
    36     8     3    1
    37    14    10   ar
    38    17     6    1
    39    17    18    1
@<TRIPOS>MOLECULE
*****
 35 39 0 0 0
SMALL
GASTEIGER

@<TRIPOS>ATOM
      1 C         -20.8779  -11.3242  -11.1713 C.2     1  UNL1        0.2495
      2 O         -20.8635  -12.1815  -10.2465 O.2     1  UNL1       -0.2699
      3 N         -20.7186   -9.9277  -10.8413 N.am    1  UNL1       -0.2760
      4 C         -20.1059   -8.9762  -11.7779 C.3     1  UNL1        0.0954
      5 C         -20.9978   -7.7329  -11.9555 C.3     1  UNL1        0.0399
      6 C         -21.8152   -7.3426  -10.6800 C.3     1  UNL1        0.0645
      7 C         -21.1381   -7.9325   -9.4146 C.3     1  UNL1        0.0399
      8 C         -21.0414   -9.4682   -9.4826 C.3     1  UNL1        0.0954
      9 C         -23.2864   -7.8917  -10.7797 C.3     1  UNL1        0.0477
     10 C         -24.1102   -7.0629  -11.7162 C.ar    1  UNL1        0.0220
     11 C         -25.3334   -7.3165  -12.2922 C.ar    1  UNL1        0.0923
     12 N         -25.7719   -6.1664  -12.8670 N.ar    1  UNL1       -0.2534
     13 N         -24.8983   -5.1926  -12.6251 N.ar    1  UNL1       -0.1651
     14 C         -23.8854   -5.7393  -11.9316 C.ar    1  UNL1        0.1515
     15 C         -22.7471   -5.0643  -11.3267 C.2     1  UNL1        0.2650
     16 O         -22.5893   -3.8198  -11.4359 O.2     1  UNL1       -0.2684
     17 N         -21.8244   -5.8635  -10.5690 N.am    1  UNL1       -0.3023
     18 H         -21.0372   -5.3781  -10.0813 H       1  UNL1        0.1497
     19 C         -23.0722  -10.6189  -15.5394 C.ar    1  UNL1        0.2248
     20 N         -23.2998  -11.0224  -16.8211 N.ar    1  UNL1       -0.2101
     21 C         -22.7518  -12.1567  -17.3300 C.ar    1  UNL1        0.1021
     22 C         -21.9155  -12.9475  -16.5413 C.ar    1  UNL1        0.0209
     23 C         -21.6554  -12.5668  -15.2188 C.ar    1  UNL1        0.0065
     24 C         -20.8015  -13.3285  -14.4098 C.ar    1  UNL1        0.0070
     25 C         -20.5272  -12.9355  -13.0943 C.ar    1  UNL1        0.0389
     26 BR        -19.2707  -13.9909  -12.0978 Br      1  UNL1       -0.0489
     27 C         -21.1274  -11.7711  -12.5646 C.ar    1  UNL1        0.0599
     28 C         -22.0019  -11.0249  -13.3724 C.ar    1  UNL1        0.0096
     29 C         -22.2512  -11.3967  -14.7013 C.ar    1  UNL1        0.0534
     30 C         -23.0905   -8.1460  -15.3517 C.3     1  UNL1        0.2542
     31 O         -23.6346   -9.4278  -15.0636 O.3     1  UNL1       -0.4561
     32 C         -27.0837   -5.9244  -13.5023 C.3     1  UNL1        0.0867
     33 C         -27.8683   -7.2392  -13.7107 C.3     1  UNL1        0.0244
     34 C         -27.9051   -4.9852  -12.6029 C.3     1  UNL1        0.0244
     35 C         -26.8696   -5.2607  -14.8772 C.3     1  UNL1        0.0244
@<TRIPOS>BOND
     1    30    31    1
     2    31    19    1
     3    19    20   ar
     4    20    21   ar
     5    21    22   ar
     6    22    23   ar
     7    23    24   ar
     8    24    25   ar
     9    25    26    1
    10    25    27   ar
    11    27     1    1
    12     1     2    2
    13     1     3   am
    14     3     4    1
    15     4     5    1
    16     5     6    1
    17     6     7    1
    18     7     8    1
    19     6     9    1
    20     9    10    1
    21    10    11   ar
    22    11    12   ar
    23    12    32    1
    24    32    33    1
    25    32    34    1
    26    32    35    1
    27    12    13   ar
    28    13    14   ar
    29    14    15    1
    30    15    16    2
    31    15    17   am
    32    27    28   ar
    33    28    29   ar
    34    29    19   ar
    35    29    23   ar
    36     8     3    1
    37    14    10   ar
    38    17     6    1
    39    17    18    1
@<TRIPOS>MOLECULE
*****
 35 39 0 0 0
SMALL
GASTEIGER

@<TRIPOS>ATOM
      1 C         -22.0867   -7.5068   -9.2127 C.2     1  UNL1        0.2495
      2 O         -23.0047   -7.2247   -8.3953 O.2     1  UNL1       -0.2699
      3 N         -22.1848   -7.0358  -10.5739 N.am    1  UNL1       -0.2760
      4 C         -20.9917   -6.7466  -11.3806 C.3     1  UNL1        0.0954
      5 C         -21.0716   -7.4527  -12.7473 C.3     1  UNL1        0.0399
      6 C         -22.5245   -7.6015  -13.3081 C.3     1  UNL1        0.0645
      7 C         -23.4557   -6.5453  -12.6563 C.3     1  UNL1        0.0399
      8 C         -23.5050   -6.6960  -11.1243 C.3     1  UNL1        0.0954
      9 C         -23.0865   -9.0397  -13.0057 C.3     1  UNL1        0.0477
     10 C         -22.4902  -10.0578  -13.9279 C.ar    1  UNL1        0.0220
     11 C         -22.4899  -11.4318  -13.8605 C.ar    1  UNL1        0.0923
     12 N         -22.0338  -11.9090  -15.0478 N.ar    1  UNL1       -0.2534
     13 N         -21.8024  -10.8904  -15.8718 N.ar    1  UNL1       -0.1651
     14 C         -22.0735   -9.7655  -15.1887 C.ar    1  UNL1        0.1515
     15 C         -22.0934   -8.3983  -15.6865 C.2     1  UNL1        0.2650
     16 O         -21.8080   -8.1325  -16.8838 O.2     1  UNL1       -0.2684
     17 N         -22.4841   -7.3619  -14.7714 N.am    1  UNL1       -0.3023
     18 H         -22.5590   -6.3849  -15.1362 H       1  UNL1        0.1497
     19 C         -18.2912   -8.3261   -6.1606 C.ar    1  UNL1        0.2248
     20 N         -17.2652   -9.1212   -5.7451 N.ar    1  UNL1       -0.2101
     21 C         -16.9785  -10.3049   -6.3471 C.ar    1  UNL1        0.1021
     22 C         -17.7500  -10.7518   -7.4204 C.ar    1  UNL1        0.0209
     23 C         -18.8145   -9.9644   -7.8771 C.ar    1  UNL1        0.0065
     24 C         -19.6209  -10.3974   -8.9381 C.ar    1  UNL1        0.0070
     25 C         -20.6967   -9.6180   -9.3803 C.ar    1  UNL1        0.0389
     26 BR        -21.8004  -10.3406  -10.7750 Br      1  UNL1       -0.0489
     27 C         -20.9668   -8.3735   -8.7679 C.ar    1  UNL1        0.0599
     28 C         -20.1399   -7.9332   -7.7209 C.ar    1  UNL1        0.0096
     29 C         -19.0833   -8.7274   -7.2528 C.ar    1  UNL1        0.0534
     30 C         -18.5549   -7.0073   -4.0768 C.3     1  UNL1        0.2542
     31 O         -18.5697   -7.1264   -5.4937 O.3     1  UNL1       -0.4561
     32 C         -21.9670  -13.3198  -15.4816 C.3     1  UNL1        0.0867
     33 C         -23.3251  -14.0358  -15.3062 C.3     1  UNL1        0.0244
     34 C         -21.5624  -13.3643  -16.9649 C.3     1  UNL1        0.0244
     35 C         -20.9112  -14.0628  -14.6392 C.3     1  UNL1        0.0244
@<TRIPOS>BOND
     1    30    31    1
     2    31    19    1
     3    19    20   ar
     4    20    21   ar
     5    21    22   ar
     6    22    23   ar
     7    23    24   ar
     8    24    25   ar
     9    25    26    1
    10    25    27   ar
    11    27     1    1
    12     1     2    2
    13     1     3   am
    14     3     4    1
    15     4     5    1
    16     5     6    1
    17     6     7    1
    18     7     8    1
    19     6     9    1
    20     9    10    1
    21    10    11   ar
    22    11    12   ar
    23    12    32    1
    24    32    33    1
    25    32    34    1
    26    32    35    1
    27    12    13   ar
    28    13    14   ar
    29    14    15    1
    30    15    16    2
    31    15    17   am
    32    27    28   ar
    33    28    29   ar
    34    29    19   ar
    35    29    23   ar
    36     8     3    1
    37    14    10   ar
    38    17     6    1
    39    17    18    1
@<TRIPOS>MOLECULE
*****
 35 39 0 0 0
SMALL
GASTEIGER

@<TRIPOS>ATOM
      1 C         -21.8258   -8.1089  -14.3613 C.2     1  UNL1        0.2495
      2 O         -21.5117   -7.2606  -15.2401 O.2     1  UNL1       -0.2699
      3 N         -21.9916   -7.6790  -12.9931 N.am    1  UNL1       -0.2760
      4 C         -22.9157   -8.3581  -12.0751 C.3     1  UNL1        0.0954
      5 C         -22.2088   -8.7172  -10.7544 C.3     1  UNL1        0.0399
      6 C         -21.0957   -7.7042  -10.3270 C.3     1  UNL1        0.0645
      7 C         -21.3391   -6.3305  -11.0061 C.3     1  UNL1        0.0399
      8 C         -21.3331   -6.4443  -12.5421 C.3     1  UNL1        0.0954
      9 C         -19.6756   -8.2393  -10.7425 C.3     1  UNL1        0.0477
     10 C         -19.2171   -9.3271   -9.8211 C.ar    1  UNL1        0.0220
     11 C         -18.1916  -10.2347   -9.9519 C.ar    1  UNL1        0.0923
     12 N         -18.0235  -10.8519   -8.7534 N.ar    1  UNL1       -0.2534
     13 N         -18.8648  -10.3271   -7.8663 N.ar    1  UNL1       -0.1651
     14 C         -19.5945   -9.4053   -8.5172 C.ar    1  UNL1        0.1515
     15 C         -20.5629   -8.4730   -7.9600 C.2     1  UNL1        0.2650
     16 O         -20.8401   -8.4722   -6.7317 O.2     1  UNL1       -0.2684
     17 N         -21.1689   -7.5275   -8.8561 N.am    1  UNL1       -0.3023
     18 H         -21.8204   -6.8153   -8.4540 H       1  UNL1        0.1497
     19 C         -21.1964  -12.8845  -13.2705 C.ar    1  UNL1        0.2248
     20 N         -21.3117  -14.1968  -13.6198 N.ar    1  UNL1       -0.2101
     21 C         -21.8120  -14.5836  -14.8223 C.ar    1  UNL1        0.1021
     22 C         -22.2401  -13.6283  -15.7447 C.ar    1  UNL1        0.0209
     23 C         -22.1395  -12.2687  -15.4236 C.ar    1  UNL1        0.0065
     24 C         -22.5824  -11.2871  -16.3203 C.ar    1  UNL1        0.0070
     25 C         -22.4992   -9.9293  -15.9893 C.ar    1  UNL1        0.0389
     26 BR        -23.2196   -8.6658  -17.2423 Br      1  UNL1       -0.0489
     27 C         -21.9479   -9.5365  -14.7488 C.ar    1  UNL1        0.0599
     28 C         -21.4830  -10.5240  -13.8642 C.ar    1  UNL1        0.0096
     29 C         -21.5971  -11.8859  -14.1781 C.ar    1  UNL1        0.0534
     30 C         -19.6026  -13.1922  -11.3956 C.3     1  UNL1        0.2542
     31 O         -20.7012  -12.5302  -12.0093 O.3     1  UNL1       -0.4561
     32 C         -16.9682  -11.8167   -8.3814 C.3     1  UNL1        0.0867
     33 C         -16.4239  -11.5476   -6.9605 C.3     1  UNL1        0.0244
     34 C         -17.5538  -13.2380   -8.4353 C.3     1  UNL1        0.0244
     35 C         -15.7999  -11.7049   -9.3809 C.3     1  UNL1        0.0244
@<TRIPOS>BOND
     1    30    31    1
     2    31    19    1
     3    19    20   ar
     4    20    21   ar
     5    21    22   ar
     6    22    23   ar
     7    23    24   ar
     8    24    25   ar
     9    25    26    1
    10    25    27   ar
    11    27     1    1
    12     1     2    2
    13     1     3   am
    14     3     4    1
    15     4     5    1
    16     5     6    1
    17     6     7    1
    18     7     8    1
    19     6     9    1
    20     9    10    1
    21    10    11   ar
    22    11    12   ar
    23    12    32    1
    24    32    33    1
    25    32    34    1
    26    32    35    1
    27    12    13   ar
    28    13    14   ar
    29    14    15    1
    30    15    16    2
    31    15    17   am
    32    27    28   ar
    33    28    29   ar
    34    29    19   ar
    35    29    23   ar
    36     8     3    1
    37    14    10   ar
    38    17     6    1
    39    17    18    1
@<TRIPOS>MOLECULE
*****
 35 39 0 0 0
SMALL
GASTEIGER

@<TRIPOS>ATOM
      1 C         -25.8748   -4.0246  -16.1816 C.2     1  UNL1        0.2495
      2 O         -25.3970   -2.8575  -16.1972 O.2     1  UNL1       -0.2699
      3 N         -26.4133   -4.5500  -14.9494 N.am    1  UNL1       -0.2760
      4 C         -27.4996   -5.5388  -14.9391 C.3     1  UNL1        0.0954
      5 C         -27.1363   -6.7406  -14.0467 C.3     1  UNL1        0.0399
      6 C         -26.2347   -6.3792  -12.8202 C.3     1  UNL1        0.0645
      7 C         -26.3781   -4.8717  -12.4821 C.3     1  UNL1        0.0399
      8 C         -25.9696   -3.9793  -13.6692 C.3     1  UNL1        0.0954
      9 C         -24.7257   -6.6949  -13.1345 C.3     1  UNL1        0.0477
     10 C         -24.4547   -8.1659  -13.0613 C.ar    1  UNL1        0.0220
     11 C         -23.3769   -8.8982  -13.5023 C.ar    1  UNL1        0.0923
     12 N         -23.4860  -10.1524  -12.9920 N.ar    1  UNL1       -0.2534
     13 N         -24.5577  -10.2161  -12.2062 N.ar    1  UNL1       -0.1651
     14 C         -25.1498   -9.0107  -12.2540 C.ar    1  UNL1        0.1515
     15 C         -26.2840   -8.5386  -11.4741 C.2     1  UNL1        0.2650
     16 O         -26.8678   -9.2874  -10.6470 O.2     1  UNL1       -0.2684
     17 N         -26.6951   -7.1739  -11.6554 N.am    1  UNL1       -0.3023
     18 H         -27.4702   -6.8090  -11.0561 H       1  UNL1        0.1497
     19 C         -23.9995   -7.8882  -18.6204 C.ar    1  UNL1        0.2248
     20 N         -23.9370   -8.6506  -19.7485 N.ar    1  UNL1       -0.2101
     21 C         -24.6651   -8.3605  -20.8583 C.ar    1  UNL1        0.1021
     22 C         -25.5217   -7.2591  -20.8679 C.ar    1  UNL1        0.0209
     23 C         -25.6156   -6.4509  -19.7280 C.ar    1  UNL1        0.0065
     24 C         -26.4841   -5.3516  -19.7000 C.ar    1  UNL1        0.0070
     25 C         -26.5911   -4.5565  -18.5525 C.ar    1  UNL1        0.0389
     26 BR        -27.8779   -3.1320  -18.5782 Br      1  UNL1       -0.0489
     27 C         -25.8058   -4.8481  -17.4145 C.ar    1  UNL1        0.0599
     28 C         -24.9188   -5.9368  -17.4571 C.ar    1  UNL1        0.0096
     29 C         -24.8350   -6.7558  -18.5923 C.ar    1  UNL1        0.0534
     30 C         -23.0379   -9.5874  -17.0911 C.3     1  UNL1        0.2542
     31 O         -23.2529   -8.2392  -17.4887 O.3     1  UNL1       -0.4561
     32 C         -22.5055  -11.2526  -13.0980 C.3     1  UNL1        0.0867
     33 C         -21.6411  -11.3717  -11.8228 C.3     1  UNL1        0.0244
     34 C         -23.2630  -12.5730  -13.3179 C.3     1  UNL1        0.0244
     35 C         -21.5728  -10.9904  -14.2971 C.3     1  UNL1        0.0244
@<TRIPOS>BOND
     1    30    31    1
     2    31    19    1
     3    19    20   ar
     4    20    21   ar
     5    21    22   ar
     6    22    23   ar
     7    23    24   ar
     8    24    25   ar
     9    25    26    1
    10    25    27   ar
    11    27     1    1
    12     1     2    2
    13     1     3   am
    14     3     4    1
    15     4     5    1
    16     5     6    1
    17     6     7    1
    18     7     8    1
    19     6     9    1
    20     9    10    1
    21    10    11   ar
    22    11    12   ar
    23    12    32    1
    24    32    33    1
    25    32    34    1
    26    32    35    1
    27    12    13   ar
    28    13    14   ar
    29    14    15    1
    30    15    16    2
    31    15    17   am
    32    27    28   ar
    33    28    29   ar
    34    29    19   ar
    35    29    23   ar
    36     8     3    1
    37    14    10   ar
    38    17     6    1
    39    17    18    1
