@<TRIPOS>MOLECULE
*****
 40 44 0 0 0
SMALL
GASTEIGER

@<TRIPOS>ATOM
      1 C         -30.2311   49.5118  -10.9574 C.3     1  UNL1        0.0439
      2 C         -29.6070   50.8921  -10.7138 C.3     1  UNL1        0.1375
      3 C         -30.5707   52.0011  -11.1565 C.3     1  UNL1        0.0439
      4 C         -28.2208   51.0244  -11.4294 C.3     1  UNL1        0.0709
      5 C         -27.2992   51.2537  -10.2889 C.ar    1  UNL1        0.0325
      6 C         -27.9865   51.2624   -9.1005 C.ar    1  UNL1        0.1401
      7 C         -27.3342   51.4433   -7.8536 C.ar    1  UNL1        0.0888
      8 C         -25.9198   51.5859   -7.8561 C.ar    1  UNL1        0.0282
      9 C         -25.2524   51.5669   -9.0893 C.ar    1  UNL1        0.0997
     10 N         -23.9321   51.6871   -9.3155 N.ar    1  UNL1       -0.2137
     11 C         -23.8537   51.5846  -10.6714 C.ar    1  UNL1        0.1984
     12 N         -25.0509   51.4176  -11.2855 N.ar    1  UNL1       -0.3255
     13 C         -25.9203   51.4075  -10.2693 C.ar    1  UNL1        0.0755
     14 O         -29.3311   51.0423   -9.3174 O.3     1  UNL1       -0.4824
     15 H         -25.2471   51.3189  -12.3064 H       1  UNL1        0.1686
     16 C         -28.0783   51.4528   -6.5764 C.2     1  UNL1        0.2525
     17 O         -27.5472   51.9897   -5.5664 O.2     1  UNL1       -0.2697
     18 N         -29.3867   50.8611   -6.4787 N.am    1  UNL1       -0.2785
     19 H         -29.7991   50.4058   -7.3226 H       1  UNL1        0.1552
     20 C         -30.1451   50.7935   -5.2597 C.ar    1  UNL1        0.0783
     21 C         -30.1163   49.6460   -4.4469 C.ar    1  UNL1        0.0208
     22 C         -30.8531   49.5953   -3.2499 C.ar    1  UNL1        0.0728
     23 C         -31.5726   50.7314   -2.8426 C.ar    1  UNL1        0.0062
     24 C         -31.5840   51.8817   -3.6343 C.ar    1  UNL1        0.0309
     25 C         -30.8722   51.9165   -4.8355 C.ar    1  UNL1        0.1535
     26 F         -30.8967   53.0428   -5.5919 F       1  UNL1       -0.2029
     27 C         -30.7826   48.3773   -2.3634 C.3     1  UNL1        0.4186
     28 F         -31.2143   48.7128   -1.0939 F       1  UNL1       -0.1659
     29 F         -29.4840   47.9040   -2.2882 F       1  UNL1       -0.1659
     30 F         -31.5840   47.3631   -2.8589 F       1  UNL1       -0.1659
     31 N         -22.6212   51.6745  -11.3959 N.pl3   1  UNL1       -0.2816
     32 H         -22.6235   51.4066  -12.4058 H       1  UNL1        0.1551
     33 C         -21.4679   52.3431  -10.8676 C.ar    1  UNL1        0.0889
     34 C         -20.2881   51.6122  -10.6536 C.ar    1  UNL1        0.1543
     35 F         -20.2366   50.2918  -10.9616 F       1  UNL1       -0.2028
     36 C         -19.1507   52.2434  -10.1414 C.ar    1  UNL1        0.0310
     37 C         -19.1864   53.6030   -9.8255 C.ar    1  UNL1        0.0033
     38 C         -20.3627   54.3333  -10.0103 C.ar    1  UNL1        0.0128
     39 C         -21.5075   53.7111  -10.5231 C.ar    1  UNL1        0.0733
     40 CL        -22.9901   54.6507  -10.6478 Cl      1  UNL1       -0.0809
@<TRIPOS>BOND
     1     1     2    1
     2     2     3    1
     3     2     4    1
     4     4     5    1
     5     5     6   ar
     6     6     7   ar
     7     7    16    1
     8    16    17    2
     9    16    18   am
    10    18    20    1
    11    20    21   ar
    12    21    22   ar
    13    22    27    1
    14    27    28    1
    15    27    29    1
    16    27    30    1
    17    22    23   ar
    18    23    24   ar
    19    24    25   ar
    20    25    26    1
    21     7     8   ar
    22     8     9   ar
    23     9    10   ar
    24    10    11   ar
    25    11    31    1
    26    31    33    1
    27    33    34   ar
    28    34    35    1
    29    34    36   ar
    30    36    37   ar
    31    37    38   ar
    32    38    39   ar
    33    39    40    1
    34    11    12   ar
    35    12    13   ar
    36     6    14    1
    37    14     2    1
    38    13     5   ar
    39    25    20   ar
    40    13     9   ar
    41    39    33   ar
    42    18    19    1
    43    31    32    1
    44    12    15    1
@<TRIPOS>MOLECULE
*****
 40 44 0 0 0
SMALL
GASTEIGER

@<TRIPOS>ATOM
      1 C         -29.4736   52.3683  -10.8637 C.3     1  UNL1        0.0439
      2 C         -28.5109   51.2104  -11.1580 C.3     1  UNL1        0.1375
      3 C         -28.4552   50.9305  -12.6657 C.3     1  UNL1        0.0439
      4 C         -28.9043   49.9251  -10.3554 C.3     1  UNL1        0.0709
      5 C         -27.7025   49.7002   -9.5139 C.ar    1  UNL1        0.0325
      6 C         -26.7521   50.6615   -9.7540 C.ar    1  UNL1        0.1401
      7 C         -25.5134   50.6861   -9.0628 C.ar    1  UNL1        0.0888
      8 C         -25.2836   49.6933   -8.0717 C.ar    1  UNL1        0.0282
      9 C         -26.2799   48.7314   -7.8514 C.ar    1  UNL1        0.0997
     10 N         -26.2647   47.7133   -6.9728 N.ar    1  UNL1       -0.2137
     11 C         -27.4754   47.1248   -7.1809 C.ar    1  UNL1        0.1984
     12 N         -28.2240   47.7203   -8.1418 N.ar    1  UNL1       -0.3255
     13 C         -27.4521   48.7329   -8.5512 C.ar    1  UNL1        0.0755
     14 O         -27.2014   51.5608  -10.6989 O.3     1  UNL1       -0.4824
     15 H         -29.1753   47.4535   -8.4800 H       1  UNL1        0.1686
     16 C         -24.4925   51.7224   -9.3251 C.2     1  UNL1        0.2525
     17 O         -24.8681   52.9083   -9.5326 O.2     1  UNL1       -0.2697
     18 N         -23.0918   51.3918   -9.3457 N.am    1  UNL1       -0.2785
     19 H         -22.8048   50.4005   -9.1899 H       1  UNL1        0.1552
     20 C         -22.0508   52.3382   -9.6399 C.ar    1  UNL1        0.0783
     21 C         -21.1459   52.7571   -8.6479 C.ar    1  UNL1        0.0208
     22 C         -20.1236   53.6746   -8.9499 C.ar    1  UNL1        0.0728
     23 C         -19.9780   54.1231  -10.2735 C.ar    1  UNL1        0.0062
     24 C         -20.8591   53.6907  -11.2669 C.ar    1  UNL1        0.0309
     25 C         -21.8890   52.8003  -10.9552 C.ar    1  UNL1        0.1535
     26 F         -22.7361   52.3927  -11.9338 F       1  UNL1       -0.2029
     27 C         -19.1319   54.0854   -7.8906 C.3     1  UNL1        0.4186
     28 F         -19.6909   53.8861   -6.6421 F       1  UNL1       -0.1659
     29 F         -18.7982   55.4218   -8.0277 F       1  UNL1       -0.1659
     30 F         -17.9709   53.3379   -7.9894 F       1  UNL1       -0.1659
     31 N         -27.9149   45.9602   -6.4720 N.pl3   1  UNL1       -0.2816
     32 H         -28.0301   45.0715   -7.0093 H       1  UNL1        0.1551
     33 C         -27.9581   45.9048   -5.0397 C.ar    1  UNL1        0.0889
     34 C         -26.7847   45.6066   -4.3281 C.ar    1  UNL1        0.1543
     35 F         -25.6198   45.3920   -4.9899 F       1  UNL1       -0.2028
     36 C         -26.8025   45.5493   -2.9315 C.ar    1  UNL1        0.0310
     37 C         -27.9923   45.7740   -2.2362 C.ar    1  UNL1        0.0033
     38 C         -29.1705   46.0458   -2.9356 C.ar    1  UNL1        0.0128
     39 C         -29.1638   46.1060   -4.3345 C.ar    1  UNL1        0.0733
     40 CL        -30.6909   46.3571   -5.1721 Cl      1  UNL1       -0.0809
@<TRIPOS>BOND
     1     1     2    1
     2     2     3    1
     3     2     4    1
     4     4     5    1
     5     5     6   ar
     6     6     7   ar
     7     7    16    1
     8    16    17    2
     9    16    18   am
    10    18    20    1
    11    20    21   ar
    12    21    22   ar
    13    22    27    1
    14    27    28    1
    15    27    29    1
    16    27    30    1
    17    22    23   ar
    18    23    24   ar
    19    24    25   ar
    20    25    26    1
    21     7     8   ar
    22     8     9   ar
    23     9    10   ar
    24    10    11   ar
    25    11    31    1
    26    31    33    1
    27    33    34   ar
    28    34    35    1
    29    34    36   ar
    30    36    37   ar
    31    37    38   ar
    32    38    39   ar
    33    39    40    1
    34    11    12   ar
    35    12    13   ar
    36     6    14    1
    37    14     2    1
    38    13     5   ar
    39    25    20   ar
    40    13     9   ar
    41    39    33   ar
    42    18    19    1
    43    31    32    1
    44    12    15    1
@<TRIPOS>MOLECULE
*****
 40 44 0 0 0
SMALL
GASTEIGER

@<TRIPOS>ATOM
      1 C         -29.6668   47.9956   -9.9297 C.3     1  UNL1        0.0439
      2 C         -29.3061   49.4033   -9.4375 C.3     1  UNL1        0.1375
      3 C         -30.5662   50.2723   -9.3306 C.3     1  UNL1        0.0439
      4 C         -28.2317   50.0710  -10.3600 C.3     1  UNL1        0.0709
      5 C         -27.1014   50.2843   -9.4221 C.ar    1  UNL1        0.0325
      6 C         -27.4199   49.8355   -8.1643 C.ar    1  UNL1        0.1401
      7 C         -26.5025   49.9052   -7.0843 C.ar    1  UNL1        0.0888
      8 C         -25.2071   50.4304   -7.3433 C.ar    1  UNL1        0.0282
      9 C         -24.9174   50.8739   -8.6416 C.ar    1  UNL1        0.0997
     10 N         -23.7673   51.4023   -9.0963 N.ar    1  UNL1       -0.2137
     11 C         -24.0460   51.6325  -10.4095 C.ar    1  UNL1        0.1984
     12 N         -25.3028   51.2831  -10.7795 N.ar    1  UNL1       -0.3255
     13 C         -25.8355   50.8051   -9.6497 C.ar    1  UNL1        0.0755
     14 O         -28.6940   49.3067   -8.1474 O.3     1  UNL1       -0.4824
     15 H         -25.7475   51.3656  -11.7207 H       1  UNL1        0.1686
     16 C         -26.8499   49.4217   -5.7314 C.2     1  UNL1        0.2525
     17 O         -26.4677   50.0868   -4.7303 O.2     1  UNL1       -0.2697
     18 N         -27.6104   48.2131   -5.5510 N.am    1  UNL1       -0.2785
     19 H         -27.9003   47.6687   -6.3930 H       1  UNL1        0.1552
     20 C         -27.9426   47.6613   -4.2661 C.ar    1  UNL1        0.0783
     21 C         -28.8793   48.2881   -3.4245 C.ar    1  UNL1        0.0208
     22 C         -29.2055   47.7328   -2.1742 C.ar    1  UNL1        0.0728
     23 C         -28.6286   46.5075   -1.7999 C.ar    1  UNL1        0.0062
     24 C         -27.7167   45.8692   -2.6432 C.ar    1  UNL1        0.0309
     25 C         -27.3761   46.4392   -3.8719 C.ar    1  UNL1        0.1535
     26 F         -26.4870   45.8048   -4.6770 F       1  UNL1       -0.2029
     27 C         -30.2423   48.3886   -1.2970 C.3     1  UNL1        0.4186
     28 F         -30.7736   49.4799   -1.9586 F       1  UNL1       -0.1659
     29 F         -29.6758   48.8136   -0.1077 F       1  UNL1       -0.1659
     30 F         -31.2626   47.5023   -0.9972 F       1  UNL1       -0.1659
     31 N         -23.1093   52.2200  -11.3201 N.pl3   1  UNL1       -0.2816
     32 H         -23.4345   52.4360  -12.2893 H       1  UNL1        0.1551
     33 C         -21.8462   52.7446  -10.8889 C.ar    1  UNL1        0.0889
     34 C         -20.7345   51.8894  -10.8204 C.ar    1  UNL1        0.1543
     35 F         -20.8521   50.5855  -11.1767 F       1  UNL1       -0.2028
     36 C         -19.4928   52.3792  -10.4050 C.ar    1  UNL1        0.0310
     37 C         -19.3547   53.7201  -10.0411 C.ar    1  UNL1        0.0033
     38 C         -20.4601   54.5730  -10.0809 C.ar    1  UNL1        0.0128
     39 C         -21.7084   54.0930  -10.4960 C.ar    1  UNL1        0.0733
     40 CL        -23.0892   55.1823  -10.4379 Cl      1  UNL1       -0.0809
@<TRIPOS>BOND
     1     1     2    1
     2     2     3    1
     3     2     4    1
     4     4     5    1
     5     5     6   ar
     6     6     7   ar
     7     7    16    1
     8    16    17    2
     9    16    18   am
    10    18    20    1
    11    20    21   ar
    12    21    22   ar
    13    22    27    1
    14    27    28    1
    15    27    29    1
    16    27    30    1
    17    22    23   ar
    18    23    24   ar
    19    24    25   ar
    20    25    26    1
    21     7     8   ar
    22     8     9   ar
    23     9    10   ar
    24    10    11   ar
    25    11    31    1
    26    31    33    1
    27    33    34   ar
    28    34    35    1
    29    34    36   ar
    30    36    37   ar
    31    37    38   ar
    32    38    39   ar
    33    39    40    1
    34    11    12   ar
    35    12    13   ar
    36     6    14    1
    37    14     2    1
    38    13     5   ar
    39    25    20   ar
    40    13     9   ar
    41    39    33   ar
    42    18    19    1
    43    31    32    1
    44    12    15    1
@<TRIPOS>MOLECULE
*****
 40 44 0 0 0
SMALL
GASTEIGER

@<TRIPOS>ATOM
      1 C         -29.7232   48.3427  -10.3103 C.3     1  UNL1        0.0439
      2 C         -29.3176   49.7502   -9.8539 C.3     1  UNL1        0.1375
      3 C         -30.5218   50.6996   -9.9116 C.3     1  UNL1        0.0439
      4 C         -28.1196   50.2995  -10.6990 C.3     1  UNL1        0.0709
      5 C         -27.0704   50.4936   -9.6674 C.ar    1  UNL1        0.0325
      6 C         -27.5344   50.1342   -8.4262 C.ar    1  UNL1        0.1401
      7 C         -26.7195   50.2060   -7.2670 C.ar    1  UNL1        0.0888
      8 C         -25.3737   50.6357   -7.4241 C.ar    1  UNL1        0.0282
      9 C         -24.9349   50.9894   -8.7082 C.ar    1  UNL1        0.0997
     10 N         -23.7147   51.4207   -9.0741 N.ar    1  UNL1       -0.2137
     11 C         -23.8534   51.5959  -10.4177 C.ar    1  UNL1        0.1984
     12 N         -25.0904   51.3048  -10.8905 N.ar    1  UNL1       -0.3255
     13 C         -25.7571   50.9225   -9.7960 C.ar    1  UNL1        0.0755
     14 O         -28.8367   49.6864   -8.5074 O.3     1  UNL1       -0.4824
     15 H         -25.4385   51.3633  -11.8733 H       1  UNL1        0.1686
     16 C         -27.2234   49.8189   -5.9324 C.2     1  UNL1        0.2525
     17 O         -26.5655   50.1580   -4.9113 O.2     1  UNL1       -0.2697
     18 N         -28.4429   49.0673   -5.7920 N.am    1  UNL1       -0.2785
     19 H         -28.9613   48.7813   -6.6516 H       1  UNL1        0.1552
     20 C         -28.9650   48.6182   -4.5305 C.ar    1  UNL1        0.0783
     21 C         -28.5084   47.4282   -3.9355 C.ar    1  UNL1        0.0208
     22 C         -29.0178   47.0044   -2.6950 C.ar    1  UNL1        0.0728
     23 C         -29.9471   47.8177   -2.0247 C.ar    1  UNL1        0.0062
     24 C         -30.3848   49.0123   -2.6004 C.ar    1  UNL1        0.0309
     25 C         -29.8955   49.4145   -3.8452 C.ar    1  UNL1        0.1535
     26 F         -30.3340   50.5779   -4.3890 F       1  UNL1       -0.2029
     27 C         -28.4916   45.7497   -2.0444 C.3     1  UNL1        0.4186
     28 F         -27.1116   45.8088   -1.9917 F       1  UNL1       -0.1659
     29 F         -28.8682   44.6312   -2.7677 F       1  UNL1       -0.1659
     30 F         -28.9869   45.6194   -0.7582 F       1  UNL1       -0.1659
     31 N         -22.7985   52.0744  -11.2605 N.pl3   1  UNL1       -0.2816
     32 H         -22.9222   51.9978  -12.2951 H       1  UNL1        0.1551
     33 C         -21.7147   52.8674  -10.7575 C.ar    1  UNL1        0.0889
     34 C         -21.9311   54.2257  -10.4742 C.ar    1  UNL1        0.1543
     35 F         -23.1580   54.7752  -10.6576 F       1  UNL1       -0.2028
     36 C         -20.8900   55.0175   -9.9811 C.ar    1  UNL1        0.0310
     37 C         -19.6235   54.4648   -9.7812 C.ar    1  UNL1        0.0033
     38 C         -19.3910   53.1212  -10.0843 C.ar    1  UNL1        0.0128
     39 C         -20.4268   52.3188  -10.5783 C.ar    1  UNL1        0.0733
     40 CL        -20.0599   50.6593  -11.0342 Cl      1  UNL1       -0.0809
@<TRIPOS>BOND
     1     1     2    1
     2     2     3    1
     3     2     4    1
     4     4     5    1
     5     5     6   ar
     6     6     7   ar
     7     7    16    1
     8    16    17    2
     9    16    18   am
    10    18    20    1
    11    20    21   ar
    12    21    22   ar
    13    22    27    1
    14    27    28    1
    15    27    29    1
    16    27    30    1
    17    22    23   ar
    18    23    24   ar
    19    24    25   ar
    20    25    26    1
    21     7     8   ar
    22     8     9   ar
    23     9    10   ar
    24    10    11   ar
    25    11    31    1
    26    31    33    1
    27    33    34   ar
    28    34    35    1
    29    34    36   ar
    30    36    37   ar
    31    37    38   ar
    32    38    39   ar
    33    39    40    1
    34    11    12   ar
    35    12    13   ar
    36     6    14    1
    37    14     2    1
    38    13     5   ar
    39    25    20   ar
    40    13     9   ar
    41    39    33   ar
    42    18    19    1
    43    31    32    1
    44    12    15    1
@<TRIPOS>MOLECULE
*****
 40 44 0 0 0
SMALL
GASTEIGER

@<TRIPOS>ATOM
      1 C         -29.7243   48.9796  -11.3410 C.3     1  UNL1        0.0439
      2 C         -29.3806   49.8338  -10.1138 C.3     1  UNL1        0.1375
      3 C         -30.6481   50.4804   -9.5395 C.3     1  UNL1        0.0439
      4 C         -28.2975   50.9114  -10.4555 C.3     1  UNL1        0.0709
      5 C         -27.1824   50.5336   -9.5518 C.ar    1  UNL1        0.0325
      6 C         -27.5161   49.4357   -8.7981 C.ar    1  UNL1        0.1401
      7 C         -26.6150   48.8589   -7.8662 C.ar    1  UNL1        0.0888
      8 C         -25.3197   49.4326   -7.7492 C.ar    1  UNL1        0.0282
      9 C         -25.0142   50.5501   -8.5393 C.ar    1  UNL1        0.0997
     10 N         -23.8613   51.2412   -8.5815 N.ar    1  UNL1       -0.2137
     11 C         -24.1225   52.1958   -9.5174 C.ar    1  UNL1        0.1984
     12 N         -25.3712   52.1319  -10.0416 N.ar    1  UNL1       -0.3255
     13 C         -25.9170   51.0856   -9.4123 C.ar    1  UNL1        0.0755
     14 O         -28.7867   49.0002   -9.1134 O.3     1  UNL1       -0.4824
     15 H         -25.8027   52.7499  -10.7644 H       1  UNL1        0.1686
     16 C         -26.9788   47.6773   -7.0560 C.2     1  UNL1        0.2525
     17 O         -27.2347   46.5913   -7.6439 O.2     1  UNL1       -0.2697
     18 N         -27.0426   47.7566   -5.6203 N.am    1  UNL1       -0.2785
     19 H         -26.8451   48.6703   -5.1560 H       1  UNL1        0.1552
     20 C         -27.4341   46.6619   -4.7753 C.ar    1  UNL1        0.0783
     21 C         -28.7614   46.5237   -4.3306 C.ar    1  UNL1        0.0208
     22 C         -29.1359   45.4419   -3.5137 C.ar    1  UNL1        0.0728
     23 C         -28.1791   44.4632   -3.1957 C.ar    1  UNL1        0.0062
     24 C         -26.8660   44.5835   -3.6555 C.ar    1  UNL1        0.0309
     25 C         -26.4935   45.6743   -4.4441 C.ar    1  UNL1        0.1535
     26 F         -25.2124   45.7745   -4.8801 F       1  UNL1       -0.2029
     27 C         -30.5701   45.2784   -3.0768 C.3     1  UNL1        0.4186
     28 F         -30.6206   45.2103   -1.6971 F       1  UNL1       -0.1659
     29 F         -31.1116   44.1197   -3.6062 F       1  UNL1       -0.1659
     30 F         -31.3378   46.3484   -3.5039 F       1  UNL1       -0.1659
     31 N         -23.1766   53.2018   -9.8984 N.pl3   1  UNL1       -0.2816
     32 H         -23.4437   54.2033   -9.7669 H       1  UNL1        0.1551
     33 C         -21.8113   52.8926  -10.2094 C.ar    1  UNL1        0.0889
     34 C         -20.9645   52.4232   -9.1922 C.ar    1  UNL1        0.1543
     35 F         -21.4400   52.2472   -7.9337 F       1  UNL1       -0.2028
     36 C         -19.6304   52.1133   -9.4725 C.ar    1  UNL1        0.0310
     37 C         -19.1282   52.2833  -10.7641 C.ar    1  UNL1        0.0033
     38 C         -19.9551   52.7741  -11.7772 C.ar    1  UNL1        0.0128
     39 C         -21.2931   53.0871  -11.5075 C.ar    1  UNL1        0.0733
     40 CL        -22.2669   53.7911  -12.7931 Cl      1  UNL1       -0.0809
@<TRIPOS>BOND
     1     1     2    1
     2     2     3    1
     3     2     4    1
     4     4     5    1
     5     5     6   ar
     6     6     7   ar
     7     7    16    1
     8    16    17    2
     9    16    18   am
    10    18    20    1
    11    20    21   ar
    12    21    22   ar
    13    22    27    1
    14    27    28    1
    15    27    29    1
    16    27    30    1
    17    22    23   ar
    18    23    24   ar
    19    24    25   ar
    20    25    26    1
    21     7     8   ar
    22     8     9   ar
    23     9    10   ar
    24    10    11   ar
    25    11    31    1
    26    31    33    1
    27    33    34   ar
    28    34    35    1
    29    34    36   ar
    30    36    37   ar
    31    37    38   ar
    32    38    39   ar
    33    39    40    1
    34    11    12   ar
    35    12    13   ar
    36     6    14    1
    37    14     2    1
    38    13     5   ar
    39    25    20   ar
    40    13     9   ar
    41    39    33   ar
    42    18    19    1
    43    31    32    1
    44    12    15    1
@<TRIPOS>MOLECULE
*****
 40 44 0 0 0
SMALL
GASTEIGER

@<TRIPOS>ATOM
      1 C         -29.6543   52.4174  -11.0889 C.3     1  UNL1        0.0439
      2 C         -28.9546   51.0521  -11.0696 C.3     1  UNL1        0.1375
      3 C         -29.2560   50.2777  -12.3596 C.3     1  UNL1        0.0439
      4 C         -29.3561   50.2245   -9.8027 C.3     1  UNL1        0.0709
      5 C         -28.0517   50.0461   -9.1177 C.ar    1  UNL1        0.0325
      6 C         -27.0418   50.6470   -9.8275 C.ar    1  UNL1        0.1401
      7 C         -25.6962   50.6394   -9.3776 C.ar    1  UNL1        0.0888
      8 C         -25.4130   50.0118   -8.1339 C.ar    1  UNL1        0.0282
      9 C         -26.4716   49.4133   -7.4355 C.ar    1  UNL1        0.0997
     10 N         -26.4231   48.7701   -6.2555 N.ar    1  UNL1       -0.2137
     11 C         -27.7235   48.4162   -6.0577 C.ar    1  UNL1        0.1984
     12 N         -28.5603   48.7989   -7.0535 N.ar    1  UNL1       -0.3255
     13 C         -27.7508   49.4279   -7.9123 C.ar    1  UNL1        0.0755
     14 O         -27.5412   51.2508  -10.9630 O.3     1  UNL1       -0.4824
     15 H         -29.5898   48.6418   -7.1307 H       1  UNL1        0.1686
     16 C         -24.6118   51.2869  -10.1454 C.2     1  UNL1        0.2525
     17 O         -24.6285   51.2121  -11.4042 O.2     1  UNL1       -0.2697
     18 N         -23.5509   51.9921   -9.4755 N.am    1  UNL1       -0.2785
     19 H         -23.5470   52.0254   -8.4322 H       1  UNL1        0.1552
     20 C         -22.4423   52.6035  -10.1559 C.ar    1  UNL1        0.0783
     21 C         -21.2445   51.8994  -10.3752 C.ar    1  UNL1        0.0208
     22 C         -20.1703   52.5036  -11.0528 C.ar    1  UNL1        0.0728
     23 C         -20.3296   53.8025  -11.5642 C.ar    1  UNL1        0.0062
     24 C         -21.5260   54.4962  -11.3701 C.ar    1  UNL1        0.0309
     25 C         -22.5796   53.9010  -10.6729 C.ar    1  UNL1        0.1535
     26 F         -23.7339   54.5915  -10.4932 F       1  UNL1       -0.2029
     27 C         -18.9057   51.7268  -11.3209 C.3     1  UNL1        0.4186
     28 F         -18.6564   50.8815  -10.2560 F       1  UNL1       -0.1659
     29 F         -17.8308   52.5848  -11.4774 F       1  UNL1       -0.1659
     30 F         -19.0286   50.9732  -12.4757 F       1  UNL1       -0.1659
     31 N         -28.1715   47.6777   -4.9150 N.pl3   1  UNL1       -0.2816
     32 H         -29.1843   47.7277   -4.6630 H       1  UNL1        0.1551
     33 C         -27.3529   46.6937   -4.2684 C.ar    1  UNL1        0.0889
     34 C         -27.5114   45.3396   -4.6050 C.ar    1  UNL1        0.1543
     35 F         -28.4170   44.9705   -5.5456 F       1  UNL1       -0.2028
     36 C         -26.7230   44.3632   -3.9892 C.ar    1  UNL1        0.0310
     37 C         -25.7826   44.7282   -3.0239 C.ar    1  UNL1        0.0033
     38 C         -25.6351   46.0695   -2.6631 C.ar    1  UNL1        0.0128
     39 C         -26.4193   47.0558   -3.2740 C.ar    1  UNL1        0.0733
     40 CL        -26.2629   48.7178   -2.7174 Cl      1  UNL1       -0.0809
@<TRIPOS>BOND
     1     1     2    1
     2     2     3    1
     3     2     4    1
     4     4     5    1
     5     5     6   ar
     6     6     7   ar
     7     7    16    1
     8    16    17    2
     9    16    18   am
    10    18    20    1
    11    20    21   ar
    12    21    22   ar
    13    22    27    1
    14    27    28    1
    15    27    29    1
    16    27    30    1
    17    22    23   ar
    18    23    24   ar
    19    24    25   ar
    20    25    26    1
    21     7     8   ar
    22     8     9   ar
    23     9    10   ar
    24    10    11   ar
    25    11    31    1
    26    31    33    1
    27    33    34   ar
    28    34    35    1
    29    34    36   ar
    30    36    37   ar
    31    37    38   ar
    32    38    39   ar
    33    39    40    1
    34    11    12   ar
    35    12    13   ar
    36     6    14    1
    37    14     2    1
    38    13     5   ar
    39    25    20   ar
    40    13     9   ar
    41    39    33   ar
    42    18    19    1
    43    31    32    1
    44    12    15    1
@<TRIPOS>MOLECULE
*****
 40 44 0 0 0
SMALL
GASTEIGER

@<TRIPOS>ATOM
      1 C         -29.1821   52.8513  -11.5718 C.3     1  UNL1        0.0439
      2 C         -28.6667   51.4764  -11.1268 C.3     1  UNL1        0.1375
      3 C         -28.9862   50.4156  -12.1884 C.3     1  UNL1        0.0439
      4 C         -29.2481   51.0755   -9.7295 C.3     1  UNL1        0.0709
      5 C         -28.0217   50.9522   -8.9027 C.ar    1  UNL1        0.0325
      6 C         -26.9014   51.2235   -9.6484 C.ar    1  UNL1        0.1401
      7 C         -25.5980   51.1946   -9.0887 C.ar    1  UNL1        0.0888
      8 C         -25.4745   50.9048   -7.7025 C.ar    1  UNL1        0.0282
      9 C         -26.6419   50.6380   -6.9729 C.ar    1  UNL1        0.0997
     10 N         -26.7489   50.3411   -5.6656 N.ar    1  UNL1       -0.2137
     11 C         -28.0936   50.1969   -5.5039 C.ar    1  UNL1        0.1984
     12 N         -28.8118   50.3801   -6.6392 N.ar    1  UNL1       -0.3255
     13 C         -27.8771   50.6591   -7.5541 C.ar    1  UNL1        0.0755
     14 O         -27.2487   51.5434  -10.9447 O.3     1  UNL1       -0.4824
     15 H         -29.8464   50.3197   -6.7681 H       1  UNL1        0.1686
     16 C         -24.3944   51.4865   -9.8955 C.2     1  UNL1        0.2525
     17 O         -24.3138   51.0138  -11.0619 O.2     1  UNL1       -0.2697
     18 N         -23.3278   52.2950   -9.3660 N.am    1  UNL1       -0.2785
     19 H         -23.4073   52.6603   -8.3915 H       1  UNL1        0.1552
     20 C         -22.1110   52.5791  -10.0764 C.ar    1  UNL1        0.0783
     21 C         -20.8658   52.1381   -9.5932 C.ar    1  UNL1        0.0208
     22 C         -19.6827   52.4116  -10.3027 C.ar    1  UNL1        0.0728
     23 C         -19.7652   53.0799  -11.5360 C.ar    1  UNL1        0.0062
     24 C         -21.0021   53.4979  -12.0315 C.ar    1  UNL1        0.0309
     25 C         -22.1708   53.2472  -11.3091 C.ar    1  UNL1        0.1535
     26 F         -23.3632   53.6625  -11.8063 F       1  UNL1       -0.2029
     27 C         -18.3570   51.8981   -9.7993 C.3     1  UNL1        0.4186
     28 F         -17.4299   51.9513  -10.8232 F       1  UNL1       -0.1659
     29 F         -18.4749   50.5893   -9.3645 F       1  UNL1       -0.1659
     30 F         -17.9039   52.6660   -8.7403 F       1  UNL1       -0.1659
     31 N         -28.7019   49.8522   -4.2536 N.pl3   1  UNL1       -0.2816
     32 H         -29.4066   50.5105   -3.8513 H       1  UNL1        0.1551
     33 C         -28.5725   48.5482   -3.6713 C.ar    1  UNL1        0.0889
     34 C         -27.4237   48.2404   -2.9246 C.ar    1  UNL1        0.1543
     35 F         -26.4565   49.1743   -2.7418 F       1  UNL1       -0.2028
     36 C         -27.2768   46.9763   -2.3459 C.ar    1  UNL1        0.0310
     37 C         -28.2663   46.0068   -2.5200 C.ar    1  UNL1        0.0033
     38 C         -29.4008   46.2943   -3.2825 C.ar    1  UNL1        0.0128
     39 C         -29.5583   47.5574   -3.8662 C.ar    1  UNL1        0.0733
     40 CL        -30.9578   47.8389   -4.8951 Cl      1  UNL1       -0.0809
@<TRIPOS>BOND
     1     1     2    1
     2     2     3    1
     3     2     4    1
     4     4     5    1
     5     5     6   ar
     6     6     7   ar
     7     7    16    1
     8    16    17    2
     9    16    18   am
    10    18    20    1
    11    20    21   ar
    12    21    22   ar
    13    22    27    1
    14    27    28    1
    15    27    29    1
    16    27    30    1
    17    22    23   ar
    18    23    24   ar
    19    24    25   ar
    20    25    26    1
    21     7     8   ar
    22     8     9   ar
    23     9    10   ar
    24    10    11   ar
    25    11    31    1
    26    31    33    1
    27    33    34   ar
    28    34    35    1
    29    34    36   ar
    30    36    37   ar
    31    37    38   ar
    32    38    39   ar
    33    39    40    1
    34    11    12   ar
    35    12    13   ar
    36     6    14    1
    37    14     2    1
    38    13     5   ar
    39    25    20   ar
    40    13     9   ar
    41    39    33   ar
    42    18    19    1
    43    31    32    1
    44    12    15    1
@<TRIPOS>MOLECULE
*****
 40 44 0 0 0
SMALL
GASTEIGER

@<TRIPOS>ATOM
      1 C         -28.4565   49.8224  -11.4364 C.3     1  UNL1        0.0439
      2 C         -28.0699   50.8310  -10.3467 C.3     1  UNL1        0.1375
      3 C         -29.2351   51.7893  -10.0664 C.3     1  UNL1        0.0439
      4 C         -26.7699   51.6141  -10.7312 C.3     1  UNL1        0.0709
      5 C         -25.8404   51.2359   -9.6376 C.ar    1  UNL1        0.0325
      6 C         -26.4518   50.3852   -8.7502 C.ar    1  UNL1        0.1401
      7 C         -25.7728   49.8580   -7.6215 C.ar    1  UNL1        0.0888
      8 C         -24.4073   50.2096   -7.4412 C.ar    1  UNL1        0.0282
      9 C         -23.8162   51.0769   -8.3712 C.ar    1  UNL1        0.0997
     10 N         -22.5517   51.5347   -8.3856 N.ar    1  UNL1       -0.2137
     11 C         -22.5319   52.3143   -9.5023 C.ar    1  UNL1        0.1984
     12 N         -23.7139   52.3651  -10.1646 N.ar    1  UNL1       -0.3255
     13 C         -24.5105   51.5763   -9.4353 C.ar    1  UNL1        0.0755
     14 O         -27.7474   50.1231   -9.1453 O.3     1  UNL1       -0.4824
     15 H         -23.9462   52.8921  -11.0357 H       1  UNL1        0.1686
     16 C         -26.4352   48.9430   -6.6681 C.2     1  UNL1        0.2525
     17 O         -26.9716   47.8897   -7.1076 O.2     1  UNL1       -0.2697
     18 N         -26.4723   49.2422   -5.2607 N.am    1  UNL1       -0.2785
     19 H         -26.0382   50.1287   -4.9215 H       1  UNL1        0.1552
     20 C         -27.1382   48.4223   -4.2859 C.ar    1  UNL1        0.0783
     21 C         -26.5512   47.2366   -3.8085 C.ar    1  UNL1        0.0208
     22 C         -27.2067   46.4482   -2.8457 C.ar    1  UNL1        0.0728
     23 C         -28.4313   46.8919   -2.3188 C.ar    1  UNL1        0.0062
     24 C         -29.0059   48.0812   -2.7721 C.ar    1  UNL1        0.0309
     25 C         -28.3633   48.8461   -3.7481 C.ar    1  UNL1        0.1535
     26 F         -28.9381   49.9981   -4.1770 F       1  UNL1       -0.2029
     27 C         -26.5507   45.2011   -2.3082 C.3     1  UNL1        0.4186
     28 F         -26.9016   44.1245   -3.1010 F       1  UNL1       -0.1659
     29 F         -26.9598   44.9570   -1.0085 F       1  UNL1       -0.1659
     30 F         -25.1726   45.3322   -2.3099 F       1  UNL1       -0.1659
     31 N         -21.3761   53.0443   -9.9303 N.pl3   1  UNL1       -0.2816
     32 H         -21.5225   53.9653  -10.4013 H       1  UNL1        0.1551
     33 C         -20.0488   52.6881   -9.5205 C.ar    1  UNL1        0.0889
     34 C         -19.5945   53.0772   -8.2500 C.ar    1  UNL1        0.1543
     35 F         -20.4108   53.7665   -7.4136 F       1  UNL1       -0.2028
     36 C         -18.3052   52.7394   -7.8284 C.ar    1  UNL1        0.0310
     37 C         -17.4557   52.0250   -8.6754 C.ar    1  UNL1        0.0033
     38 C         -17.8887   51.6556   -9.9510 C.ar    1  UNL1        0.0128
     39 C         -19.1784   51.9884  -10.3833 C.ar    1  UNL1        0.0733
     40 CL        -19.6426   51.5840  -12.0318 Cl      1  UNL1       -0.0809
@<TRIPOS>BOND
     1     1     2    1
     2     2     3    1
     3     2     4    1
     4     4     5    1
     5     5     6   ar
     6     6     7   ar
     7     7    16    1
     8    16    17    2
     9    16    18   am
    10    18    20    1
    11    20    21   ar
    12    21    22   ar
    13    22    27    1
    14    27    28    1
    15    27    29    1
    16    27    30    1
    17    22    23   ar
    18    23    24   ar
    19    24    25   ar
    20    25    26    1
    21     7     8   ar
    22     8     9   ar
    23     9    10   ar
    24    10    11   ar
    25    11    31    1
    26    31    33    1
    27    33    34   ar
    28    34    35    1
    29    34    36   ar
    30    36    37   ar
    31    37    38   ar
    32    38    39   ar
    33    39    40    1
    34    11    12   ar
    35    12    13   ar
    36     6    14    1
    37    14     2    1
    38    13     5   ar
    39    25    20   ar
    40    13     9   ar
    41    39    33   ar
    42    18    19    1
    43    31    32    1
    44    12    15    1
