@<TRIPOS>MOLECULE
*****
 46 51 0 0 0
SMALL
GASTEIGER

@<TRIPOS>ATOM
      1 O         -28.0529   49.4946  -10.1141 O.2     1  UNL1       -0.2701
      2 C         -27.1476   49.4874   -9.2351 C.2     1  UNL1        0.2483
      3 N         -27.3618   48.7759   -8.0057 N.am    1  UNL1       -0.2945
      4 H         -26.5313   48.5269   -7.4226 H       1  UNL1        0.1501
      5 C         -25.8747   50.2039   -9.5012 C.ar    1  UNL1        0.0808
      6 C         -25.5722   50.6039  -10.8146 C.ar    1  UNL1        0.0080
      7 C         -24.3957   51.3022  -11.0949 C.ar    1  UNL1        0.0148
      8 C         -23.5000   51.6286  -10.0660 C.ar    1  UNL1        0.0502
      9 C         -23.7978   51.2358   -8.7530 C.ar    1  UNL1        0.0443
     10 C         -24.9732   50.5347   -8.4669 C.ar    1  UNL1        0.1457
     11 F         -25.2401   50.2326   -7.1722 F       1  UNL1       -0.2040
     12 N         -22.2836   52.3428  -10.3565 N.pl3   1  UNL1       -0.3040
     13 C         -20.9752   51.7655  -10.0167 C.3     1  UNL1        0.1122
     14 C         -20.1816   52.7530   -9.1535 C.3     1  UNL1        0.1122
     15 N         -20.3018   54.1291   -9.6633 N.pl3   1  UNL1       -0.3041
     16 C         -20.9817   54.3735  -10.9434 C.3     1  UNL1        0.1122
     17 C         -22.3556   53.6934  -10.9381 C.3     1  UNL1        0.1122
     18 C         -19.8150   55.2268   -8.8677 C.ar    1  UNL1        0.0480
     19 C         -19.0127   54.9880   -7.7384 C.ar    1  UNL1        0.0154
     20 C         -18.5518   56.0542   -6.9602 C.ar    1  UNL1        0.0127
     21 C         -18.8918   57.3679   -7.2977 C.ar    1  UNL1        0.0578
     22 CL        -18.3138   58.7038   -6.3191 Cl      1  UNL1       -0.0822
     23 C         -19.6957   57.6146   -8.4147 C.ar    1  UNL1        0.0127
     24 C         -20.1573   56.5507   -9.1955 C.ar    1  UNL1        0.0154
     25 C         -28.6888   48.2900   -7.6035 C.3     1  UNL1        0.1535
     26 C         -28.5938   46.8595   -7.1081 C.2     1  UNL1        0.2443
     27 O         -28.3918   46.6462   -5.8829 O.2     1  UNL1       -0.2730
     28 N         -28.5989   45.7372   -8.0072 N.am    1  UNL1       -0.2825
     29 H         -28.0926   44.8755   -7.7013 H       1  UNL1        0.1549
     30 C         -29.1893   45.7333   -9.3160 C.ar    1  UNL1        0.0535
     31 C         -28.4109   45.9325  -10.4662 C.ar    1  UNL1        0.0353
     32 C         -29.0273   45.9508  -11.7197 C.ar    1  UNL1        0.1002
     33 N         -30.3741   45.7954  -11.8198 N.ar    1  UNL1       -0.2422
     34 C         -31.1546   45.6243  -10.7199 C.ar    1  UNL1        0.1002
     35 C         -30.5773   45.6003   -9.4480 C.ar    1  UNL1        0.0353
     36 C         -29.3435   49.2279   -6.5582 C.3     1  UNL1        0.0569
     37 C         -28.4510   50.3501   -6.0961 C.ar    1  UNL1       -0.0017
     38 C         -28.4074   51.6442   -6.6085 C.ar    1  UNL1        0.0681
     39 N         -27.5121   52.3943   -5.9275 N.ar    1  UNL1       -0.3523
     40 C         -26.9805   51.5846   -4.9963 C.ar    1  UNL1        0.0563
     41 C         -26.0114   51.9113   -4.0487 C.ar    1  UNL1        0.0170
     42 C         -25.5891   50.9024   -3.1644 C.ar    1  UNL1        0.0015
     43 C         -26.1302   49.6014   -3.2534 C.ar    1  UNL1        0.0001
     44 C         -27.1026   49.2988   -4.2233 C.ar    1  UNL1        0.0012
     45 C         -27.5188   50.3251   -5.0737 C.ar    1  UNL1        0.0131
     46 H         -27.2807   53.3984   -6.0971 H       1  UNL1        0.1660
@<TRIPOS>BOND
     1     1     2    2
     2     2     3   am
     3     3    25    1
     4    25    36    1
     5    36    37    1
     6    37    38   ar
     7    38    39   ar
     8    39    40   ar
     9    40    41   ar
    10    41    42   ar
    11    42    43   ar
    12    43    44   ar
    13    44    45   ar
    14    25    26    1
    15    26    27    2
    16    26    28   am
    17    28    30    1
    18    30    31   ar
    19    31    32   ar
    20    32    33   ar
    21    33    34   ar
    22    34    35   ar
    23     2     5    1
    24     5     6   ar
    25     6     7   ar
    26     7     8   ar
    27     8    12    1
    28    12    13    1
    29    13    14    1
    30    14    15    1
    31    15    18    1
    32    18    19   ar
    33    19    20   ar
    34    20    21   ar
    35    21    22    1
    36    21    23   ar
    37    23    24   ar
    38    15    16    1
    39    16    17    1
    40     8     9   ar
    41     9    10   ar
    42    10    11    1
    43    45    37   ar
    44    35    30   ar
    45    10     5   ar
    46    45    40   ar
    47    17    12    1
    48    24    18   ar
    49     3     4    1
    50    39    46    1
    51    28    29    1
@<TRIPOS>MOLECULE
*****
 46 51 0 0 0
SMALL
GASTEIGER

@<TRIPOS>ATOM
      1 O         -21.9389   51.0941  -10.9666 O.2     1  UNL1       -0.2701
      2 C         -22.6408   51.8482  -10.2381 C.2     1  UNL1        0.2483
      3 N         -22.1924   53.1855   -9.9662 N.am    1  UNL1       -0.2945
      4 H         -22.8887   53.8848   -9.6232 H       1  UNL1        0.1501
      5 C         -23.9234   51.3376   -9.6916 C.ar    1  UNL1        0.0808
      6 C         -24.0489   51.1367   -8.3057 C.ar    1  UNL1        0.0080
      7 C         -25.2499   50.6821   -7.7564 C.ar    1  UNL1        0.0148
      8 C         -26.3578   50.4303   -8.5787 C.ar    1  UNL1        0.0502
      9 C         -26.2403   50.6325   -9.9615 C.ar    1  UNL1        0.0443
     10 C         -25.0399   51.0854  -10.5173 C.ar    1  UNL1        0.1457
     11 F         -25.0003   51.3211  -11.8520 F       1  UNL1       -0.2040
     12 N         -27.5939   49.9551   -8.0126 N.pl3   1  UNL1       -0.3040
     13 C         -28.7045   50.8819   -7.7508 C.3     1  UNL1        0.1122
     14 C         -29.1386   50.7693   -6.2848 C.3     1  UNL1        0.1122
     15 N         -29.1948   49.3645   -5.8476 N.pl3   1  UNL1       -0.3041
     16 C         -29.0046   48.2887   -6.8310 C.3     1  UNL1        0.1122
     17 C         -27.7206   48.5390   -7.6303 C.3     1  UNL1        0.1122
     18 C         -29.3643   49.0615   -4.4495 C.ar    1  UNL1        0.0480
     19 C         -28.3339   48.4371   -3.7254 C.ar    1  UNL1        0.0154
     20 C         -28.5053   48.1324   -2.3717 C.ar    1  UNL1        0.0127
     21 C         -29.7080   48.4423   -1.7293 C.ar    1  UNL1        0.0578
     22 CL        -29.9214   48.0577   -0.0313 Cl      1  UNL1       -0.0822
     23 C         -30.7413   49.0565   -2.4434 C.ar    1  UNL1        0.0127
     24 C         -30.5727   49.3634   -3.7969 C.ar    1  UNL1        0.0154
     25 C         -20.8229   53.6274  -10.2631 C.3     1  UNL1        0.1535
     26 C         -20.4712   53.3080  -11.7037 C.2     1  UNL1        0.2443
     27 O         -21.1615   53.8107  -12.6301 O.2     1  UNL1       -0.2730
     28 N         -19.4559   52.3497  -12.0483 N.am    1  UNL1       -0.2825
     29 H         -19.5628   51.8436  -12.9565 H       1  UNL1        0.1549
     30 C         -18.3455   51.9899  -11.2123 C.ar    1  UNL1        0.0535
     31 C         -18.5358   51.5940   -9.8798 C.ar    1  UNL1        0.0353
     32 C         -17.4272   51.2797   -9.0900 C.ar    1  UNL1        0.1002
     33 N         -16.1731   51.3760   -9.6058 N.ar    1  UNL1       -0.2422
     34 C         -15.9590   51.7796  -10.8863 C.ar    1  UNL1        0.1002
     35 C         -17.0408   52.1033  -11.7090 C.ar    1  UNL1        0.0353
     36 C         -20.6271   55.1286   -9.9330 C.3     1  UNL1        0.0569
     37 C         -19.8077   55.3831   -8.6947 C.ar    1  UNL1       -0.0017
     38 C         -19.2829   54.4243   -7.8319 C.ar    1  UNL1        0.0681
     39 N         -18.5708   55.0132   -6.8449 N.ar    1  UNL1       -0.3523
     40 C         -18.6489   56.3359   -7.0683 C.ar    1  UNL1        0.0563
     41 C         -18.0671   57.3542   -6.3143 C.ar    1  UNL1        0.0170
     42 C         -18.2812   58.6820   -6.7256 C.ar    1  UNL1        0.0015
     43 C         -19.0724   58.9598   -7.8615 C.ar    1  UNL1        0.0001
     44 C         -19.6517   57.9124   -8.5998 C.ar    1  UNL1        0.0012
     45 C         -19.4047   56.6034   -8.1814 C.ar    1  UNL1        0.0131
     46 H         -18.0670   54.5334   -6.0662 H       1  UNL1        0.1660
@<TRIPOS>BOND
     1     1     2    2
     2     2     3   am
     3     3    25    1
     4    25    36    1
     5    36    37    1
     6    37    38   ar
     7    38    39   ar
     8    39    40   ar
     9    40    41   ar
    10    41    42   ar
    11    42    43   ar
    12    43    44   ar
    13    44    45   ar
    14    25    26    1
    15    26    27    2
    16    26    28   am
    17    28    30    1
    18    30    31   ar
    19    31    32   ar
    20    32    33   ar
    21    33    34   ar
    22    34    35   ar
    23     2     5    1
    24     5     6   ar
    25     6     7   ar
    26     7     8   ar
    27     8    12    1
    28    12    13    1
    29    13    14    1
    30    14    15    1
    31    15    18    1
    32    18    19   ar
    33    19    20   ar
    34    20    21   ar
    35    21    22    1
    36    21    23   ar
    37    23    24   ar
    38    15    16    1
    39    16    17    1
    40     8     9   ar
    41     9    10   ar
    42    10    11    1
    43    45    37   ar
    44    35    30   ar
    45    10     5   ar
    46    45    40   ar
    47    17    12    1
    48    24    18   ar
    49     3     4    1
    50    39    46    1
    51    28    29    1
@<TRIPOS>MOLECULE
*****
 46 51 0 0 0
SMALL
GASTEIGER

@<TRIPOS>ATOM
      1 O         -28.8585   51.4121  -11.4799 O.2     1  UNL1       -0.2701
      2 C         -28.1860   51.0486  -10.4761 C.2     1  UNL1        0.2483
      3 N         -28.8285   50.3105   -9.4245 N.am    1  UNL1       -0.2945
      4 H         -28.2321   49.7694   -8.7588 H       1  UNL1        0.1501
      5 C         -26.7402   51.3808  -10.4146 C.ar    1  UNL1        0.0808
      6 C         -25.8878   50.9342  -11.4396 C.ar    1  UNL1        0.0080
      7 C         -24.5276   51.2512  -11.4253 C.ar    1  UNL1        0.0148
      8 C         -23.9904   52.0335  -10.3925 C.ar    1  UNL1        0.0502
      9 C         -24.8362   52.4853   -9.3691 C.ar    1  UNL1        0.0443
     10 C         -26.1983   52.1693   -9.3771 C.ar    1  UNL1        0.1457
     11 F         -26.9808   52.6823   -8.3957 F       1  UNL1       -0.2040
     12 N         -22.5865   52.3544  -10.3747 N.pl3   1  UNL1       -0.3040
     13 C         -21.6630   51.6323   -9.4879 C.3     1  UNL1        0.1122
     14 C         -20.8911   52.6319   -8.6189 C.3     1  UNL1        0.1122
     15 N         -20.4456   53.7947   -9.4046 N.pl3   1  UNL1       -0.3041
     16 C         -20.6281   53.7998  -10.8632 C.3     1  UNL1        0.1122
     17 C         -22.0842   53.4624  -11.2039 C.3     1  UNL1        0.1122
     18 C         -19.9013   54.9437   -8.7274 C.ar    1  UNL1        0.0480
     19 C         -19.0397   54.7815   -7.6286 C.ar    1  UNL1        0.0154
     20 C         -18.5226   55.8982   -6.9648 C.ar    1  UNL1        0.0127
     21 C         -18.8646   57.1865   -7.3872 C.ar    1  UNL1        0.0578
     22 CL        -18.2160   58.5858   -6.5519 Cl      1  UNL1       -0.0822
     23 C         -19.7271   57.3575   -8.4743 C.ar    1  UNL1        0.0127
     24 C         -20.2450   56.2429   -9.1408 C.ar    1  UNL1        0.0154
     25 C         -30.2904   50.1994   -9.3265 C.3     1  UNL1        0.1535
     26 C         -30.7913   49.0839  -10.2241 C.2     1  UNL1        0.2443
     27 O         -31.5705   49.3633  -11.1739 O.2     1  UNL1       -0.2730
     28 N         -30.5104   47.6999   -9.9528 N.am    1  UNL1       -0.2825
     29 H         -31.2078   46.9952  -10.2836 H       1  UNL1        0.1549
     30 C         -29.3809   47.2197   -9.2077 C.ar    1  UNL1        0.0535
     31 C         -29.5218   46.7540   -7.8917 C.ar    1  UNL1        0.0353
     32 C         -28.3937   46.3221   -7.1899 C.ar    1  UNL1        0.1002
     33 N         -27.1670   46.3717   -7.7736 N.ar    1  UNL1       -0.2422
     34 C         -26.9991   46.8404   -9.0387 C.ar    1  UNL1        0.1002
     35 C         -28.1015   47.2820   -9.7744 C.ar    1  UNL1        0.0353
     36 C         -30.7482   50.0173   -7.8575 C.3     1  UNL1        0.0569
     37 C         -29.9378   50.8032   -6.8599 C.ar    1  UNL1       -0.0017
     38 C         -30.3898   51.8487   -6.0589 C.ar    1  UNL1        0.0681
     39 N         -29.3969   52.2961   -5.2576 N.ar    1  UNL1       -0.3523
     40 C         -28.3178   51.5513   -5.5515 C.ar    1  UNL1        0.0563
     41 C         -27.0500   51.6405   -4.9781 C.ar    1  UNL1        0.0170
     42 C         -26.0552   50.7603   -5.4405 C.ar    1  UNL1        0.0015
     43 C         -26.3432   49.8291   -6.4619 C.ar    1  UNL1        0.0001
     44 C         -27.6299   49.7654   -7.0261 C.ar    1  UNL1        0.0012
     45 C         -28.6035   50.6362   -6.5329 C.ar    1  UNL1        0.0131
     46 H         -29.4593   53.0674   -4.5565 H       1  UNL1        0.1660
@<TRIPOS>BOND
     1     1     2    2
     2     2     3   am
     3     3    25    1
     4    25    36    1
     5    36    37    1
     6    37    38   ar
     7    38    39   ar
     8    39    40   ar
     9    40    41   ar
    10    41    42   ar
    11    42    43   ar
    12    43    44   ar
    13    44    45   ar
    14    25    26    1
    15    26    27    2
    16    26    28   am
    17    28    30    1
    18    30    31   ar
    19    31    32   ar
    20    32    33   ar
    21    33    34   ar
    22    34    35   ar
    23     2     5    1
    24     5     6   ar
    25     6     7   ar
    26     7     8   ar
    27     8    12    1
    28    12    13    1
    29    13    14    1
    30    14    15    1
    31    15    18    1
    32    18    19   ar
    33    19    20   ar
    34    20    21   ar
    35    21    22    1
    36    21    23   ar
    37    23    24   ar
    38    15    16    1
    39    16    17    1
    40     8     9   ar
    41     9    10   ar
    42    10    11    1
    43    45    37   ar
    44    35    30   ar
    45    10     5   ar
    46    45    40   ar
    47    17    12    1
    48    24    18   ar
    49     3     4    1
    50    39    46    1
    51    28    29    1
@<TRIPOS>MOLECULE
*****
 46 51 0 0 0
SMALL
GASTEIGER

@<TRIPOS>ATOM
      1 O         -28.4854   50.6169  -10.4796 O.2     1  UNL1       -0.2701
      2 C         -27.6046   50.1673   -9.6960 C.2     1  UNL1        0.2483
      3 N         -27.9632   49.1687   -8.7276 N.am    1  UNL1       -0.2945
      4 H         -27.2025   48.5986   -8.2942 H       1  UNL1        0.1501
      5 C         -26.2126   50.6724   -9.8053 C.ar    1  UNL1        0.0808
      6 C         -25.7509   51.1533  -11.0431 C.ar    1  UNL1        0.0080
      7 C         -24.4556   51.6592  -11.1739 C.ar    1  UNL1        0.0148
      8 C         -23.5961   51.7083  -10.0666 C.ar    1  UNL1        0.0502
      9 C         -24.0520   51.2336   -8.8282 C.ar    1  UNL1        0.0443
     10 C         -25.3470   50.7241   -8.6919 C.ar    1  UNL1        0.1457
     11 F         -25.7559   50.3348   -7.4590 F       1  UNL1       -0.2040
     12 N         -22.2582   52.2237  -10.2035 N.pl3   1  UNL1       -0.3040
     13 C         -21.1367   51.5993   -9.4874 C.3     1  UNL1        0.1122
     14 C         -20.3979   52.6566   -8.6589 C.3     1  UNL1        0.1122
     15 N         -20.2210   53.9061   -9.4174 N.pl3   1  UNL1       -0.3041
     16 C         -20.5943   53.9533  -10.8383 C.3     1  UNL1        0.1122
     17 C         -22.0240   53.4292  -11.0157 C.3     1  UNL1        0.1122
     18 C         -19.7512   55.0878   -8.7407 C.ar    1  UNL1        0.0480
     19 C         -18.8932   54.9809   -7.6323 C.ar    1  UNL1        0.0154
     20 C         -18.4486   56.1287   -6.9691 C.ar    1  UNL1        0.0127
     21 C         -18.8603   57.3931   -7.4016 C.ar    1  UNL1        0.0578
     22 CL        -18.3025   58.8315   -6.5671 Cl      1  UNL1       -0.0822
     23 C         -19.7197   57.5088   -8.4984 C.ar    1  UNL1        0.0127
     24 C         -20.1652   56.3631   -9.1643 C.ar    1  UNL1        0.0154
     25 C         -29.3628   48.8474   -8.4162 C.3     1  UNL1        0.1535
     26 C         -29.6349   47.3798   -8.6866 C.2     1  UNL1        0.2443
     27 O         -30.4804   47.0640   -9.5657 O.2     1  UNL1       -0.2730
     28 N         -29.0554   46.3348   -7.8865 N.am    1  UNL1       -0.2825
     29 H         -29.5931   45.4427   -7.8005 H       1  UNL1        0.1549
     30 C         -27.8300   46.4476   -7.1467 C.ar    1  UNL1        0.0535
     31 C         -26.6578   46.9287   -7.7491 C.ar    1  UNL1        0.0353
     32 C         -25.4784   46.9959   -7.0035 C.ar    1  UNL1        0.1002
     33 N         -25.4650   46.5795   -5.7094 N.ar    1  UNL1       -0.2422
     34 C         -26.5806   46.0871   -5.1085 C.ar    1  UNL1        0.1002
     35 C         -27.7803   46.0030   -5.8194 C.ar    1  UNL1        0.0353
     36 C         -29.7285   49.2518   -6.9659 C.3     1  UNL1        0.0569
     37 C         -28.8886   50.3724   -6.4107 C.ar    1  UNL1       -0.0017
     38 C         -28.9421   51.7143   -6.7788 C.ar    1  UNL1        0.0681
     39 N         -28.0687   52.4422   -6.0471 N.ar    1  UNL1       -0.3523
     40 C         -27.4550   51.5724   -5.2272 C.ar    1  UNL1        0.0563
     41 C         -26.4725   51.8562   -4.2794 C.ar    1  UNL1        0.0170
     42 C         -25.9576   50.7869   -3.5248 C.ar    1  UNL1        0.0015
     43 C         -26.4224   49.4712   -3.7397 C.ar    1  UNL1        0.0001
     44 C         -27.4104   49.2135   -4.7069 C.ar    1  UNL1        0.0012
     45 C         -27.9190   50.2968   -5.4261 C.ar    1  UNL1        0.0131
     46 H         -27.9046   53.4714   -6.1122 H       1  UNL1        0.1660
@<TRIPOS>BOND
     1     1     2    2
     2     2     3   am
     3     3    25    1
     4    25    36    1
     5    36    37    1
     6    37    38   ar
     7    38    39   ar
     8    39    40   ar
     9    40    41   ar
    10    41    42   ar
    11    42    43   ar
    12    43    44   ar
    13    44    45   ar
    14    25    26    1
    15    26    27    2
    16    26    28   am
    17    28    30    1
    18    30    31   ar
    19    31    32   ar
    20    32    33   ar
    21    33    34   ar
    22    34    35   ar
    23     2     5    1
    24     5     6   ar
    25     6     7   ar
    26     7     8   ar
    27     8    12    1
    28    12    13    1
    29    13    14    1
    30    14    15    1
    31    15    18    1
    32    18    19   ar
    33    19    20   ar
    34    20    21   ar
    35    21    22    1
    36    21    23   ar
    37    23    24   ar
    38    15    16    1
    39    16    17    1
    40     8     9   ar
    41     9    10   ar
    42    10    11    1
    43    45    37   ar
    44    35    30   ar
    45    10     5   ar
    46    45    40   ar
    47    17    12    1
    48    24    18   ar
    49     3     4    1
    50    39    46    1
    51    28    29    1
@<TRIPOS>MOLECULE
*****
 46 51 0 0 0
SMALL
GASTEIGER

@<TRIPOS>ATOM
      1 O         -26.8307   48.5644   -8.7858 O.2     1  UNL1       -0.2701
      2 C         -26.8327   49.7967   -9.0569 C.2     1  UNL1        0.2483
      3 N         -28.0827   50.4990   -9.1454 N.am    1  UNL1       -0.2945
      4 H         -28.0748   51.5414   -9.0767 H       1  UNL1        0.1501
      5 C         -25.5385   50.4946   -9.2631 C.ar    1  UNL1        0.0808
      6 C         -24.6351   50.5990   -8.1909 C.ar    1  UNL1        0.0080
      7 C         -23.3985   51.2262   -8.3582 C.ar    1  UNL1        0.0148
      8 C         -23.0307   51.7523   -9.6053 C.ar    1  UNL1        0.0502
      9 C         -23.9259   51.6480  -10.6799 C.ar    1  UNL1        0.0443
     10 C         -25.1661   51.0229  -10.5177 C.ar    1  UNL1        0.1457
     11 F         -25.9670   50.8966  -11.6045 F       1  UNL1       -0.2040
     12 N         -21.7583   52.4051   -9.7756 N.pl3   1  UNL1       -0.3040
     13 C         -20.5766   51.9520   -9.0278 C.3     1  UNL1        0.1122
     14 C         -19.9634   53.1312   -8.2639 C.3     1  UNL1        0.1122
     15 N         -19.9243   54.3468   -9.0938 N.pl3   1  UNL1       -0.3041
     16 C         -20.2954   54.2699  -10.5140 C.3     1  UNL1        0.1122
     17 C         -21.6571   53.5802  -10.6567 C.3     1  UNL1        0.1122
     18 C         -19.5917   55.6106   -8.4878 C.ar    1  UNL1        0.0480
     19 C         -20.0094   56.8160   -9.0781 C.ar    1  UNL1        0.0154
     20 C         -19.6746   58.0420   -8.4952 C.ar    1  UNL1        0.0127
     21 C         -18.9154   58.0771   -7.3216 C.ar    1  UNL1        0.0578
     22 CL        -18.4953   59.6163   -6.5929 Cl      1  UNL1       -0.0822
     23 C         -18.4889   56.8835   -6.7315 C.ar    1  UNL1        0.0127
     24 C         -18.8228   55.6559   -7.3114 C.ar    1  UNL1        0.0154
     25 C         -29.3718   49.7970   -9.2123 C.3     1  UNL1        0.1535
     26 C         -30.3791   50.4650   -8.2957 C.2     1  UNL1        0.2443
     27 O         -31.5841   50.5372   -8.6566 O.2     1  UNL1       -0.2730
     28 N         -29.9853   51.1330   -7.0847 N.am    1  UNL1       -0.2825
     29 H         -30.5844   51.9243   -6.7570 H       1  UNL1        0.1549
     30 C         -28.8000   50.8385   -6.3299 C.ar    1  UNL1        0.0535
     31 C         -27.8167   51.8145   -6.1087 C.ar    1  UNL1        0.0353
     32 C         -26.6638   51.4806   -5.3940 C.ar    1  UNL1        0.1002
     33 N         -26.4899   50.2132   -4.9337 N.ar    1  UNL1       -0.2422
     34 C         -27.4157   49.2425   -5.1543 C.ar    1  UNL1        0.1002
     35 C         -28.5823   49.5354   -5.8649 C.ar    1  UNL1        0.0353
     36 C         -29.8867   49.6942  -10.6701 C.3     1  UNL1        0.0569
     37 C         -29.7934   48.3104  -11.2580 C.ar    1  UNL1       -0.0017
     38 C         -29.4263   47.1449  -10.5901 C.ar    1  UNL1        0.0681
     39 N         -29.4869   46.0815  -11.4230 N.ar    1  UNL1       -0.3523
     40 C         -29.8781   46.5642  -12.6144 C.ar    1  UNL1        0.0563
     41 C         -30.0865   45.8429  -13.7893 C.ar    1  UNL1        0.0170
     42 C         -30.4934   46.5522  -14.9336 C.ar    1  UNL1        0.0015
     43 C         -30.6698   47.9521  -14.8818 C.ar    1  UNL1        0.0001
     44 C         -30.4467   48.6546  -13.6841 C.ar    1  UNL1        0.0012
     45 C         -30.0645   47.9222  -12.5584 C.ar    1  UNL1        0.0131
     46 H         -29.2690   45.0884  -11.1852 H       1  UNL1        0.1660
@<TRIPOS>BOND
     1     1     2    2
     2     2     3   am
     3     3    25    1
     4    25    36    1
     5    36    37    1
     6    37    38   ar
     7    38    39   ar
     8    39    40   ar
     9    40    41   ar
    10    41    42   ar
    11    42    43   ar
    12    43    44   ar
    13    44    45   ar
    14    25    26    1
    15    26    27    2
    16    26    28   am
    17    28    30    1
    18    30    31   ar
    19    31    32   ar
    20    32    33   ar
    21    33    34   ar
    22    34    35   ar
    23     2     5    1
    24     5     6   ar
    25     6     7   ar
    26     7     8   ar
    27     8    12    1
    28    12    13    1
    29    13    14    1
    30    14    15    1
    31    15    18    1
    32    18    19   ar
    33    19    20   ar
    34    20    21   ar
    35    21    22    1
    36    21    23   ar
    37    23    24   ar
    38    15    16    1
    39    16    17    1
    40     8     9   ar
    41     9    10   ar
    42    10    11    1
    43    45    37   ar
    44    35    30   ar
    45    10     5   ar
    46    45    40   ar
    47    17    12    1
    48    24    18   ar
    49     3     4    1
    50    39    46    1
    51    28    29    1
@<TRIPOS>MOLECULE
*****
 46 51 0 0 0
SMALL
GASTEIGER

@<TRIPOS>ATOM
      1 O         -27.0835   47.2853   -9.2371 O.2     1  UNL1       -0.2701
      2 C         -27.0761   48.4412   -8.7313 C.2     1  UNL1        0.2483
      3 N         -28.0590   48.7865   -7.7423 N.am    1  UNL1       -0.2945
      4 H         -27.8786   49.6112   -7.1268 H       1  UNL1        0.1501
      5 C         -26.0391   49.4129   -9.1616 C.ar    1  UNL1        0.0808
      6 C         -25.9908   49.8161  -10.5077 C.ar    1  UNL1        0.0080
      7 C         -25.0446   50.7479  -10.9400 C.ar    1  UNL1        0.0148
      8 C         -24.1328   51.3085  -10.0336 C.ar    1  UNL1        0.0502
      9 C         -24.1782   50.9134   -8.6887 C.ar    1  UNL1        0.0443
     10 C         -25.1220   49.9793   -8.2507 C.ar    1  UNL1        0.1457
     11 F         -25.1604   49.6787   -6.9290 F       1  UNL1       -0.2040
     12 N         -23.1528   52.2644  -10.4811 N.pl3   1  UNL1       -0.3040
     13 C         -21.8238   51.8230  -10.9281 C.3     1  UNL1        0.1122
     14 C         -20.7390   52.5656  -10.1396 C.3     1  UNL1        0.1122
     15 N         -21.0626   53.9947   -9.9959 N.pl3   1  UNL1       -0.3041
     16 C         -22.2198   54.5535  -10.7095 C.3     1  UNL1        0.1122
     17 C         -23.4630   53.7025  -10.4262 C.3     1  UNL1        0.1122
     18 C         -20.2842   54.8133   -9.1019 C.ar    1  UNL1        0.0480
     19 C         -19.4314   54.2216   -8.1540 C.ar    1  UNL1        0.0154
     20 C         -18.6865   55.0178   -7.2787 C.ar    1  UNL1        0.0127
     21 C         -18.7898   56.4110   -7.3370 C.ar    1  UNL1        0.0578
     22 CL        -17.8555   57.4078   -6.2369 Cl      1  UNL1       -0.0822
     23 C         -19.6413   57.0082   -8.2714 C.ar    1  UNL1        0.0127
     24 C         -20.3867   56.2149   -9.1487 C.ar    1  UNL1        0.0154
     25 C         -29.2445   47.9549   -7.4934 C.3     1  UNL1        0.1535
     26 C         -29.4510   47.7717   -6.0019 C.2     1  UNL1        0.2443
     27 O         -29.8319   46.6519   -5.5678 O.2     1  UNL1       -0.2730
     28 N         -29.3502   48.8673   -5.0759 N.am    1  UNL1       -0.2825
     29 H         -29.9199   48.8100   -4.2015 H       1  UNL1        0.1549
     30 C         -28.5794   50.0593   -5.2914 C.ar    1  UNL1        0.0535
     31 C         -29.0366   51.0781   -6.1408 C.ar    1  UNL1        0.0353
     32 C         -28.2438   52.2097   -6.3472 C.ar    1  UNL1        0.1002
     33 N         -27.0302   52.3116   -5.7431 N.ar    1  UNL1       -0.2422
     34 C         -26.5529   51.3287   -4.9340 C.ar    1  UNL1        0.1002
     35 C         -27.3146   50.1808   -4.7019 C.ar    1  UNL1        0.0353
     36 C         -30.5009   48.5353   -8.1901 C.3     1  UNL1        0.0569
     37 C         -30.3382   48.7468   -9.6728 C.ar    1  UNL1       -0.0017
     38 C         -30.6401   47.8359  -10.6819 C.ar    1  UNL1        0.0681
     39 N         -30.4015   48.3779  -11.8973 N.ar    1  UNL1       -0.3523
     40 C         -29.9412   49.6191  -11.6671 C.ar    1  UNL1        0.0563
     41 C         -29.5620   50.5674  -12.6162 C.ar    1  UNL1        0.0170
     42 C         -29.1004   51.8130  -12.1540 C.ar    1  UNL1        0.0015
     43 C         -29.0180   52.0759  -10.7693 C.ar    1  UNL1        0.0001
     44 C         -29.4020   51.0980   -9.8343 C.ar    1  UNL1        0.0012
     45 C         -29.8767   49.8787  -10.3215 C.ar    1  UNL1        0.0131
     46 H         -30.5438   47.9196  -12.8247 H       1  UNL1        0.1660
@<TRIPOS>BOND
     1     1     2    2
     2     2     3   am
     3     3    25    1
     4    25    36    1
     5    36    37    1
     6    37    38   ar
     7    38    39   ar
     8    39    40   ar
     9    40    41   ar
    10    41    42   ar
    11    42    43   ar
    12    43    44   ar
    13    44    45   ar
    14    25    26    1
    15    26    27    2
    16    26    28   am
    17    28    30    1
    18    30    31   ar
    19    31    32   ar
    20    32    33   ar
    21    33    34   ar
    22    34    35   ar
    23     2     5    1
    24     5     6   ar
    25     6     7   ar
    26     7     8   ar
    27     8    12    1
    28    12    13    1
    29    13    14    1
    30    14    15    1
    31    15    18    1
    32    18    19   ar
    33    19    20   ar
    34    20    21   ar
    35    21    22    1
    36    21    23   ar
    37    23    24   ar
    38    15    16    1
    39    16    17    1
    40     8     9   ar
    41     9    10   ar
    42    10    11    1
    43    45    37   ar
    44    35    30   ar
    45    10     5   ar
    46    45    40   ar
    47    17    12    1
    48    24    18   ar
    49     3     4    1
    50    39    46    1
    51    28    29    1
@<TRIPOS>MOLECULE
*****
 46 51 0 0 0
SMALL
GASTEIGER

@<TRIPOS>ATOM
      1 O         -28.4820   50.5836   -9.5053 O.2     1  UNL1       -0.2701
      2 C         -27.4635   49.8690   -9.2952 C.2     1  UNL1        0.2483
      3 N         -27.6312   48.5015   -8.8886 N.am    1  UNL1       -0.2945
      4 H         -26.8253   47.8459   -8.9994 H       1  UNL1        0.1501
      5 C         -26.1140   50.4571   -9.4891 C.ar    1  UNL1        0.0808
      6 C         -25.7146   50.8517  -10.7781 C.ar    1  UNL1        0.0080
      7 C         -24.4621   51.4320  -10.9906 C.ar    1  UNL1        0.0148
      8 C         -23.5847   51.6434   -9.9170 C.ar    1  UNL1        0.0502
      9 C         -23.9787   51.2555   -8.6281 C.ar    1  UNL1        0.0443
     10 C         -25.2306   50.6722   -8.4097 C.ar    1  UNL1        0.1457
     11 F         -25.5840   50.3717   -7.1355 F       1  UNL1       -0.2040
     12 N         -22.2905   52.2356  -10.1377 N.pl3   1  UNL1       -0.3040
     13 C         -21.0807   51.6305   -9.5625 C.3     1  UNL1        0.1122
     14 C         -20.3209   52.6755   -8.7374 C.3     1  UNL1        0.1122
     15 N         -20.2724   53.9744   -9.4291 N.pl3   1  UNL1       -0.3041
     16 C         -20.7743   54.0840  -10.8063 C.3     1  UNL1        0.1122
     17 C         -22.1878   53.4966  -10.8905 C.3     1  UNL1        0.1122
     18 C         -19.7997   55.1380   -8.7236 C.ar    1  UNL1        0.0480
     19 C         -18.9793   55.0002   -7.5905 C.ar    1  UNL1        0.0154
     20 C         -18.5321   56.1306   -6.8997 C.ar    1  UNL1        0.0127
     21 C         -18.9038   57.4083   -7.3293 C.ar    1  UNL1        0.0578
     22 CL        -18.3429   58.8249   -6.4602 Cl      1  UNL1       -0.0822
     23 C         -19.7259   57.5548   -8.4507 C.ar    1  UNL1        0.0127
     24 C         -20.1739   56.4265   -9.1442 C.ar    1  UNL1        0.0154
     25 C         -28.9247   47.9731   -8.4341 C.3     1  UNL1        0.1535
     26 C         -29.3757   48.7003   -7.1816 C.2     1  UNL1        0.2443
     27 O         -30.3220   49.5285   -7.2596 O.2     1  UNL1       -0.2730
     28 N         -28.6778   48.5732   -5.9307 N.am    1  UNL1       -0.2825
     29 H         -28.7199   49.3849   -5.2735 H       1  UNL1        0.1549
     30 C         -27.8766   47.4457   -5.5456 C.ar    1  UNL1        0.0535
     31 C         -26.4860   47.4433   -5.7318 C.ar    1  UNL1        0.0353
     32 C         -25.7452   46.3152   -5.3708 C.ar    1  UNL1        0.1002
     33 N         -26.3721   45.2221   -4.8608 N.ar    1  UNL1       -0.2422
     34 C         -27.7207   45.1890   -4.6920 C.ar    1  UNL1        0.1002
     35 C         -28.4978   46.2963   -5.0407 C.ar    1  UNL1        0.0353
     36 C         -29.9886   48.0324   -9.5590 C.3     1  UNL1        0.0569
     37 C         -29.6828   47.1490  -10.7404 C.ar    1  UNL1       -0.0017
     38 C         -28.8060   46.0676  -10.7666 C.ar    1  UNL1        0.0681
     39 N         -28.8083   45.4842  -11.9863 N.ar    1  UNL1       -0.3523
     40 C         -29.6698   46.1927  -12.7356 C.ar    1  UNL1        0.0563
     41 C         -30.0107   45.9676  -14.0687 C.ar    1  UNL1        0.0170
     42 C         -30.9377   46.8396  -14.6672 C.ar    1  UNL1        0.0015
     43 C         -31.4884   47.9118  -13.9320 C.ar    1  UNL1        0.0001
     44 C         -31.1217   48.1183  -12.5901 C.ar    1  UNL1        0.0012
     45 C         -30.2160   47.2245  -12.0152 C.ar    1  UNL1        0.0131
     46 H         -28.2491   44.6538  -12.2828 H       1  UNL1        0.1660
@<TRIPOS>BOND
     1     1     2    2
     2     2     3   am
     3     3    25    1
     4    25    36    1
     5    36    37    1
     6    37    38   ar
     7    38    39   ar
     8    39    40   ar
     9    40    41   ar
    10    41    42   ar
    11    42    43   ar
    12    43    44   ar
    13    44    45   ar
    14    25    26    1
    15    26    27    2
    16    26    28   am
    17    28    30    1
    18    30    31   ar
    19    31    32   ar
    20    32    33   ar
    21    33    34   ar
    22    34    35   ar
    23     2     5    1
    24     5     6   ar
    25     6     7   ar
    26     7     8   ar
    27     8    12    1
    28    12    13    1
    29    13    14    1
    30    14    15    1
    31    15    18    1
    32    18    19   ar
    33    19    20   ar
    34    20    21   ar
    35    21    22    1
    36    21    23   ar
    37    23    24   ar
    38    15    16    1
    39    16    17    1
    40     8     9   ar
    41     9    10   ar
    42    10    11    1
    43    45    37   ar
    44    35    30   ar
    45    10     5   ar
    46    45    40   ar
    47    17    12    1
    48    24    18   ar
    49     3     4    1
    50    39    46    1
    51    28    29    1
@<TRIPOS>MOLECULE
*****
 46 51 0 0 0
SMALL
GASTEIGER

@<TRIPOS>ATOM
      1 O         -22.0644   51.7870   -8.1303 O.2     1  UNL1       -0.2701
      2 C         -22.5938   51.8958   -9.2705 C.2     1  UNL1        0.2483
      3 N         -21.8202   52.4191  -10.3620 N.am    1  UNL1       -0.2945
      4 H         -22.1481   52.2382  -11.3373 H       1  UNL1        0.1501
      5 C         -24.0020   51.4647   -9.4589 C.ar    1  UNL1        0.0808
      6 C         -24.5940   51.5849  -10.7285 C.ar    1  UNL1        0.0080
      7 C         -25.9081   51.1648  -10.9458 C.ar    1  UNL1        0.0148
      8 C         -26.6568   50.6023   -9.9017 C.ar    1  UNL1        0.0502
      9 C         -26.0708   50.4760   -8.6338 C.ar    1  UNL1        0.0443
     10 C         -24.7563   50.8968   -8.4099 C.ar    1  UNL1        0.1457
     11 F         -24.2197   50.6960   -7.1809 F       1  UNL1       -0.2040
     12 N         -28.0142   50.1755  -10.1245 N.pl3   1  UNL1       -0.3040
     13 C         -28.5643   49.0176   -9.4052 C.3     1  UNL1        0.1122
     14 C         -29.1270   48.0040  -10.4083 C.3     1  UNL1        0.1122
     15 N         -29.8868   48.6721  -11.4780 N.pl3   1  UNL1       -0.3041
     16 C         -30.1483   50.1160  -11.3914 C.3     1  UNL1        0.1122
     17 C         -28.8362   50.8652  -11.1326 C.3     1  UNL1        0.1122
     18 C         -30.3035   47.9170  -12.6318 C.ar    1  UNL1        0.0480
     19 C         -29.9257   46.5708  -12.7772 C.ar    1  UNL1        0.0154
     20 C         -30.3206   45.8434  -13.9041 C.ar    1  UNL1        0.0127
     21 C         -31.0908   46.4536  -14.8989 C.ar    1  UNL1        0.0578
     22 CL        -31.5837   45.5396  -16.3125 Cl      1  UNL1       -0.0822
     23 C         -31.4648   47.7943  -14.7666 C.ar    1  UNL1        0.0127
     24 C         -31.0724   48.5241  -13.6405 C.ar    1  UNL1        0.0154
     25 C         -20.5320   53.0949  -10.1551 C.3     1  UNL1        0.1535
     26 C         -19.5622   52.7214  -11.2601 C.2     1  UNL1        0.2443
     27 O         -19.8249   53.0553  -12.4462 O.2     1  UNL1       -0.2730
     28 N         -18.4148   51.8882  -11.0209 N.am    1  UNL1       -0.2825
     29 H         -18.0700   51.3068  -11.8181 H       1  UNL1        0.1549
     30 C         -17.7495   51.7461   -9.7566 C.ar    1  UNL1        0.0535
     31 C         -18.4750   51.6224   -8.5621 C.ar    1  UNL1        0.0353
     32 C         -17.7906   51.5154   -7.3490 C.ar    1  UNL1        0.1002
     33 N         -16.4318   51.5505   -7.3271 N.ar    1  UNL1       -0.2422
     34 C         -15.7050   51.6932   -8.4671 C.ar    1  UNL1        0.1002
     35 C         -16.3511   51.8037   -9.7008 C.ar    1  UNL1        0.0353
     36 C         -20.7101   54.6287  -10.0278 C.3     1  UNL1        0.0569
     37 C         -20.0315   55.2278   -8.8236 C.ar    1  UNL1       -0.0017
     38 C         -19.5887   54.5467   -7.6926 C.ar    1  UNL1        0.0681
     39 N         -18.9945   55.3992   -6.8276 N.ar    1  UNL1       -0.3523
     40 C         -19.0666   56.6151   -7.3951 C.ar    1  UNL1        0.0563
     41 C         -18.5831   57.8166   -6.8790 C.ar    1  UNL1        0.0170
     42 C         -18.7704   58.9833   -7.6418 C.ar    1  UNL1        0.0015
     43 C         -19.4393   58.9256   -8.8838 C.ar    1  UNL1        0.0001
     44 C         -19.9217   57.7002   -9.3772 C.ar    1  UNL1        0.0012
     45 C         -19.7027   56.5549   -8.6092 C.ar    1  UNL1        0.0131
     46 H         -18.5703   55.1579   -5.9045 H       1  UNL1        0.1660
@<TRIPOS>BOND
     1     1     2    2
     2     2     3   am
     3     3    25    1
     4    25    36    1
     5    36    37    1
     6    37    38   ar
     7    38    39   ar
     8    39    40   ar
     9    40    41   ar
    10    41    42   ar
    11    42    43   ar
    12    43    44   ar
    13    44    45   ar
    14    25    26    1
    15    26    27    2
    16    26    28   am
    17    28    30    1
    18    30    31   ar
    19    31    32   ar
    20    32    33   ar
    21    33    34   ar
    22    34    35   ar
    23     2     5    1
    24     5     6   ar
    25     6     7   ar
    26     7     8   ar
    27     8    12    1
    28    12    13    1
    29    13    14    1
    30    14    15    1
    31    15    18    1
    32    18    19   ar
    33    19    20   ar
    34    20    21   ar
    35    21    22    1
    36    21    23   ar
    37    23    24   ar
    38    15    16    1
    39    16    17    1
    40     8     9   ar
    41     9    10   ar
    42    10    11    1
    43    45    37   ar
    44    35    30   ar
    45    10     5   ar
    46    45    40   ar
    47    17    12    1
    48    24    18   ar
    49     3     4    1
    50    39    46    1
    51    28    29    1
@<TRIPOS>MOLECULE
*****
 46 51 0 0 0
SMALL
GASTEIGER

@<TRIPOS>ATOM
      1 O         -28.6441   50.7117  -10.4061 O.2     1  UNL1       -0.2701
      2 C         -27.7117   50.3964   -9.6166 C.2     1  UNL1        0.2483
      3 N         -27.9998   49.5723   -8.4758 N.am    1  UNL1       -0.2945
      4 H         -27.2083   49.0804   -8.0034 H       1  UNL1        0.1501
      5 C         -26.3339   50.8741   -9.8960 C.ar    1  UNL1        0.0808
      6 C         -25.9853   51.2380  -11.2085 C.ar    1  UNL1        0.0080
      7 C         -24.7058   51.7158  -11.5006 C.ar    1  UNL1        0.0148
      8 C         -23.7488   51.8532  -10.4844 C.ar    1  UNL1        0.0502
      9 C         -24.0915   51.4955   -9.1724 C.ar    1  UNL1        0.0443
     10 C         -25.3703   51.0147   -8.8745 C.ar    1  UNL1        0.1457
     11 F         -25.6664   50.7408   -7.5800 F       1  UNL1       -0.2040
     12 N         -22.4274   52.3394  -10.7873 N.pl3   1  UNL1       -0.3040
     13 C         -21.5791   51.6461  -11.7673 C.3     1  UNL1        0.1122
     14 C         -20.2297   51.2966  -11.1292 C.3     1  UNL1        0.1122
     15 N         -19.7112   52.4143  -10.3232 N.pl3   1  UNL1       -0.3041
     16 C         -20.4052   53.7099  -10.3450 C.3     1  UNL1        0.1122
     17 C         -21.8968   53.5030  -10.0579 C.3     1  UNL1        0.1122
     18 C         -18.5714   52.2048   -9.4675 C.ar    1  UNL1        0.0480
     19 C         -17.3777   51.6748   -9.9873 C.ar    1  UNL1        0.0154
     20 C         -16.2768   51.4602   -9.1525 C.ar    1  UNL1        0.0127
     21 C         -16.3584   51.7668   -7.7907 C.ar    1  UNL1        0.0578
     22 CL        -14.9766   51.4955   -6.7450 Cl      1  UNL1       -0.0822
     23 C         -17.5441   52.2872   -7.2633 C.ar    1  UNL1        0.0127
     24 C         -18.6464   52.5038   -8.0956 C.ar    1  UNL1        0.0154
     25 C         -29.3741   49.3092   -8.0273 C.3     1  UNL1        0.1535
     26 C         -29.7681   47.8823   -8.3586 C.2     1  UNL1        0.2443
     27 O         -30.7171   47.6782   -9.1618 O.2     1  UNL1       -0.2730
     28 N         -29.1806   46.7524   -7.6906 N.am    1  UNL1       -0.2825
     29 H         -29.7643   45.8897   -7.6044 H       1  UNL1        0.1549
     30 C         -27.8819   46.7415   -7.0784 C.ar    1  UNL1        0.0535
     31 C         -26.7448   47.1762   -7.7758 C.ar    1  UNL1        0.0353
     32 C         -25.4944   47.1226   -7.1552 C.ar    1  UNL1        0.1002
     33 N         -25.3806   46.6346   -5.8915 N.ar    1  UNL1       -0.2422
     34 C         -26.4626   46.1851   -5.2018 C.ar    1  UNL1        0.1002
     35 C         -27.7308   46.2212   -5.7868 C.ar    1  UNL1        0.0353
     36 C         -29.5505   49.6294   -6.5217 C.3     1  UNL1        0.0569
     37 C         -28.4956   50.5474   -5.9615 C.ar    1  UNL1       -0.0017
     38 C         -28.2252   51.8514   -6.3683 C.ar    1  UNL1        0.0681
     39 N         -27.2345   52.3863   -5.6197 N.ar    1  UNL1       -0.3523
     40 C         -26.8676   51.4298   -4.7502 C.ar    1  UNL1        0.0563
     41 C         -25.8810   51.5157   -3.7688 C.ar    1  UNL1        0.0170
     42 C         -25.6538   50.3853   -2.9633 C.ar    1  UNL1        0.0015
     43 C         -26.4012   49.2041   -3.1620 C.ar    1  UNL1        0.0001
     44 C         -27.3864   49.1442   -4.1637 C.ar    1  UNL1        0.0012
     45 C         -27.6056   50.2880   -4.9339 C.ar    1  UNL1        0.0131
     46 H         -26.8355   53.3474   -5.7059 H       1  UNL1        0.1660
@<TRIPOS>BOND
     1     1     2    2
     2     2     3   am
     3     3    25    1
     4    25    36    1
     5    36    37    1
     6    37    38   ar
     7    38    39   ar
     8    39    40   ar
     9    40    41   ar
    10    41    42   ar
    11    42    43   ar
    12    43    44   ar
    13    44    45   ar
    14    25    26    1
    15    26    27    2
    16    26    28   am
    17    28    30    1
    18    30    31   ar
    19    31    32   ar
    20    32    33   ar
    21    33    34   ar
    22    34    35   ar
    23     2     5    1
    24     5     6   ar
    25     6     7   ar
    26     7     8   ar
    27     8    12    1
    28    12    13    1
    29    13    14    1
    30    14    15    1
    31    15    18    1
    32    18    19   ar
    33    19    20   ar
    34    20    21   ar
    35    21    22    1
    36    21    23   ar
    37    23    24   ar
    38    15    16    1
    39    16    17    1
    40     8     9   ar
    41     9    10   ar
    42    10    11    1
    43    45    37   ar
    44    35    30   ar
    45    10     5   ar
    46    45    40   ar
    47    17    12    1
    48    24    18   ar
    49     3     4    1
    50    39    46    1
    51    28    29    1
