@<TRIPOS>MOLECULE
*****
 38 42 0 0 0
SMALL
GASTEIGER

@<TRIPOS>ATOM
      1 C         -22.8434   -8.9120  -10.7381 C.2     1  UNL1        0.2491
      2 O         -23.8806   -9.6155  -10.6007 O.2     1  UNL1       -0.2699
      3 N         -22.6484   -8.1419  -11.9414 N.am    1  UNL1       -0.2680
      4 C         -21.9455   -6.8554  -11.8890 C.3     1  UNL1        0.1412
      5 C         -20.5066   -7.0259  -12.3712 C.3     1  UNL1        0.2268
      6 O         -20.4180   -7.9699  -13.4373 O.3     1  UNL1       -0.4739
      7 C         -21.2499   -7.9177  -14.5579 C.ar    1  UNL1        0.1362
      8 C         -20.6684   -7.6674  -15.8038 C.ar    1  UNL1        0.0366
      9 C         -21.4577   -7.5753  -16.9499 C.ar    1  UNL1        0.0031
     10 C         -22.8482   -7.7491  -16.8712 C.ar    1  UNL1        0.0001
     11 C         -23.4302   -8.0282  -15.6222 C.ar    1  UNL1        0.0004
     12 C         -22.6484   -8.1105  -14.4564 C.ar    1  UNL1        0.0317
     13 C         -23.3304   -8.5625  -13.1752 C.3     1  UNL1        0.1236
     14 C         -23.6904   -7.6558  -18.0907 C.ar    1  UNL1        0.0045
     15 C         -24.4324   -6.4731  -18.3657 C.ar    1  UNL1        0.0383
     16 C         -25.2339   -6.3750  -19.5190 C.ar    1  UNL1        0.1526
     17 O         -25.9546   -5.2119  -19.7813 O.3     1  UNL1       -0.5039
     18 C         -25.2741   -7.4741  -20.3772 C.ar    1  UNL1        0.1320
     19 N         -25.9660   -7.6056  -21.5241 N.ar    1  UNL1       -0.2210
     20 C         -25.6400   -8.8598  -21.9334 C.ar    1  UNL1        0.1751
     21 N         -24.7872   -9.4965  -21.0958 N.ar    1  UNL1       -0.3348
     22 C         -24.5663   -8.6075  -20.1203 C.ar    1  UNL1        0.0787
     23 C         -23.7620   -8.7451  -18.9927 C.ar    1  UNL1        0.0187
     24 H         -26.5359   -5.1225  -20.6062 H       1  UNL1        0.2923
     25 H         -24.3945  -10.4592  -21.1922 H       1  UNL1        0.1675
     26 C         -20.5667   -9.4658   -9.7880 C.ar    1  UNL1       -0.0165
     27 C         -19.6607   -9.3848   -8.7161 C.ar    1  UNL1        0.0142
     28 C         -20.0209   -8.7563   -7.5183 C.ar    1  UNL1        0.1054
     29 C         -21.2959   -8.1979   -7.3854 C.ar    1  UNL1        0.0185
     30 C         -22.2071   -8.2695   -8.4396 C.ar    1  UNL1        0.0055
     31 C         -21.8525   -8.8876   -9.6472 C.ar    1  UNL1        0.0497
     32 S         -18.8633   -8.6498   -6.1963 S.O2    1  UNL1        0.0104
     33 C         -19.6999   -8.9493   -4.6562 C.3     1  UNL1        0.1816
     34 O         -17.7761   -9.6708   -6.3834 O.2     1  UNL1       -0.1686
     35 O         -18.2415   -7.2817   -6.1748 O.2     1  UNL1       -0.1686
     36 C         -20.1479  -10.2238  -11.0317 C.3     1  UNL1        0.0265
     37 C         -21.3446  -11.9952  -12.4130 C.3     1  UNL1        0.0004
     38 C         -20.7248  -11.6462  -11.0611 C.3     1  UNL1        0.0047
@<TRIPOS>BOND
     1    37    38    1
     2    38    36    1
     3    36    26    1
     4    26    27   ar
     5    27    28   ar
     6    28    32    1
     7    32    33    1
     8    32    34    2
     9    32    35    2
    10    28    29   ar
    11    29    30   ar
    12    30    31   ar
    13    31     1    1
    14     1     2    2
    15     1     3   am
    16     3     4    1
    17     4     5    1
    18     5     6    1
    19     6     7    1
    20     7     8   ar
    21     8     9   ar
    22     9    10   ar
    23    10    14    1
    24    14    15   ar
    25    15    16   ar
    26    16    17    1
    27    16    18   ar
    28    18    19   ar
    29    19    20   ar
    30    20    21   ar
    31    21    22   ar
    32    22    23   ar
    33    10    11   ar
    34    11    12   ar
    35    12    13    1
    36    31    26   ar
    37    13     3    1
    38    12     7   ar
    39    23    14   ar
    40    22    18   ar
    41    17    24    1
    42    21    25    1
@<TRIPOS>MOLECULE
*****
 38 42 0 0 0
SMALL
GASTEIGER

@<TRIPOS>ATOM
      1 C         -21.9308   -9.5815  -13.2790 C.2     1  UNL1        0.2491
      2 O         -21.6162   -9.7932  -14.4815 O.2     1  UNL1       -0.2699
      3 N         -23.2001   -8.9759  -12.9615 N.am    1  UNL1       -0.2680
      4 C         -23.9052   -9.3423  -11.7284 C.3     1  UNL1        0.1412
      5 C         -23.6995   -8.2628  -10.6681 C.3     1  UNL1        0.2268
      6 O         -23.6728   -6.9580  -11.2448 O.3     1  UNL1       -0.4739
      7 C         -24.6493   -6.5114  -12.1379 C.ar    1  UNL1        0.1362
      8 C         -25.4658   -5.4461  -11.7486 C.ar    1  UNL1        0.0366
      9 C         -26.4759   -4.9814  -12.5906 C.ar    1  UNL1        0.0031
     10 C         -26.6768   -5.5670  -13.8502 C.ar    1  UNL1        0.0001
     11 C         -25.8376   -6.6205  -14.2532 C.ar    1  UNL1        0.0004
     12 C         -24.8241   -7.1082  -13.4093 C.ar    1  UNL1        0.0317
     13 C         -23.8667   -8.1443  -13.9756 C.3     1  UNL1        0.1236
     14 C         -27.7487   -5.0712  -14.7504 C.ar    1  UNL1        0.0045
     15 C         -29.0879   -5.5266  -14.5957 C.ar    1  UNL1        0.0383
     16 C         -30.1111   -5.0627  -15.4443 C.ar    1  UNL1        0.1526
     17 O         -31.4200   -5.5122  -15.2834 O.3     1  UNL1       -0.5039
     18 C         -29.7655   -4.1457  -16.4371 C.ar    1  UNL1        0.1320
     19 N         -30.5682   -3.5746  -17.3542 N.ar    1  UNL1       -0.2210
     20 C         -29.7144   -2.7818  -18.0537 C.ar    1  UNL1        0.1751
     21 N         -28.4362   -2.8416  -17.6101 N.ar    1  UNL1       -0.3348
     22 C         -28.4868   -3.7057  -16.5896 C.ar    1  UNL1        0.0787
     23 C         -27.4467   -4.1386  -15.7722 C.ar    1  UNL1        0.0187
     24 H         -32.1695   -5.1891  -15.8837 H       1  UNL1        0.2923
     25 H         -27.6051   -2.3297  -17.9811 H       1  UNL1        0.1675
     26 C         -20.7703  -11.3298  -11.8684 C.ar    1  UNL1       -0.0165
     27 C         -19.8352  -11.6356  -10.8642 C.ar    1  UNL1        0.0142
     28 C         -19.1329  -10.6200  -10.2047 C.ar    1  UNL1        0.1054
     29 C         -19.3599   -9.2842  -10.5500 C.ar    1  UNL1        0.0185
     30 C         -20.2846   -8.9635  -11.5444 C.ar    1  UNL1        0.0055
     31 C         -20.9854   -9.9738  -12.2183 C.ar    1  UNL1        0.0497
     32 S         -17.9525  -11.0275   -8.9639 S.O2    1  UNL1        0.0104
     33 C         -17.9212  -12.7909   -8.7380 C.3     1  UNL1        0.1816
     34 O         -16.5885  -10.5504   -9.3775 O.2     1  UNL1       -0.1686
     35 O         -18.3250  -10.3599   -7.6698 O.2     1  UNL1       -0.1686
     36 C         -21.5550  -12.4652  -12.4943 C.3     1  UNL1        0.0265
     37 C         -21.5065  -13.4837  -14.8263 C.3     1  UNL1        0.0004
     38 C         -20.7280  -13.2314  -13.5364 C.3     1  UNL1        0.0047
@<TRIPOS>BOND
     1    37    38    1
     2    38    36    1
     3    36    26    1
     4    26    27   ar
     5    27    28   ar
     6    28    32    1
     7    32    33    1
     8    32    34    2
     9    32    35    2
    10    28    29   ar
    11    29    30   ar
    12    30    31   ar
    13    31     1    1
    14     1     2    2
    15     1     3   am
    16     3     4    1
    17     4     5    1
    18     5     6    1
    19     6     7    1
    20     7     8   ar
    21     8     9   ar
    22     9    10   ar
    23    10    14    1
    24    14    15   ar
    25    15    16   ar
    26    16    17    1
    27    16    18   ar
    28    18    19   ar
    29    19    20   ar
    30    20    21   ar
    31    21    22   ar
    32    22    23   ar
    33    10    11   ar
    34    11    12   ar
    35    12    13    1
    36    31    26   ar
    37    13     3    1
    38    12     7   ar
    39    23    14   ar
    40    22    18   ar
    41    17    24    1
    42    21    25    1
@<TRIPOS>MOLECULE
*****
 38 42 0 0 0
SMALL
GASTEIGER

@<TRIPOS>ATOM
      1 C         -22.2987   -8.6054   -9.9597 C.2     1  UNL1        0.2491
      2 O         -23.1974   -8.6451   -9.0763 O.2     1  UNL1       -0.2699
      3 N         -22.4860   -7.8043  -11.1437 N.am    1  UNL1       -0.2680
      4 C         -21.3371   -7.1582  -11.7876 C.3     1  UNL1        0.1412
      5 C         -20.9063   -7.9596  -13.0140 C.3     1  UNL1        0.2268
      6 O         -22.0275   -8.5171  -13.6979 O.3     1  UNL1       -0.4739
      7 C         -23.1489   -7.7598  -14.0439 C.ar    1  UNL1        0.1362
      8 C         -23.4324   -7.5772  -15.4001 C.ar    1  UNL1        0.0366
      9 C         -24.5227   -6.8046  -15.7995 C.ar    1  UNL1        0.0031
     10 C         -25.3622   -6.2118  -14.8436 C.ar    1  UNL1        0.0001
     11 C         -25.0931   -6.4182  -13.4792 C.ar    1  UNL1        0.0004
     12 C         -23.9897   -7.1834  -13.0620 C.ar    1  UNL1        0.0317
     13 C         -23.8544   -7.4829  -11.5778 C.3     1  UNL1        0.1236
     14 C         -26.5262   -5.3923  -15.2663 C.ar    1  UNL1        0.0045
     15 C         -26.3864   -4.4168  -16.2927 C.ar    1  UNL1        0.0383
     16 C         -27.4839   -3.6347  -16.7003 C.ar    1  UNL1        0.1526
     17 O         -27.3380   -2.6839  -17.7080 O.3     1  UNL1       -0.5039
     18 C         -28.7066   -3.8500  -16.0639 C.ar    1  UNL1        0.1320
     19 N         -29.8777   -3.2246  -16.2848 N.ar    1  UNL1       -0.2210
     20 C         -30.7138   -3.8224  -15.3958 C.ar    1  UNL1        0.1751
     21 N         -30.1123   -4.7772  -14.6470 N.ar    1  UNL1       -0.3348
     22 C         -28.8469   -4.7819  -15.0823 C.ar    1  UNL1        0.0787
     23 C         -27.7881   -5.5756  -14.6506 C.ar    1  UNL1        0.0187
     24 H         -28.1163   -2.1126  -18.0151 H       1  UNL1        0.2923
     25 H         -30.5404   -5.3712  -13.9025 H       1  UNL1        0.1675
     26 C         -20.7896  -10.5688  -10.4703 C.ar    1  UNL1       -0.0165
     27 C         -19.5790  -11.2449  -10.2390 C.ar    1  UNL1        0.0142
     28 C         -18.6570  -10.7649   -9.3014 C.ar    1  UNL1        0.1054
     29 C         -18.9399   -9.5962   -8.5876 C.ar    1  UNL1        0.0185
     30 C         -20.1369   -8.9131   -8.8052 C.ar    1  UNL1        0.0055
     31 C         -21.0621   -9.3798   -9.7496 C.ar    1  UNL1        0.0497
     32 S         -17.1388  -11.6174   -9.0422 S.O2    1  UNL1        0.0104
     33 C         -16.8762  -11.8342   -7.2971 C.3     1  UNL1        0.1816
     34 O         -17.1846  -12.9616   -9.7134 O.2     1  UNL1       -0.1686
     35 O         -16.0046  -10.8243   -9.6282 O.2     1  UNL1       -0.1686
     36 C         -21.7817  -11.1763  -11.4416 C.3     1  UNL1        0.0265
     37 C         -21.6490  -12.0300  -13.8356 C.3     1  UNL1        0.0004
     38 C         -21.1106  -12.1586  -12.4119 C.3     1  UNL1        0.0047
@<TRIPOS>BOND
     1    37    38    1
     2    38    36    1
     3    36    26    1
     4    26    27   ar
     5    27    28   ar
     6    28    32    1
     7    32    33    1
     8    32    34    2
     9    32    35    2
    10    28    29   ar
    11    29    30   ar
    12    30    31   ar
    13    31     1    1
    14     1     2    2
    15     1     3   am
    16     3     4    1
    17     4     5    1
    18     5     6    1
    19     6     7    1
    20     7     8   ar
    21     8     9   ar
    22     9    10   ar
    23    10    14    1
    24    14    15   ar
    25    15    16   ar
    26    16    17    1
    27    16    18   ar
    28    18    19   ar
    29    19    20   ar
    30    20    21   ar
    31    21    22   ar
    32    22    23   ar
    33    10    11   ar
    34    11    12   ar
    35    12    13    1
    36    31    26   ar
    37    13     3    1
    38    12     7   ar
    39    23    14   ar
    40    22    18   ar
    41    17    24    1
    42    21    25    1
@<TRIPOS>MOLECULE
*****
 38 42 0 0 0
SMALL
GASTEIGER

@<TRIPOS>ATOM
      1 C         -21.9952   -9.3291  -13.2884 C.2     1  UNL1        0.2491
      2 O         -21.6605   -9.4919  -14.4930 O.2     1  UNL1       -0.2699
      3 N         -23.2993   -8.8048  -12.9668 N.am    1  UNL1       -0.2680
      4 C         -23.9911   -9.2418  -11.7493 C.3     1  UNL1        0.1412
      5 C         -23.8550   -8.1796  -10.6607 C.3     1  UNL1        0.2268
      6 O         -23.8987   -6.8613  -11.2046 O.3     1  UNL1       -0.4739
      7 C         -24.8927   -6.4484  -12.0946 C.ar    1  UNL1        0.1362
      8 C         -25.7714   -5.4415  -11.6859 C.ar    1  UNL1        0.0366
      9 C         -26.8003   -5.0138  -12.5248 C.ar    1  UNL1        0.0031
     10 C         -26.9584   -5.5778  -13.8002 C.ar    1  UNL1        0.0001
     11 C         -26.0576   -6.5714  -14.2221 C.ar    1  UNL1        0.0004
     12 C         -25.0240   -7.0218  -13.3819 C.ar    1  UNL1        0.0317
     13 C         -24.0050   -7.9871  -13.9656 C.3     1  UNL1        0.1236
     14 C         -28.0505   -5.1212  -14.6969 C.ar    1  UNL1        0.0045
     15 C         -29.3583   -5.6689  -14.5770 C.ar    1  UNL1        0.0383
     16 C         -30.4002   -5.2427  -15.4226 C.ar    1  UNL1        0.1526
     17 O         -31.6782   -5.7827  -15.2959 O.3     1  UNL1       -0.5039
     18 C         -30.1046   -4.2695  -16.3774 C.ar    1  UNL1        0.1320
     19 N         -30.9329   -3.7195  -17.2846 N.ar    1  UNL1       -0.2210
     20 C         -30.1254   -2.8475  -17.9437 C.ar    1  UNL1        0.1751
     21 N         -28.8512   -2.8392  -17.4849 N.ar    1  UNL1       -0.3348
     22 C         -28.8562   -3.7413  -16.4966 C.ar    1  UNL1        0.0787
     23 C         -27.7992   -4.1342  -15.6807 C.ar    1  UNL1        0.0187
     24 H         -32.4405   -5.4881  -15.8946 H       1  UNL1        0.2923
     25 H         -28.0516   -2.2607  -17.8261 H       1  UNL1        0.1675
     26 C         -20.2424   -8.7236  -11.5697 C.ar    1  UNL1       -0.0165
     27 C         -19.3661   -9.1371  -10.5511 C.ar    1  UNL1        0.0142
     28 C         -19.2633  -10.4876  -10.1976 C.ar    1  UNL1        0.1054
     29 C         -20.0438  -11.4387  -10.8621 C.ar    1  UNL1        0.0185
     30 C         -20.9185  -11.0451  -11.8754 C.ar    1  UNL1        0.0055
     31 C         -21.0366   -9.6937  -12.2297 C.ar    1  UNL1        0.0497
     32 S         -18.1736  -10.9799   -8.9057 S.O2    1  UNL1        0.0104
     33 C         -18.5103  -10.0135   -7.4517 C.3     1  UNL1        0.1816
     34 O         -18.3710  -12.4375   -8.5961 O.2     1  UNL1       -0.1686
     35 O         -16.7489  -10.7666   -9.3343 O.2     1  UNL1       -0.1686
     36 C         -20.2557   -7.2594  -11.9604 C.3     1  UNL1        0.0265
     37 C         -21.0459   -4.9249  -11.3248 C.3     1  UNL1        0.0004
     38 C         -20.9152   -6.3825  -10.8866 C.3     1  UNL1        0.0047
@<TRIPOS>BOND
     1    37    38    1
     2    38    36    1
     3    36    26    1
     4    26    27   ar
     5    27    28   ar
     6    28    32    1
     7    32    33    1
     8    32    34    2
     9    32    35    2
    10    28    29   ar
    11    29    30   ar
    12    30    31   ar
    13    31     1    1
    14     1     2    2
    15     1     3   am
    16     3     4    1
    17     4     5    1
    18     5     6    1
    19     6     7    1
    20     7     8   ar
    21     8     9   ar
    22     9    10   ar
    23    10    14    1
    24    14    15   ar
    25    15    16   ar
    26    16    17    1
    27    16    18   ar
    28    18    19   ar
    29    19    20   ar
    30    20    21   ar
    31    21    22   ar
    32    22    23   ar
    33    10    11   ar
    34    11    12   ar
    35    12    13    1
    36    31    26   ar
    37    13     3    1
    38    12     7   ar
    39    23    14   ar
    40    22    18   ar
    41    17    24    1
    42    21    25    1
@<TRIPOS>MOLECULE
*****
 38 42 0 0 0
SMALL
GASTEIGER

@<TRIPOS>ATOM
      1 C         -21.4878   -6.8871  -11.0631 C.2     1  UNL1        0.2491
      2 O         -21.3753   -5.7041  -10.6420 O.2     1  UNL1       -0.2699
      3 N         -22.4620   -7.2018  -12.0783 N.am    1  UNL1       -0.2680
      4 C         -22.1873   -8.2518  -13.0652 C.3     1  UNL1        0.1412
      5 C         -22.9214   -9.5347  -12.6816 C.3     1  UNL1        0.2268
      6 O         -24.1977   -9.2581  -12.1071 O.3     1  UNL1       -0.4739
      7 C         -25.1171   -8.3909  -12.7017 C.ar    1  UNL1        0.1362
      8 C         -26.3302   -8.9187  -13.1522 C.ar    1  UNL1        0.0366
      9 C         -27.2701   -8.1017  -13.7801 C.ar    1  UNL1        0.0031
     10 C         -27.0180   -6.7321  -13.9543 C.ar    1  UNL1        0.0001
     11 C         -25.8094   -6.1957  -13.4765 C.ar    1  UNL1        0.0004
     12 C         -24.8470   -7.0099  -12.8538 C.ar    1  UNL1        0.0317
     13 C         -23.6371   -6.3303  -12.2331 C.3     1  UNL1        0.1236
     14 C         -28.0190   -5.8592  -14.6187 C.ar    1  UNL1        0.0045
     15 C         -29.4111   -6.0993  -14.4480 C.ar    1  UNL1        0.0383
     16 C         -30.3679   -5.2776  -15.0739 C.ar    1  UNL1        0.1526
     17 O         -31.7288   -5.5188  -14.8986 O.3     1  UNL1       -0.5039
     18 C         -29.9033   -4.2257  -15.8636 C.ar    1  UNL1        0.1320
     19 N         -30.6269   -3.3235  -16.5521 N.ar    1  UNL1       -0.2210
     20 C         -29.6733   -2.5478  -17.1316 C.ar    1  UNL1        0.1751
     21 N         -28.4095   -2.9313  -16.8315 N.ar    1  UNL1       -0.3348
     22 C         -28.5734   -3.9904  -16.0301 C.ar    1  UNL1        0.0787
     23 C         -27.5957   -4.7779  -15.4290 C.ar    1  UNL1        0.0187
     24 H         -32.4317   -4.9380  -15.3402 H       1  UNL1        0.2923
     25 H         -27.5155   -2.4980  -17.1530 H       1  UNL1        0.1675
     26 C         -20.9694   -8.7003   -9.3788 C.ar    1  UNL1       -0.0165
     27 C         -20.0876   -9.6922   -8.9152 C.ar    1  UNL1        0.0142
     28 C         -18.8562   -9.9083   -9.5447 C.ar    1  UNL1        0.1054
     29 C         -18.4982   -9.1317  -10.6510 C.ar    1  UNL1        0.0185
     30 C         -19.3618   -8.1431  -11.1238 C.ar    1  UNL1        0.0055
     31 C         -20.6020   -7.9258  -10.5069 C.ar    1  UNL1        0.0497
     32 S         -17.7763  -11.1690   -8.9587 S.O2    1  UNL1        0.0104
     33 C         -18.2160  -12.7179   -9.7131 C.3     1  UNL1        0.1816
     34 O         -16.3541  -10.8279   -9.3057 O.2     1  UNL1       -0.1686
     35 O         -17.8938  -11.2844   -7.4648 O.2     1  UNL1       -0.1686
     36 C         -22.2544   -8.4608   -8.6119 C.3     1  UNL1        0.0265
     37 C         -24.6593   -9.1708   -9.0487 C.3     1  UNL1        0.0004
     38 C         -23.2348   -9.6342   -8.7494 C.3     1  UNL1        0.0047
@<TRIPOS>BOND
     1    37    38    1
     2    38    36    1
     3    36    26    1
     4    26    27   ar
     5    27    28   ar
     6    28    32    1
     7    32    33    1
     8    32    34    2
     9    32    35    2
    10    28    29   ar
    11    29    30   ar
    12    30    31   ar
    13    31     1    1
    14     1     2    2
    15     1     3   am
    16     3     4    1
    17     4     5    1
    18     5     6    1
    19     6     7    1
    20     7     8   ar
    21     8     9   ar
    22     9    10   ar
    23    10    14    1
    24    14    15   ar
    25    15    16   ar
    26    16    17    1
    27    16    18   ar
    28    18    19   ar
    29    19    20   ar
    30    20    21   ar
    31    21    22   ar
    32    22    23   ar
    33    10    11   ar
    34    11    12   ar
    35    12    13    1
    36    31    26   ar
    37    13     3    1
    38    12     7   ar
    39    23    14   ar
    40    22    18   ar
    41    17    24    1
    42    21    25    1
@<TRIPOS>MOLECULE
*****
 38 42 0 0 0
SMALL
GASTEIGER

@<TRIPOS>ATOM
      1 C         -22.0014   -8.9882   -9.7377 C.2     1  UNL1        0.2491
      2 O         -22.8881   -9.1811   -8.8623 O.2     1  UNL1       -0.2699
      3 N         -22.2747   -8.1309  -10.8643 N.am    1  UNL1       -0.2680
      4 C         -21.2008   -7.3270  -11.4581 C.3     1  UNL1        0.1412
      5 C         -20.6942   -7.9932  -12.7353 C.3     1  UNL1        0.2268
      6 O         -21.7545   -8.6148  -13.4599 O.3     1  UNL1       -0.4739
      7 C         -22.9492   -7.9551  -13.7567 C.ar    1  UNL1        0.1362
      8 C         -23.2550   -7.7096  -15.0982 C.ar    1  UNL1        0.0366
      9 C         -24.4205   -7.0279  -15.4471 C.ar    1  UNL1        0.0031
     10 C         -25.3132   -6.5921  -14.4555 C.ar    1  UNL1        0.0001
     11 C         -25.0193   -6.8633  -13.1077 C.ar    1  UNL1        0.0004
     12 C         -23.8413   -7.5376  -12.7404 C.ar    1  UNL1        0.0317
     13 C         -23.6705   -7.9232  -11.2799 C.3     1  UNL1        0.1236
     14 C         -26.5570   -5.8699  -14.8248 C.ar    1  UNL1        0.0045
     15 C         -27.8209   -6.3240  -14.3546 C.ar    1  UNL1        0.0383
     16 C         -29.0059   -5.6462  -14.6994 C.ar    1  UNL1        0.1526
     17 O         -30.2386   -6.0967  -14.2319 O.3     1  UNL1       -0.5039
     18 C         -28.8958   -4.5197  -15.5148 C.ar    1  UNL1        0.1320
     19 N         -29.8828   -3.7254  -15.9692 N.ar    1  UNL1       -0.2210
     20 C         -29.2134   -2.8010  -16.7070 C.ar    1  UNL1        0.1751
     21 N         -27.8728   -2.9923  -16.7248 N.ar    1  UNL1       -0.3348
     22 C         -27.6900   -4.0799  -15.9670 C.ar    1  UNL1        0.0787
     23 C         -26.4957   -4.7202  -15.6492 C.ar    1  UNL1        0.0187
     24 H         -31.1016   -5.6217  -14.4687 H       1  UNL1        0.2923
     25 H         -27.1510   -2.4206  -17.2172 H       1  UNL1        0.1675
     26 C         -19.7482   -9.2107   -8.6121 C.ar    1  UNL1       -0.0165
     27 C         -18.5269   -9.8969   -8.4951 C.ar    1  UNL1        0.0142
     28 C         -18.2326  -10.9844   -9.3259 C.ar    1  UNL1        0.1054
     29 C         -19.1653  -11.3975  -10.2824 C.ar    1  UNL1        0.0185
     30 C         -20.3822  -10.7273  -10.4116 C.ar    1  UNL1        0.0055
     31 C         -20.6909   -9.6436   -9.5772 C.ar    1  UNL1        0.0497
     32 S         -16.7049  -11.8409   -9.1484 S.O2    1  UNL1        0.0104
     33 C         -16.4541  -12.2481   -7.4359 C.3     1  UNL1        0.1816
     34 O         -16.7262  -13.1021   -9.9660 O.2     1  UNL1       -0.1686
     35 O         -15.5769  -10.9726   -9.6308 O.2     1  UNL1       -0.1686
     36 C         -19.9800   -7.9948   -7.7377 C.3     1  UNL1        0.0265
     37 C         -19.7259   -8.5652   -5.2703 C.3     1  UNL1        0.0004
     38 C         -19.0551   -7.9815   -6.5124 C.3     1  UNL1        0.0047
@<TRIPOS>BOND
     1    37    38    1
     2    38    36    1
     3    36    26    1
     4    26    27   ar
     5    27    28   ar
     6    28    32    1
     7    32    33    1
     8    32    34    2
     9    32    35    2
    10    28    29   ar
    11    29    30   ar
    12    30    31   ar
    13    31     1    1
    14     1     2    2
    15     1     3   am
    16     3     4    1
    17     4     5    1
    18     5     6    1
    19     6     7    1
    20     7     8   ar
    21     8     9   ar
    22     9    10   ar
    23    10    14    1
    24    14    15   ar
    25    15    16   ar
    26    16    17    1
    27    16    18   ar
    28    18    19   ar
    29    19    20   ar
    30    20    21   ar
    31    21    22   ar
    32    22    23   ar
    33    10    11   ar
    34    11    12   ar
    35    12    13    1
    36    31    26   ar
    37    13     3    1
    38    12     7   ar
    39    23    14   ar
    40    22    18   ar
    41    17    24    1
    42    21    25    1
@<TRIPOS>MOLECULE
*****
 38 42 0 0 0
SMALL
GASTEIGER

@<TRIPOS>ATOM
      1 C         -22.3807   -8.3965  -12.0742 C.2     1  UNL1        0.2491
      2 O         -22.7357   -7.1895  -11.9923 O.2     1  UNL1       -0.2699
      3 N         -21.8182   -9.0623  -10.9256 N.am    1  UNL1       -0.2680
      4 C         -22.0550  -10.4944  -10.7128 C.3     1  UNL1        0.1412
      5 C         -20.8289  -11.2965  -11.1431 C.3     1  UNL1        0.2268
      6 O         -19.6170  -10.6079  -10.8384 O.3     1  UNL1       -0.4739
      7 C         -19.3600  -10.0609   -9.5794 C.ar    1  UNL1        0.1362
      8 C         -18.3048  -10.5887   -8.8303 C.ar    1  UNL1        0.0366
      9 C         -18.0251  -10.0988   -7.5548 C.ar    1  UNL1        0.0031
     10 C         -18.7901   -9.0555   -7.0105 C.ar    1  UNL1        0.0001
     11 C         -19.8342   -8.5059   -7.7750 C.ar    1  UNL1        0.0004
     12 C         -20.1361   -8.9989   -9.0567 C.ar    1  UNL1        0.0317
     13 C         -21.1779   -8.2544   -9.8760 C.3     1  UNL1        0.1236
     14 C         -18.4916   -8.5292   -5.6544 C.ar    1  UNL1        0.0045
     15 C         -17.1639   -8.5639   -5.1438 C.ar    1  UNL1        0.0383
     16 C         -16.8708   -8.0676   -3.8593 C.ar    1  UNL1        0.1526
     17 O         -15.5672   -8.1032   -3.3690 O.3     1  UNL1       -0.5039
     18 C         -17.9243   -7.5440   -3.1095 C.ar    1  UNL1        0.1320
     19 N         -17.8805   -7.0224   -1.8695 N.ar    1  UNL1       -0.2210
     20 C         -19.1746   -6.6774   -1.6393 C.ar    1  UNL1        0.1751
     21 N         -20.0015   -6.9621   -2.6735 N.ar    1  UNL1       -0.3348
     22 C         -19.1960   -7.5073   -3.5924 C.ar    1  UNL1        0.0787
     23 C         -19.5278   -7.9866   -4.8564 C.ar    1  UNL1        0.0187
     24 H         -15.3370   -7.7502   -2.4476 H       1  UNL1        0.2923
     25 H         -21.0301   -6.7934   -2.7359 H       1  UNL1        0.1675
     26 C         -23.8049   -9.6764  -13.7255 C.ar    1  UNL1       -0.0165
     27 C         -23.9161  -10.3163  -14.9723 C.ar    1  UNL1        0.0142
     28 C         -22.8166  -10.4043  -15.8341 C.ar    1  UNL1        0.1054
     29 C         -21.5922   -9.8462  -15.4539 C.ar    1  UNL1        0.0185
     30 C         -21.4648   -9.2077  -14.2199 C.ar    1  UNL1        0.0055
     31 C         -22.5628   -9.1049  -13.3540 C.ar    1  UNL1        0.0497
     32 S         -22.9844  -11.1933  -17.3988 S.O2    1  UNL1        0.0104
     33 C         -24.2108  -12.4754  -17.2828 C.3     1  UNL1        0.1816
     34 O         -23.4042  -10.1900  -18.4364 O.2     1  UNL1       -0.1686
     35 O         -21.6679  -11.7903  -17.8103 O.2     1  UNL1       -0.1686
     36 C         -25.0073   -9.6780  -12.8031 C.3     1  UNL1        0.0265
     37 C         -26.3767   -7.6710  -12.0451 C.3     1  UNL1        0.0004
     38 C         -26.0391   -8.6126  -13.1996 C.3     1  UNL1        0.0047
@<TRIPOS>BOND
     1    37    38    1
     2    38    36    1
     3    36    26    1
     4    26    27   ar
     5    27    28   ar
     6    28    32    1
     7    32    33    1
     8    32    34    2
     9    32    35    2
    10    28    29   ar
    11    29    30   ar
    12    30    31   ar
    13    31     1    1
    14     1     2    2
    15     1     3   am
    16     3     4    1
    17     4     5    1
    18     5     6    1
    19     6     7    1
    20     7     8   ar
    21     8     9   ar
    22     9    10   ar
    23    10    14    1
    24    14    15   ar
    25    15    16   ar
    26    16    17    1
    27    16    18   ar
    28    18    19   ar
    29    19    20   ar
    30    20    21   ar
    31    21    22   ar
    32    22    23   ar
    33    10    11   ar
    34    11    12   ar
    35    12    13    1
    36    31    26   ar
    37    13     3    1
    38    12     7   ar
    39    23    14   ar
    40    22    18   ar
    41    17    24    1
    42    21    25    1
@<TRIPOS>MOLECULE
*****
 38 42 0 0 0
SMALL
GASTEIGER

@<TRIPOS>ATOM
      1 C         -22.1024   -6.5307  -11.5053 C.2     1  UNL1        0.2491
      2 O         -21.3054   -5.5538  -11.5126 O.2     1  UNL1       -0.2699
      3 N         -21.7529   -7.7414  -10.8044 N.am    1  UNL1       -0.2680
      4 C         -22.7954   -8.5516  -10.1650 C.3     1  UNL1        0.1412
      5 C         -23.1306   -9.7574  -11.0400 C.3     1  UNL1        0.2268
      6 O         -21.9704  -10.2729  -11.6911 O.3     1  UNL1       -0.4739
      7 C         -20.7844  -10.5473  -11.0065 C.ar    1  UNL1        0.1362
      8 C         -20.3502  -11.8740  -10.9387 C.ar    1  UNL1        0.0366
      9 C         -19.1886  -12.2058  -10.2418 C.ar    1  UNL1        0.0031
     10 C         -18.4286  -11.2086   -9.6111 C.ar    1  UNL1        0.0001
     11 C         -18.8505   -9.8706   -9.7025 C.ar    1  UNL1        0.0004
     12 C         -20.0266   -9.5230  -10.3902 C.ar    1  UNL1        0.0317
     13 C         -20.3326   -8.0449  -10.5705 C.3     1  UNL1        0.1236
     14 C         -17.1891  -11.5589   -8.8720 C.ar    1  UNL1        0.0045
     15 C         -16.1137  -12.2119   -9.5366 C.ar    1  UNL1        0.0383
     16 C         -14.9346  -12.5483   -8.8446 C.ar    1  UNL1        0.1526
     17 O         -13.8858  -13.1850   -9.5045 O.3     1  UNL1       -0.5039
     18 C         -14.8602  -12.2202   -7.4908 C.ar    1  UNL1        0.1320
     19 N         -13.8437  -12.4451   -6.6378 N.ar    1  UNL1       -0.2210
     20 C         -14.3080  -11.9295   -5.4693 C.ar    1  UNL1        0.1751
     21 N         -15.5523  -11.4040   -5.5677 N.ar    1  UNL1       -0.3348
     22 C         -15.8849  -11.5950   -6.8497 C.ar    1  UNL1        0.0787
     23 C         -17.0664  -11.2448   -7.4967 C.ar    1  UNL1        0.0187
     24 H         -13.0296  -13.4342   -9.0236 H       1  UNL1        0.2923
     25 H         -16.1186  -10.9539   -4.8146 H       1  UNL1        0.1675
     26 C         -23.6560   -7.0987  -13.4176 C.ar    1  UNL1       -0.0165
     27 C         -24.9140   -6.9506  -14.0273 C.ar    1  UNL1        0.0142
     28 C         -25.8895   -6.1181  -13.4663 C.ar    1  UNL1        0.1054
     29 C         -25.6128   -5.4271  -12.2826 C.ar    1  UNL1        0.0185
     30 C         -24.3693   -5.5629  -11.6647 C.ar    1  UNL1        0.0055
     31 C         -23.3892   -6.4025  -12.2128 C.ar    1  UNL1        0.0497
     32 S         -27.4647   -5.9631  -14.2368 S.O2    1  UNL1        0.0104
     33 C         -28.3909   -7.4605  -13.9891 C.3     1  UNL1        0.1816
     34 O         -28.2150   -4.8048  -13.6410 O.2     1  UNL1       -0.1686
     35 O         -27.2879   -5.7170  -15.7089 O.2     1  UNL1       -0.1686
     36 C         -22.6139   -7.9536  -14.1104 C.3     1  UNL1        0.0265
     37 C         -21.4028   -8.2066  -16.3346 C.3     1  UNL1        0.0004
     38 C         -22.7192   -7.8644  -15.6394 C.3     1  UNL1        0.0047
@<TRIPOS>BOND
     1    37    38    1
     2    38    36    1
     3    36    26    1
     4    26    27   ar
     5    27    28   ar
     6    28    32    1
     7    32    33    1
     8    32    34    2
     9    32    35    2
    10    28    29   ar
    11    29    30   ar
    12    30    31   ar
    13    31     1    1
    14     1     2    2
    15     1     3   am
    16     3     4    1
    17     4     5    1
    18     5     6    1
    19     6     7    1
    20     7     8   ar
    21     8     9   ar
    22     9    10   ar
    23    10    14    1
    24    14    15   ar
    25    15    16   ar
    26    16    17    1
    27    16    18   ar
    28    18    19   ar
    29    19    20   ar
    30    20    21   ar
    31    21    22   ar
    32    22    23   ar
    33    10    11   ar
    34    11    12   ar
    35    12    13    1
    36    31    26   ar
    37    13     3    1
    38    12     7   ar
    39    23    14   ar
    40    22    18   ar
    41    17    24    1
    42    21    25    1
@<TRIPOS>MOLECULE
*****
 38 42 0 0 0
SMALL
GASTEIGER

@<TRIPOS>ATOM
      1 C         -25.9082   -6.0775  -15.0298 C.2     1  UNL1        0.2491
      2 O         -25.3096   -6.3075  -16.1154 O.2     1  UNL1       -0.2699
      3 N         -25.2971   -6.4461  -13.7771 N.am    1  UNL1       -0.2680
      4 C         -25.5264   -5.6347  -12.5766 C.3     1  UNL1        0.1412
      5 C         -26.5680   -6.3052  -11.6836 C.3     1  UNL1        0.2268
      6 O         -26.4424   -7.7262  -11.7054 O.3     1  UNL1       -0.4739
      7 C         -25.2208   -8.3754  -11.5134 C.ar    1  UNL1        0.1362
      8 C         -25.0707   -9.1843  -10.3836 C.ar    1  UNL1        0.0366
      9 C         -23.8614   -9.8307  -10.1292 C.ar    1  UNL1        0.0031
     10 C         -22.7809   -9.6914  -11.0141 C.ar    1  UNL1        0.0001
     11 C         -22.9407   -8.8999  -12.1650 C.ar    1  UNL1        0.0004
     12 C         -24.1497   -8.2315  -12.4272 C.ar    1  UNL1        0.0317
     13 C         -24.2918   -7.5200  -13.7631 C.3     1  UNL1        0.1236
     14 C         -21.4936  -10.3822  -10.7477 C.ar    1  UNL1        0.0045
     15 C         -21.2190  -11.6477  -11.3375 C.ar    1  UNL1        0.0383
     16 C         -20.0016  -12.3106  -11.0908 C.ar    1  UNL1        0.1526
     17 O         -19.7405  -13.5481  -11.6750 O.3     1  UNL1       -0.5039
     18 C         -19.0800  -11.6848  -10.2511 C.ar    1  UNL1        0.1320
     19 N         -17.8661  -12.1283   -9.8755 N.ar    1  UNL1       -0.2210
     20 C         -17.4166  -11.1339   -9.0656 C.ar    1  UNL1        0.1751
     21 N         -18.2933  -10.1106   -8.9295 N.ar    1  UNL1       -0.3348
     22 C         -19.3364  -10.4744   -9.6847 C.ar    1  UNL1        0.0787
     23 C         -20.5262   -9.7858   -9.9031 C.ar    1  UNL1        0.0187
     24 H         -18.8701  -14.0397  -11.5099 H       1  UNL1        0.2923
     25 H         -18.1784   -9.2399   -8.3648 H       1  UNL1        0.1675
     26 C         -27.4986   -4.3371  -15.9436 C.ar    1  UNL1       -0.0165
     27 C         -28.7862   -3.7728  -15.9508 C.ar    1  UNL1        0.0142
     28 C         -29.7872   -4.2590  -15.1017 C.ar    1  UNL1        0.1054
     29 C         -29.5064   -5.3218  -14.2374 C.ar    1  UNL1        0.0185
     30 C         -28.2337   -5.8932  -14.2178 C.ar    1  UNL1        0.0055
     31 C         -27.2271   -5.4204  -15.0718 C.ar    1  UNL1        0.0497
     32 S         -31.3978   -3.5496  -15.1416 S.O2    1  UNL1        0.0104
     33 C         -31.6104   -2.6579  -16.6651 C.3     1  UNL1        0.1816
     34 O         -32.4370   -4.6313  -15.0442 O.2     1  UNL1       -0.1686
     35 O         -31.5683   -2.6112  -13.9800 O.2     1  UNL1       -0.1686
     36 C         -26.4350   -3.7205  -16.8298 C.3     1  UNL1        0.0265
     37 C         -25.9075   -4.9195  -19.0120 C.3     1  UNL1        0.0004
     38 C         -26.7714   -3.8664  -18.3206 C.3     1  UNL1        0.0047
@<TRIPOS>BOND
     1    37    38    1
     2    38    36    1
     3    36    26    1
     4    26    27   ar
     5    27    28   ar
     6    28    32    1
     7    32    33    1
     8    32    34    2
     9    32    35    2
    10    28    29   ar
    11    29    30   ar
    12    30    31   ar
    13    31     1    1
    14     1     2    2
    15     1     3   am
    16     3     4    1
    17     4     5    1
    18     5     6    1
    19     6     7    1
    20     7     8   ar
    21     8     9   ar
    22     9    10   ar
    23    10    14    1
    24    14    15   ar
    25    15    16   ar
    26    16    17    1
    27    16    18   ar
    28    18    19   ar
    29    19    20   ar
    30    20    21   ar
    31    21    22   ar
    32    22    23   ar
    33    10    11   ar
    34    11    12   ar
    35    12    13    1
    36    31    26   ar
    37    13     3    1
    38    12     7   ar
    39    23    14   ar
    40    22    18   ar
    41    17    24    1
    42    21    25    1
