@<TRIPOS>MOLECULE
*****
 56 62 0 0 0
SMALL
GASTEIGER

@<TRIPOS>ATOM
      1 C          -5.3941   -8.1009   31.0588 C.3     1  UNL1        0.1239
      2 C          -5.3520   -8.3136   29.5486 C.3     1  UNL1        0.0374
      3 C          -5.5323   -9.8093   29.3593 C.3     1  UNL1        0.0739
      4 N          -5.0679  -10.4792   30.5877 N.3     1  UNL1       -0.2638
      5 C          -4.8390   -9.4279   31.5972 C.3     1  UNL1        0.0913
      6 C          -6.7987   -7.8721   31.6187 C.2     1  UNL1        0.2359
      7 O          -7.3491   -8.7970   32.2772 O.2     1  UNL1       -0.2739
      8 N          -7.5314   -6.6590   31.3656 N.am    1  UNL1       -0.2832
      9 H          -7.0115   -5.7557   31.3729 H       1  UNL1        0.1549
     10 C          -8.9587   -6.5884   31.1764 C.ar    1  UNL1        0.0505
     11 C          -9.6260   -5.3519   30.9427 C.ar    1  UNL1        0.0162
     12 C         -11.0247   -5.3042   30.7982 C.ar    1  UNL1        0.0198
     13 C         -11.7298   -6.4964   30.9202 C.ar    1  UNL1        0.0754
     14 N         -13.0579   -6.6822   30.8739 N.ar    1  UNL1       -0.2757
     15 N         -13.3126   -7.9638   31.1106 N.ar    1  UNL1       -0.1726
     16 C         -12.1342   -8.6039   31.3143 C.ar    1  UNL1        0.1038
     17 C         -11.1076   -7.6824   31.1796 C.ar    1  UNL1        0.0376
     18 C          -9.7231   -7.7710   31.3134 C.ar    1  UNL1        0.0177
     19 H         -13.7872   -5.9550   30.7022 H       1  UNL1        0.1889
     20 C         -12.0180  -10.0452   31.6390 C.ar    1  UNL1        0.0450
     21 C         -12.3753  -10.4807   32.9261 C.ar    1  UNL1        0.1038
     22 N         -12.2245  -11.7815   33.2830 N.ar    1  UNL1       -0.2101
     23 C         -11.7093  -12.7058   32.4303 C.ar    1  UNL1        0.2250
     24 C         -11.3145  -12.3208   31.1509 C.ar    1  UNL1        0.0642
     25 C         -11.4888  -10.9947   30.7245 C.ar    1  UNL1        0.0831
     26 C         -11.1628  -10.6714   29.3139 C.2     1  UNL1        0.3383
     27 O         -11.7706  -11.2337   28.3641 O.2     1  UNL1       -0.2451
     28 O         -10.1321   -9.7803   29.0272 O.3     1  UNL1       -0.4771
     29 H          -9.8788   -9.5684   28.0695 H       1  UNL1        0.2954
     30 O         -11.5783  -14.0463   32.8114 O.3     1  UNL1       -0.4640
     31 C         -12.6658  -14.8524   33.2648 C.3     1  UNL1        0.1678
     32 C         -12.6033  -15.0125   34.7861 C.3     1  UNL1        0.0473
     33 C         -12.5902  -16.2155   32.5803 C.3     1  UNL1        0.0473
     34 C          -4.1918   -7.0819   33.3401 C.3     1  UNL1        0.0696
     35 S          -4.2729   -6.7149   31.5526 S.3     1  UNL1       -0.1308
     36 C          -6.0105  -11.5064   31.0780 C.3     1  UNL1        0.1587
     37 C          -7.2844  -11.5106   30.2651 C.2     1  UNL1        0.2423
     38 O          -8.1304  -10.5985   30.4712 O.2     1  UNL1       -0.2733
     39 N          -7.5816  -12.5627   29.3211 N.am    1  UNL1       -0.2740
     40 C          -6.4828  -13.2877   28.6591 C.3     1  UNL1        0.1196
     41 C          -6.9472  -14.1842   27.5467 C.2     1  UNL1       -0.0089
     42 C          -8.1790  -14.7107   27.5334 C.2     1  UNL1       -0.0231
     43 C          -9.1514  -14.3359   28.6194 C.3     1  UNL1        0.0476
     44 C          -8.9849  -12.8619   28.9981 C.3     1  UNL1        0.0984
     45 C          -8.5403  -15.7415   26.5318 C.ar    1  UNL1       -0.0042
     46 C          -8.9551  -17.0211   26.9369 C.ar    1  UNL1       -0.0002
     47 C          -9.3328  -17.9758   25.9894 C.ar    1  UNL1        0.0031
     48 C          -9.3160  -17.6644   24.6196 C.ar    1  UNL1        0.0375
     49 C          -8.8844  -16.3906   24.2143 C.ar    1  UNL1        0.0031
     50 C          -8.4945  -15.4405   25.1615 C.ar    1  UNL1       -0.0002
     51 C          -9.7819  -18.6495   23.6213 C.ar    1  UNL1        0.1832
     52 N         -10.1965  -19.8999   23.9332 N.ar    1  UNL1       -0.2034
     53 C         -10.5398  -20.3999   22.7304 C.ar    1  UNL1        0.1972
     54 N         -10.3525  -19.4933   21.7584 N.ar    1  UNL1       -0.2281
     55 C         -10.5534  -19.6917   20.3305 C.3     1  UNL1        0.1556
     56 N          -9.8641  -18.3939   22.2993 N.ar    1  UNL1       -0.1484
@<TRIPOS>BOND
     1    34    35    1
     2     1    35    1
     3     1     6    1
     4     6     7    2
     5     6     8   am
     6     8    10    1
     7    10    11   ar
     8    11    12   ar
     9    12    13   ar
    10    13    14   ar
    11    14    15   ar
    12    15    16   ar
    13    16    20    1
    14    20    21   ar
    15    21    22   ar
    16    22    23   ar
    17    23    30    1
    18    30    31    1
    19    31    32    1
    20    31    33    1
    21    23    24   ar
    22    24    25   ar
    23    25    26    1
    24    26    27    2
    25    26    28    1
    26    16    17   ar
    27    17    18   ar
    28     1     2    1
    29     2     3    1
    30     3     4    1
    31     4    36    1
    32    36    37    1
    33    37    38    2
    34    37    39   am
    35    39    40    1
    36    40    41    1
    37    41    42    2
    38    42    45    1
    39    45    46   ar
    40    46    47   ar
    41    47    48   ar
    42    48    51    1
    43    51    52   ar
    44    52    53   ar
    45    53    54   ar
    46    54    55    1
    47    54    56   ar
    48    48    49   ar
    49    49    50   ar
    50    42    43    1
    51    43    44    1
    52     4     5    1
    53     5     1    1
    54    18    10   ar
    55    44    39    1
    56    17    13   ar
    57    50    45   ar
    58    25    20   ar
    59    56    51   ar
    60     8     9    1
    61    14    19    1
    62    28    29    1
@<TRIPOS>MOLECULE
*****
 56 62 0 0 0
SMALL
GASTEIGER

@<TRIPOS>ATOM
      1 C         -11.8314  -12.6178   32.9628 C.3     1  UNL1        0.1239
      2 C         -10.9065  -12.3900   34.1545 C.3     1  UNL1        0.0374
      3 C          -9.5379  -12.1425   33.5455 C.3     1  UNL1        0.0739
      4 N          -9.5059  -12.7978   32.2253 N.3     1  UNL1       -0.2638
      5 C         -10.8840  -13.2256   31.9178 C.3     1  UNL1        0.0913
      6 C         -12.4547  -11.3388   32.4020 C.2     1  UNL1        0.2359
      7 O         -13.1418  -11.4094   31.3462 O.2     1  UNL1       -0.2739
      8 N         -12.2307  -10.0527   33.0088 N.am    1  UNL1       -0.2832
      9 H         -12.2101   -9.9927   34.0492 H       1  UNL1        0.1549
     10 C         -12.1074   -8.8142   32.2817 C.ar    1  UNL1        0.0505
     11 C         -13.2036   -7.9167   32.1335 C.ar    1  UNL1        0.0162
     12 C         -13.0686   -6.7316   31.3875 C.ar    1  UNL1        0.0198
     13 C         -11.8425   -6.4844   30.7799 C.ar    1  UNL1        0.0754
     14 N         -11.5034   -5.4577   29.9853 N.ar    1  UNL1       -0.2757
     15 N         -10.2599   -5.6472   29.5595 N.ar    1  UNL1       -0.1726
     16 C          -9.8001   -6.8101   30.0850 C.ar    1  UNL1        0.1038
     17 C         -10.7950   -7.3522   30.8833 C.ar    1  UNL1        0.0376
     18 C         -10.8866   -8.5279   31.6264 C.ar    1  UNL1        0.0177
     19 H         -12.1044   -4.6471   29.7173 H       1  UNL1        0.1889
     20 C          -8.4568   -7.3717   29.8087 C.ar    1  UNL1        0.0450
     21 C          -8.3603   -8.5748   29.0893 C.ar    1  UNL1        0.1038
     22 N          -7.1529   -9.1544   28.8695 N.ar    1  UNL1       -0.2101
     23 C          -5.9996   -8.6159   29.3458 C.ar    1  UNL1        0.2250
     24 C          -6.0424   -7.4378   30.0880 C.ar    1  UNL1        0.0642
     25 C          -7.2643   -6.7819   30.3064 C.ar    1  UNL1        0.0831
     26 C          -7.2330   -5.4703   30.9987 C.2     1  UNL1        0.3383
     27 O          -7.2434   -5.4023   32.2569 O.2     1  UNL1       -0.2451
     28 O          -7.2527   -4.2932   30.2552 O.3     1  UNL1       -0.4771
     29 H          -7.2584   -3.3891   30.7122 H       1  UNL1        0.2954
     30 O          -4.7623   -9.2197   29.0931 O.3     1  UNL1       -0.4640
     31 C          -4.4744  -10.5887   29.3776 C.3     1  UNL1        0.1678
     32 C          -4.7125  -10.8789   30.8619 C.3     1  UNL1        0.0473
     33 C          -3.0223  -10.8772   29.0028 C.3     1  UNL1        0.0473
     34 C         -12.2271  -14.7791   34.6541 C.3     1  UNL1        0.0696
     35 S         -13.1515  -13.8420   33.3878 S.3     1  UNL1       -0.1308
     36 C          -8.9569  -11.9303   31.1621 C.3     1  UNL1        0.1587
     37 C          -9.4594  -12.3514   29.8005 C.2     1  UNL1        0.2423
     38 O         -10.6544  -12.0894   29.4949 O.2     1  UNL1       -0.2733
     39 N          -8.6332  -13.1005   28.8825 N.am    1  UNL1       -0.2740
     40 C          -7.1676  -12.9557   28.9274 C.3     1  UNL1        0.1196
     41 C          -6.4693  -13.6152   27.7722 C.2     1  UNL1       -0.0089
     42 C          -7.0031  -14.6636   27.1315 C.2     1  UNL1       -0.0231
     43 C          -8.3722  -15.1483   27.5265 C.3     1  UNL1        0.0476
     44 C          -9.2754  -13.9638   27.8798 C.3     1  UNL1        0.0984
     45 C          -6.2072  -15.4116   26.1300 C.ar    1  UNL1       -0.0042
     46 C          -6.4637  -15.2667   24.7564 C.ar    1  UNL1       -0.0002
     47 C          -5.6838  -15.9436   23.8153 C.ar    1  UNL1        0.0031
     48 C          -4.6239  -16.7674   24.2296 C.ar    1  UNL1        0.0375
     49 C          -4.3791  -16.9256   25.6037 C.ar    1  UNL1        0.0031
     50 C          -5.1675  -16.2587   26.5448 C.ar    1  UNL1       -0.0002
     51 C          -3.7546  -17.4280   23.2336 C.ar    1  UNL1        0.1832
     52 N          -3.7658  -18.7594   22.9889 N.ar    1  UNL1       -0.2034
     53 C          -2.8486  -18.8818   22.0099 C.ar    1  UNL1        0.1972
     54 N          -2.3299  -17.6883   21.6811 N.ar    1  UNL1       -0.2281
     55 C          -1.2727  -17.4336   20.7136 C.3     1  UNL1        0.1556
     56 N          -2.8781  -16.7670   22.4496 N.ar    1  UNL1       -0.1484
@<TRIPOS>BOND
     1    34    35    1
     2     1    35    1
     3     1     6    1
     4     6     7    2
     5     6     8   am
     6     8    10    1
     7    10    11   ar
     8    11    12   ar
     9    12    13   ar
    10    13    14   ar
    11    14    15   ar
    12    15    16   ar
    13    16    20    1
    14    20    21   ar
    15    21    22   ar
    16    22    23   ar
    17    23    30    1
    18    30    31    1
    19    31    32    1
    20    31    33    1
    21    23    24   ar
    22    24    25   ar
    23    25    26    1
    24    26    27    2
    25    26    28    1
    26    16    17   ar
    27    17    18   ar
    28     1     2    1
    29     2     3    1
    30     3     4    1
    31     4    36    1
    32    36    37    1
    33    37    38    2
    34    37    39   am
    35    39    40    1
    36    40    41    1
    37    41    42    2
    38    42    45    1
    39    45    46   ar
    40    46    47   ar
    41    47    48   ar
    42    48    51    1
    43    51    52   ar
    44    52    53   ar
    45    53    54   ar
    46    54    55    1
    47    54    56   ar
    48    48    49   ar
    49    49    50   ar
    50    42    43    1
    51    43    44    1
    52     4     5    1
    53     5     1    1
    54    18    10   ar
    55    44    39    1
    56    17    13   ar
    57    50    45   ar
    58    25    20   ar
    59    56    51   ar
    60     8     9    1
    61    14    19    1
    62    28    29    1
@<TRIPOS>MOLECULE
*****
 56 62 0 0 0
SMALL
GASTEIGER

@<TRIPOS>ATOM
      1 C          -5.4343   -8.1261   31.1560 C.3     1  UNL1        0.1239
      2 C          -5.3909   -8.4042   29.6565 C.3     1  UNL1        0.0374
      3 C          -5.5857   -9.9048   29.5314 C.3     1  UNL1        0.0739
      4 N          -5.1308  -10.5256   30.7887 N.3     1  UNL1       -0.2638
      5 C          -4.8936   -9.4340   31.7527 C.3     1  UNL1        0.0913
      6 C          -6.8378   -7.8594   31.7018 C.2     1  UNL1        0.2359
      7 O          -7.3876   -8.7381   32.4212 O.2     1  UNL1       -0.2739
      8 N          -7.5701   -6.6653   31.3697 N.am    1  UNL1       -0.2832
      9 H          -7.0495   -5.7639   31.3160 H       1  UNL1        0.1549
     10 C          -8.9976   -6.6063   31.1786 C.ar    1  UNL1        0.0505
     11 C          -9.6749   -5.3750   30.9458 C.ar    1  UNL1        0.0162
     12 C         -11.0737   -5.3388   30.7994 C.ar    1  UNL1        0.0198
     13 C         -11.7690   -6.5370   30.9186 C.ar    1  UNL1        0.0754
     14 N         -13.0955   -6.7338   30.8701 N.ar    1  UNL1       -0.2757
     15 N         -13.3398   -8.0179   31.1045 N.ar    1  UNL1       -0.1726
     16 C         -12.1564   -8.6485   31.3089 C.ar    1  UNL1        0.1038
     17 C         -11.1374   -7.7182   31.1770 C.ar    1  UNL1        0.0376
     18 C          -9.7523   -7.7955   31.3127 C.ar    1  UNL1        0.0177
     19 H         -13.8305   -6.0124   30.6984 H       1  UNL1        0.1889
     20 C         -12.0287  -10.0892   31.6315 C.ar    1  UNL1        0.0450
     21 C         -12.4221  -10.5360   32.9042 C.ar    1  UNL1        0.1038
     22 N         -12.2631  -11.8359   33.2608 N.ar    1  UNL1       -0.2101
     23 C         -11.7051  -12.7483   32.4222 C.ar    1  UNL1        0.2250
     24 C         -11.2736  -12.3514   31.1584 C.ar    1  UNL1        0.0642
     25 C         -11.4542  -11.0263   30.7317 C.ar    1  UNL1        0.0831
     26 C         -11.0861  -10.6916   29.3341 C.2     1  UNL1        0.3383
     27 O         -11.6994  -11.2080   28.3621 O.2     1  UNL1       -0.2451
     28 O         -10.0111   -9.8426   29.0846 O.3     1  UNL1       -0.4771
     29 H          -9.7296   -9.6245   28.1363 H       1  UNL1        0.2954
     30 O         -11.5660  -14.0883   32.8021 O.3     1  UNL1       -0.4640
     31 C         -12.6528  -14.9082   33.2317 C.3     1  UNL1        0.1678
     32 C         -12.6408  -15.0408   34.7570 C.3     1  UNL1        0.0473
     33 C         -12.5264  -16.2811   32.5749 C.3     1  UNL1        0.0473
     34 C          -4.1496   -7.0797   33.3793 C.3     1  UNL1        0.0696
     35 S          -4.3003   -6.7313   31.5926 S.3     1  UNL1       -0.1308
     36 C          -6.0848  -11.5213   31.3204 C.3     1  UNL1        0.1587
     37 C          -7.3226  -11.6060   30.4577 C.2     1  UNL1        0.2423
     38 O          -8.3127  -10.8846   30.7570 O.2     1  UNL1       -0.2733
     39 N          -7.4205  -12.5349   29.3560 N.am    1  UNL1       -0.2740
     40 C          -6.2027  -12.9632   28.6457 C.3     1  UNL1        0.1196
     41 C          -6.4878  -13.7415   27.3927 C.2     1  UNL1       -0.0089
     42 C          -7.6143  -14.4512   27.2448 C.2     1  UNL1       -0.0231
     43 C          -8.6584  -14.4089   28.3281 C.3     1  UNL1        0.0476
     44 C          -8.7474  -13.0032   28.9278 C.3     1  UNL1        0.0984
     45 C          -7.7778  -15.3608   26.0864 C.ar    1  UNL1       -0.0042
     46 C          -6.9146  -15.2771   24.9811 C.ar    1  UNL1       -0.0002
     47 C          -7.0484  -16.1637   23.9097 C.ar    1  UNL1        0.0031
     48 C          -8.0392  -17.1595   23.9293 C.ar    1  UNL1        0.0375
     49 C          -8.9131  -17.2314   25.0267 C.ar    1  UNL1        0.0031
     50 C          -8.7871  -16.3364   26.0921 C.ar    1  UNL1       -0.0002
     51 C          -8.1366  -18.1416   22.8294 C.ar    1  UNL1        0.1832
     52 N          -9.3083  -18.6128   22.3416 N.ar    1  UNL1       -0.2034
     53 C          -8.9015  -19.4390   21.3584 C.ar    1  UNL1        0.1972
     54 N          -7.5630  -19.4490   21.2579 N.ar    1  UNL1       -0.2281
     55 C          -6.7623  -20.2644   20.3564 C.3     1  UNL1        0.1556
     56 N          -7.0673  -18.6505   22.1833 N.ar    1  UNL1       -0.1484
@<TRIPOS>BOND
     1    34    35    1
     2     1    35    1
     3     1     6    1
     4     6     7    2
     5     6     8   am
     6     8    10    1
     7    10    11   ar
     8    11    12   ar
     9    12    13   ar
    10    13    14   ar
    11    14    15   ar
    12    15    16   ar
    13    16    20    1
    14    20    21   ar
    15    21    22   ar
    16    22    23   ar
    17    23    30    1
    18    30    31    1
    19    31    32    1
    20    31    33    1
    21    23    24   ar
    22    24    25   ar
    23    25    26    1
    24    26    27    2
    25    26    28    1
    26    16    17   ar
    27    17    18   ar
    28     1     2    1
    29     2     3    1
    30     3     4    1
    31     4    36    1
    32    36    37    1
    33    37    38    2
    34    37    39   am
    35    39    40    1
    36    40    41    1
    37    41    42    2
    38    42    45    1
    39    45    46   ar
    40    46    47   ar
    41    47    48   ar
    42    48    51    1
    43    51    52   ar
    44    52    53   ar
    45    53    54   ar
    46    54    55    1
    47    54    56   ar
    48    48    49   ar
    49    49    50   ar
    50    42    43    1
    51    43    44    1
    52     4     5    1
    53     5     1    1
    54    18    10   ar
    55    44    39    1
    56    17    13   ar
    57    50    45   ar
    58    25    20   ar
    59    56    51   ar
    60     8     9    1
    61    14    19    1
    62    28    29    1
@<TRIPOS>MOLECULE
*****
 56 62 0 0 0
SMALL
GASTEIGER

@<TRIPOS>ATOM
      1 C         -11.7647  -12.7140   32.9844 C.3     1  UNL1        0.1239
      2 C         -10.8181  -12.4769   34.1571 C.3     1  UNL1        0.0374
      3 C          -9.4776  -12.1585   33.5192 C.3     1  UNL1        0.0739
      4 N          -9.4545  -12.7799   32.1826 N.3     1  UNL1       -0.2638
      5 C         -10.8219  -13.2568   31.9002 C.3     1  UNL1        0.0913
      6 C         -12.4544  -11.4487   32.4724 C.2     1  UNL1        0.2359
      7 O         -13.3149  -11.5536   31.5555 O.2     1  UNL1       -0.2739
      8 N         -12.1076  -10.1404   32.9627 N.am    1  UNL1       -0.2832
      9 H         -11.9064  -10.0298   33.9794 H       1  UNL1        0.1549
     10 C         -12.0914   -8.9427   32.1609 C.ar    1  UNL1        0.0505
     11 C         -13.2744   -8.4229   31.5615 C.ar    1  UNL1        0.0162
     12 C         -13.2266   -7.2730   30.7523 C.ar    1  UNL1        0.0198
     13 C         -11.9859   -6.6834   30.5368 C.ar    1  UNL1        0.0754
     14 N         -11.6944   -5.6240   29.7665 N.ar    1  UNL1       -0.2757
     15 N         -10.3793   -5.4402   29.7830 N.ar    1  UNL1       -0.1726
     16 C          -9.8234   -6.3951   30.5698 C.ar    1  UNL1        0.1038
     17 C         -10.8397   -7.1908   31.0750 C.ar    1  UNL1        0.0376
     18 C         -10.8500   -8.3186   31.8940 C.ar    1  UNL1        0.0177
     19 H         -12.3675   -5.0405   29.2219 H       1  UNL1        0.1889
     20 C          -8.3667   -6.5317   30.8055 C.ar    1  UNL1        0.0450
     21 C          -7.7283   -5.6111   31.6534 C.ar    1  UNL1        0.1038
     22 N          -6.3858   -5.6635   31.8459 N.ar    1  UNL1       -0.2101
     23 C          -5.6053   -6.5835   31.2204 C.ar    1  UNL1        0.2250
     24 C          -6.1849   -7.5026   30.3486 C.ar    1  UNL1        0.0642
     25 C          -7.5746   -7.5115   30.1495 C.ar    1  UNL1        0.0831
     26 C          -8.1472   -8.5886   29.3054 C.2     1  UNL1        0.3383
     27 O          -7.4724   -9.6131   29.0177 O.2     1  UNL1       -0.2451
     28 O          -9.4250   -8.4455   28.7711 O.3     1  UNL1       -0.4771
     29 H          -9.8211   -9.1592   28.1713 H       1  UNL1        0.2954
     30 O          -4.2247   -6.6325   31.4459 O.3     1  UNL1       -0.4640
     31 C          -3.6370   -6.9981   32.6945 C.3     1  UNL1        0.1678
     32 C          -4.6859   -7.6516   33.5983 C.3     1  UNL1        0.0473
     33 C          -3.0652   -5.7468   33.3574 C.3     1  UNL1        0.0473
     34 C         -12.2171  -14.6477   34.9195 C.3     1  UNL1        0.0696
     35 S         -13.0221  -14.0015   33.4125 S.3     1  UNL1       -0.1308
     36 C          -8.9702  -11.8652   31.1277 C.3     1  UNL1        0.1587
     37 C          -9.4618  -12.2948   29.7648 C.2     1  UNL1        0.2423
     38 O         -10.6439  -12.0051   29.4349 O.2     1  UNL1       -0.2733
     39 N          -8.6420  -13.0815   28.8730 N.am    1  UNL1       -0.2740
     40 C          -7.1738  -12.9766   28.9402 C.3     1  UNL1        0.1196
     41 C          -6.4754  -13.6742   27.8077 C.2     1  UNL1       -0.0089
     42 C          -7.0277  -14.7179   27.1751 C.2     1  UNL1       -0.0231
     43 C          -8.4160  -15.1581   27.5548 C.3     1  UNL1        0.0476
     44 C          -9.2915  -13.9434   27.8737 C.3     1  UNL1        0.0984
     45 C          -6.2366  -15.5041   26.1993 C.ar    1  UNL1       -0.0042
     46 C          -6.5678  -15.4952   24.8341 C.ar    1  UNL1       -0.0002
     47 C          -5.7942  -16.2062   23.9132 C.ar    1  UNL1        0.0031
     48 C          -4.6668  -16.9286   24.3384 C.ar    1  UNL1        0.0375
     49 C          -4.3464  -16.9515   25.7058 C.ar    1  UNL1        0.0031
     50 C          -5.1279  -16.2507   26.6280 C.ar    1  UNL1       -0.0002
     51 C          -3.8077  -17.6231   23.3567 C.ar    1  UNL1        0.1832
     52 N          -2.4612  -17.4914   23.3076 N.ar    1  UNL1       -0.2034
     53 C          -2.1264  -18.3137   22.2946 C.ar    1  UNL1        0.1972
     54 N          -3.2115  -18.9116   21.7780 N.ar    1  UNL1       -0.2281
     55 C          -3.2497  -19.8144   20.6369 C.3     1  UNL1        0.1556
     56 N          -4.2764  -18.4782   22.4246 N.ar    1  UNL1       -0.1484
@<TRIPOS>BOND
     1    34    35    1
     2     1    35    1
     3     1     6    1
     4     6     7    2
     5     6     8   am
     6     8    10    1
     7    10    11   ar
     8    11    12   ar
     9    12    13   ar
    10    13    14   ar
    11    14    15   ar
    12    15    16   ar
    13    16    20    1
    14    20    21   ar
    15    21    22   ar
    16    22    23   ar
    17    23    30    1
    18    30    31    1
    19    31    32    1
    20    31    33    1
    21    23    24   ar
    22    24    25   ar
    23    25    26    1
    24    26    27    2
    25    26    28    1
    26    16    17   ar
    27    17    18   ar
    28     1     2    1
    29     2     3    1
    30     3     4    1
    31     4    36    1
    32    36    37    1
    33    37    38    2
    34    37    39   am
    35    39    40    1
    36    40    41    1
    37    41    42    2
    38    42    45    1
    39    45    46   ar
    40    46    47   ar
    41    47    48   ar
    42    48    51    1
    43    51    52   ar
    44    52    53   ar
    45    53    54   ar
    46    54    55    1
    47    54    56   ar
    48    48    49   ar
    49    49    50   ar
    50    42    43    1
    51    43    44    1
    52     4     5    1
    53     5     1    1
    54    18    10   ar
    55    44    39    1
    56    17    13   ar
    57    50    45   ar
    58    25    20   ar
    59    56    51   ar
    60     8     9    1
    61    14    19    1
    62    28    29    1
@<TRIPOS>MOLECULE
*****
 56 62 0 0 0
SMALL
GASTEIGER

@<TRIPOS>ATOM
      1 C          -5.7716   -8.2177   30.9036 C.3     1  UNL1        0.1239
      2 C          -5.7534   -8.5236   29.4090 C.3     1  UNL1        0.0374
      3 C          -6.4250   -9.8791   29.2792 C.3     1  UNL1        0.0739
      4 N          -6.2577  -10.5904   30.5596 N.3     1  UNL1       -0.2638
      5 C          -5.7192   -9.6188   31.5306 C.3     1  UNL1        0.0913
      6 C          -7.0328   -7.4944   31.3782 C.2     1  UNL1        0.2359
      7 O          -7.2933   -7.4727   32.6125 O.2     1  UNL1       -0.2739
      8 N          -7.9586   -6.8921   30.4549 N.am    1  UNL1       -0.2832
      9 H          -7.5755   -6.3959   29.6221 H       1  UNL1        0.1549
     10 C          -9.3883   -6.8556   30.6349 C.ar    1  UNL1        0.0505
     11 C         -10.1123   -5.6292   30.6582 C.ar    1  UNL1        0.0162
     12 C         -11.5027   -5.6174   30.8728 C.ar    1  UNL1        0.0198
     13 C         -12.1354   -6.8366   31.0889 C.ar    1  UNL1        0.0754
     14 N         -13.4292   -7.0613   31.3651 N.ar    1  UNL1       -0.2757
     15 N         -13.5958   -8.3623   31.5731 N.ar    1  UNL1       -0.1726
     16 C         -12.3942   -8.9757   31.4319 C.ar    1  UNL1        0.1038
     17 C         -11.4495   -8.0156   31.1050 C.ar    1  UNL1        0.0376
     18 C         -10.0748   -8.0681   30.8810 C.ar    1  UNL1        0.0177
     19 H         -14.1894   -6.3487   31.4302 H       1  UNL1        0.1889
     20 C         -12.1773  -10.4294   31.6212 C.ar    1  UNL1        0.0450
     21 C         -12.9849  -11.3332   30.9105 C.ar    1  UNL1        0.1038
     22 N         -12.8604  -12.6710   31.1026 N.ar    1  UNL1       -0.2101
     23 C         -11.9752  -13.1900   31.9936 C.ar    1  UNL1        0.2250
     24 C         -11.1690  -12.3362   32.7433 C.ar    1  UNL1        0.0642
     25 C         -11.2351  -10.9474   32.5495 C.ar    1  UNL1        0.0831
     26 C         -10.2688  -10.0977   33.2876 C.2     1  UNL1        0.3383
     27 O          -9.4986   -9.3113   32.6745 O.2     1  UNL1       -0.2451
     28 O         -10.1644  -10.2084   34.6717 O.3     1  UNL1       -0.4771
     29 H          -9.4916   -9.6549   35.1886 H       1  UNL1        0.2954
     30 O         -11.8494  -14.5736   32.1642 O.3     1  UNL1       -0.4640
     31 C         -12.9146  -15.4199   32.5968 C.3     1  UNL1        0.1678
     32 C         -13.0453  -15.3636   34.1212 C.3     1  UNL1        0.0473
     33 C         -12.6295  -16.8481   32.1372 C.3     1  UNL1        0.0473
     34 C          -4.3781   -7.5187   33.1966 C.3     1  UNL1        0.0696
     35 S          -4.2633   -7.2643   31.3915 S.3     1  UNL1       -0.1308
     36 C          -7.5094  -11.2072   31.0465 C.3     1  UNL1        0.1587
     37 C          -8.2909  -11.8256   29.9104 C.2     1  UNL1        0.2423
     38 O          -9.5305  -11.6041   29.8449 O.2     1  UNL1       -0.2733
     39 N          -7.6701  -12.7107   28.9526 N.am    1  UNL1       -0.2740
     40 C          -6.2357  -12.5716   28.6458 C.3     1  UNL1        0.1196
     41 C          -5.7947  -13.4031   27.4749 C.2     1  UNL1       -0.0089
     42 C          -6.4294  -14.5324   27.1335 C.2     1  UNL1       -0.0231
     43 C          -7.6627  -14.9419   27.8929 C.3     1  UNL1        0.0476
     44 C          -8.4960  -13.7110   28.2594 C.3     1  UNL1        0.0984
     45 C          -5.8566  -15.4289   26.1019 C.ar    1  UNL1       -0.0042
     46 C          -6.2700  -15.3374   24.7624 C.ar    1  UNL1       -0.0002
     47 C          -5.6974  -16.1579   23.7872 C.ar    1  UNL1        0.0031
     48 C          -4.6909  -17.0758   24.1308 C.ar    1  UNL1        0.0375
     49 C          -4.2905  -17.1790   25.4732 C.ar    1  UNL1        0.0031
     50 C          -4.8725  -16.3673   26.4502 C.ar    1  UNL1       -0.0002
     51 C          -4.0354  -17.8940   23.0892 C.ar    1  UNL1        0.1832
     52 N          -4.7090  -18.6430   22.1847 N.ar    1  UNL1       -0.2034
     53 C          -3.7133  -19.1714   21.4471 C.ar    1  UNL1        0.1972
     54 N          -2.5146  -18.7502   21.8801 N.ar    1  UNL1       -0.2281
     55 C          -1.2122  -19.1555   21.3721 C.3     1  UNL1        0.1556
     56 N          -2.6988  -17.9587   22.9190 N.ar    1  UNL1       -0.1484
@<TRIPOS>BOND
     1    34    35    1
     2     1    35    1
     3     1     6    1
     4     6     7    2
     5     6     8   am
     6     8    10    1
     7    10    11   ar
     8    11    12   ar
     9    12    13   ar
    10    13    14   ar
    11    14    15   ar
    12    15    16   ar
    13    16    20    1
    14    20    21   ar
    15    21    22   ar
    16    22    23   ar
    17    23    30    1
    18    30    31    1
    19    31    32    1
    20    31    33    1
    21    23    24   ar
    22    24    25   ar
    23    25    26    1
    24    26    27    2
    25    26    28    1
    26    16    17   ar
    27    17    18   ar
    28     1     2    1
    29     2     3    1
    30     3     4    1
    31     4    36    1
    32    36    37    1
    33    37    38    2
    34    37    39   am
    35    39    40    1
    36    40    41    1
    37    41    42    2
    38    42    45    1
    39    45    46   ar
    40    46    47   ar
    41    47    48   ar
    42    48    51    1
    43    51    52   ar
    44    52    53   ar
    45    53    54   ar
    46    54    55    1
    47    54    56   ar
    48    48    49   ar
    49    49    50   ar
    50    42    43    1
    51    43    44    1
    52     4     5    1
    53     5     1    1
    54    18    10   ar
    55    44    39    1
    56    17    13   ar
    57    50    45   ar
    58    25    20   ar
    59    56    51   ar
    60     8     9    1
    61    14    19    1
    62    28    29    1
