@<TRIPOS>MOLECULE
*****
 47 52 0 0 0
SMALL
GASTEIGER

@<TRIPOS>ATOM
      1 C           9.7747   79.8436   24.2906 C.ar    1  UNL1        0.0702
      2 C           9.5816   79.6054   22.9242 C.ar    1  UNL1        0.0191
      3 C           8.8616   78.4881   22.4995 C.ar    1  UNL1        0.0356
      4 C           8.3382   77.6003   23.4509 C.ar    1  UNL1        0.1318
      5 N           8.5672   77.8309   24.7737 N.ar    1  UNL1       -0.2279
      6 C           9.2630   78.9138   25.2108 C.ar    1  UNL1        0.1149
      7 N           7.6030   76.4313   23.0438 N.pl3   1  UNL1       -0.2932
      8 C           6.2829   76.1458   23.6234 C.3     1  UNL1        0.0923
      9 C           5.3663   75.5285   22.5646 C.3     1  UNL1        0.0252
     10 C           6.0354   74.3002   21.9202 C.3     1  UNL1        0.0472
     11 C           7.3955   74.6933   21.3110 C.3     1  UNL1        0.0252
     12 C           8.3042   75.3332   22.3664 C.3     1  UNL1        0.0923
     13 C           5.1303   73.6152   20.8761 C.3     1  UNL1        0.2054
     14 O           5.2737   74.1931   19.5749 O.3     1  UNL1       -0.4755
     15 C           4.5879   75.3114   19.0707 C.ar    1  UNL1        0.1388
     16 C           3.2295   75.1608   18.7740 C.ar    1  UNL1        0.0369
     17 C           2.4897   76.2307   18.2698 C.ar    1  UNL1        0.0033
     18 C           3.1003   77.4672   18.0530 C.ar    1  UNL1        0.0066
     19 C           4.4651   77.6455   18.3386 C.ar    1  UNL1        0.0785
     20 C           5.2002   76.5643   18.8612 C.ar    1  UNL1        0.0433
     21 C           5.1274   78.9549   18.1181 C.2     1  UNL1        0.3381
     22 O           4.5209   79.8649   17.4925 O.2     1  UNL1       -0.2451
     23 O           6.4089   79.2200   18.5997 O.3     1  UNL1       -0.4771
     24 H           6.9111   78.5760   19.1966 H       1  UNL1        0.2954
     25 C          11.9728   81.0404   24.6891 C.2     1  UNL1        0.2839
     26 O          12.6451   79.9765   24.7578 O.2     1  UNL1       -0.2665
     27 N          10.5387   80.9858   24.7143 N.am    1  UNL1       -0.2766
     28 H          10.0294   81.7774   25.1670 H       1  UNL1        0.1553
     29 C          14.9748   86.2422   24.9204 C.ar    1  UNL1        0.0002
     30 C          14.6141   86.2234   23.5459 C.ar    1  UNL1        0.0031
     31 C          13.8699   85.1574   23.0107 C.ar    1  UNL1        0.0375
     32 C          13.4988   84.1260   23.8663 C.ar    1  UNL1        0.1452
     33 O          12.8113   83.0510   23.5674 O.2     1  UNL1       -0.4492
     34 C          12.6864   82.3295   24.6676 C.ar    1  UNL1        0.1946
     35 C          13.3059   82.9823   25.7409 C.ar    1  UNL1        0.0202
     36 C          13.3865   82.5521   27.1746 C.3     1  UNL1        0.0345
     37 C          13.8378   84.1321   25.1920 C.ar    1  UNL1        0.0337
     38 C          14.5755   85.1725   25.7572 C.ar    1  UNL1        0.0028
     39 C          17.6183   88.9503   25.2964 C.ar    1  UNL1        0.0073
     40 C          17.2649   89.4979   26.5379 C.ar    1  UNL1       -0.0019
     41 C          16.1667   88.9976   27.2397 C.ar    1  UNL1       -0.0002
     42 C          15.4175   87.9426   26.7135 C.ar    1  UNL1       -0.0000
     43 C          15.7620   87.3723   25.4748 C.ar    1  UNL1       -0.0002
     44 C          16.8685   87.8850   24.7722 C.ar    1  UNL1       -0.0019
     45 C          18.8174   89.4788   24.5544 C.3     1  UNL1        0.1687
     46 C          19.2735   89.2577   22.2921 C.3     1  UNL1        0.1746
     47 O          19.2001   88.5824   23.5291 O.3     1  UNL1       -0.3463
@<TRIPOS>BOND
     1    46    47    1
     2    47    45    1
     3    45    39    1
     4    39    40   ar
     5    40    41   ar
     6    41    42   ar
     7    42    43   ar
     8    43    29    1
     9    29    30   ar
    10    30    31   ar
    11    31    32   ar
    12    32    33   ar
    13    33    34   ar
    14    34    25    1
    15    25    26    2
    16    25    27   am
    17    27     1    1
    18     1     2   ar
    19     2     3   ar
    20     3     4   ar
    21     4     7    1
    22     7     8    1
    23     8     9    1
    24     9    10    1
    25    10    13    1
    26    13    14    1
    27    14    15    1
    28    15    16   ar
    29    16    17   ar
    30    17    18   ar
    31    18    19   ar
    32    19    21    1
    33    21    22    2
    34    21    23    1
    35    19    20   ar
    36    10    11    1
    37    11    12    1
    38     4     5   ar
    39     5     6   ar
    40    34    35   ar
    41    35    36    1
    42    35    37   ar
    43    37    38   ar
    44    43    44   ar
    45    44    39   ar
    46    38    29   ar
    47    37    32   ar
    48     6     1   ar
    49    12     7    1
    50    20    15   ar
    51    27    28    1
    52    23    24    1
@<TRIPOS>MOLECULE
*****
 47 52 0 0 0
SMALL
GASTEIGER

@<TRIPOS>ATOM
      1 C           9.8028   79.9446   24.1142 C.ar    1  UNL1        0.0702
      2 C           9.5936   79.6673   22.7576 C.ar    1  UNL1        0.0191
      3 C           8.9179   78.5087   22.3723 C.ar    1  UNL1        0.0356
      4 C           8.4557   77.6192   23.3533 C.ar    1  UNL1        0.1318
      5 N           8.7003   77.8897   24.6657 N.ar    1  UNL1       -0.2279
      6 C           9.3535   79.0130   25.0647 C.ar    1  UNL1        0.1149
      7 N           7.7676   76.4089   22.9869 N.pl3   1  UNL1       -0.2932
      8 C           6.8765   75.7422   23.9469 C.3     1  UNL1        0.0923
      9 C           5.6755   75.1370   23.2165 C.3     1  UNL1        0.0252
     10 C           6.1449   74.2200   22.0717 C.3     1  UNL1        0.0472
     11 C           7.0456   75.0040   21.0971 C.3     1  UNL1        0.0252
     12 C           8.2352   75.6298   21.8333 C.3     1  UNL1        0.0923
     13 C           4.9689   73.5498   21.3326 C.3     1  UNL1        0.2054
     14 O           4.6848   74.1847   20.0821 O.3     1  UNL1       -0.4755
     15 C           4.0065   75.4007   19.8908 C.ar    1  UNL1        0.1388
     16 C           4.1930   76.0639   18.6738 C.ar    1  UNL1        0.0369
     17 C           3.5500   77.2756   18.4193 C.ar    1  UNL1        0.0033
     18 C           2.7124   77.8424   19.3814 C.ar    1  UNL1        0.0066
     19 C           2.5102   77.1994   20.6151 C.ar    1  UNL1        0.0785
     20 C           3.1514   75.9695   20.8572 C.ar    1  UNL1        0.0433
     21 C           1.6191   77.7868   21.6460 C.2     1  UNL1        0.3381
     22 O           1.9974   78.7963   22.2980 O.2     1  UNL1       -0.2451
     23 O           0.3548   77.2609   21.9097 O.3     1  UNL1       -0.4771
     24 H          -0.0538   76.5196   21.3559 H       1  UNL1        0.2954
     25 C          11.9410   81.1707   24.7036 C.2     1  UNL1        0.2839
     26 O          12.5606   80.1227   25.0296 O.2     1  UNL1       -0.2665
     27 N          10.5212   81.1300   24.4971 N.am    1  UNL1       -0.2766
     28 H           9.9687   81.9810   24.7449 H       1  UNL1        0.1553
     29 C          15.0899   86.2901   24.6905 C.ar    1  UNL1        0.0002
     30 C          14.6596   86.2586   23.3364 C.ar    1  UNL1        0.0031
     31 C          13.8607   85.2051   22.8584 C.ar    1  UNL1        0.0375
     32 C          13.5058   84.1987   23.7500 C.ar    1  UNL1        0.1452
     33 O          12.7755   83.1383   23.5053 O.2     1  UNL1       -0.4492
     34 C          12.6871   82.4389   24.6232 C.ar    1  UNL1        0.1946
     35 C          13.3776   83.0919   25.6521 C.ar    1  UNL1        0.0202
     36 C          13.5191   82.6834   27.0874 C.3     1  UNL1        0.0345
     37 C          13.9118   84.2173   25.0567 C.ar    1  UNL1        0.0337
     38 C          14.7049   85.2459   25.5654 C.ar    1  UNL1        0.0028
     39 C          17.8861   88.8557   24.9404 C.ar    1  UNL1        0.0073
     40 C          17.5445   89.5076   26.1339 C.ar    1  UNL1       -0.0019
     41 C          16.4055   89.1231   26.8436 C.ar    1  UNL1       -0.0002
     42 C          15.6030   88.0808   26.3736 C.ar    1  UNL1       -0.0000
     43 C          15.9343   87.4070   25.1843 C.ar    1  UNL1       -0.0002
     44 C          17.0824   87.8033   24.4731 C.ar    1  UNL1       -0.0019
     45 C          19.1283   89.2595   24.1910 C.3     1  UNL1        0.1687
     46 C          19.4226   89.1387   21.8945 C.3     1  UNL1        0.1746
     47 O          19.3465   88.3959   23.0920 O.3     1  UNL1       -0.3463
@<TRIPOS>BOND
     1    46    47    1
     2    47    45    1
     3    45    39    1
     4    39    40   ar
     5    40    41   ar
     6    41    42   ar
     7    42    43   ar
     8    43    29    1
     9    29    30   ar
    10    30    31   ar
    11    31    32   ar
    12    32    33   ar
    13    33    34   ar
    14    34    25    1
    15    25    26    2
    16    25    27   am
    17    27     1    1
    18     1     2   ar
    19     2     3   ar
    20     3     4   ar
    21     4     7    1
    22     7     8    1
    23     8     9    1
    24     9    10    1
    25    10    13    1
    26    13    14    1
    27    14    15    1
    28    15    16   ar
    29    16    17   ar
    30    17    18   ar
    31    18    19   ar
    32    19    21    1
    33    21    22    2
    34    21    23    1
    35    19    20   ar
    36    10    11    1
    37    11    12    1
    38     4     5   ar
    39     5     6   ar
    40    34    35   ar
    41    35    36    1
    42    35    37   ar
    43    37    38   ar
    44    43    44   ar
    45    44    39   ar
    46    38    29   ar
    47    37    32   ar
    48     6     1   ar
    49    12     7    1
    50    20    15   ar
    51    27    28    1
    52    23    24    1
@<TRIPOS>MOLECULE
*****
 47 52 0 0 0
SMALL
GASTEIGER

@<TRIPOS>ATOM
      1 C           9.7753   79.5553   24.2771 C.ar    1  UNL1        0.0702
      2 C           9.4494   78.5424   25.1876 C.ar    1  UNL1        0.0191
      3 C           8.7351   77.4203   24.7658 C.ar    1  UNL1        0.0356
      4 C           8.3389   77.3169   23.4243 C.ar    1  UNL1        0.1318
      5 N           8.6352   78.3293   22.5626 N.ar    1  UNL1       -0.2279
      6 C           9.3323   79.4301   22.9500 C.ar    1  UNL1        0.1149
      7 N           7.5890   76.1783   22.9618 N.pl3   1  UNL1       -0.2932
      8 C           6.2396   75.9173   23.4825 C.3     1  UNL1        0.0923
      9 C           5.3494   75.3494   22.3745 C.3     1  UNL1        0.0252
     10 C           6.0100   74.1172   21.7287 C.3     1  UNL1        0.0472
     11 C           7.4035   74.4853   21.1827 C.3     1  UNL1        0.0252
     12 C           8.2865   75.0760   22.2873 C.3     1  UNL1        0.0923
     13 C           5.1290   73.4810   20.6344 C.3     1  UNL1        0.2054
     14 O           5.2734   74.1413   19.3732 O.3     1  UNL1       -0.4755
     15 C           4.6089   75.3061   18.9524 C.ar    1  UNL1        0.1388
     16 C           3.2481   75.2031   18.6468 C.ar    1  UNL1        0.0369
     17 C           2.5288   76.3206   18.2225 C.ar    1  UNL1        0.0033
     18 C           3.1626   77.5578   18.0957 C.ar    1  UNL1        0.0066
     19 C           4.5305   77.6892   18.3921 C.ar    1  UNL1        0.0785
     20 C           5.2448   76.5592   18.8339 C.ar    1  UNL1        0.0433
     21 C           5.2174   78.9984   18.2667 C.2     1  UNL1        0.3381
     22 O           6.3145   79.1881   18.8562 O.2     1  UNL1       -0.2451
     23 O           4.6895   80.0336   17.4957 O.3     1  UNL1       -0.4771
     24 H           3.8699   79.9173   16.9145 H       1  UNL1        0.2954
     25 C          11.9229   80.8167   24.7455 C.2     1  UNL1        0.2839
     26 O          12.6257   79.7736   24.8266 O.2     1  UNL1       -0.2665
     27 N          10.4911   80.7175   24.7296 N.am    1  UNL1       -0.2766
     28 H           9.9448   81.4897   25.1727 H       1  UNL1        0.1553
     29 C          14.7371   86.1155   25.1004 C.ar    1  UNL1        0.0002
     30 C          14.4880   86.0587   23.7025 C.ar    1  UNL1        0.0031
     31 C          13.8216   84.9593   23.1334 C.ar    1  UNL1        0.0375
     32 C          13.4150   83.9332   23.9792 C.ar    1  UNL1        0.1452
     33 O          12.7866   82.8311   23.6503 O.2     1  UNL1       -0.4492
     34 C          12.5964   82.1273   24.7526 C.ar    1  UNL1        0.1946
     35 C          13.1082   82.8202   25.8571 C.ar    1  UNL1        0.0202
     36 C          13.0871   82.4204   27.3017 C.3     1  UNL1        0.0345
     37 C          13.6469   83.9757   25.3271 C.ar    1  UNL1        0.0337
     38 C          14.3051   85.0499   25.9261 C.ar    1  UNL1        0.0028
     39 C          15.6981   88.9150   27.4885 C.ar    1  UNL1        0.0073
     40 C          16.7667   89.5019   26.7958 C.ar    1  UNL1       -0.0019
     41 C          17.1787   88.9813   25.5677 C.ar    1  UNL1       -0.0002
     42 C          16.5238   87.8772   25.0169 C.ar    1  UNL1       -0.0000
     43 C          15.4428   87.2808   25.6907 C.ar    1  UNL1       -0.0002
     44 C          15.0361   87.8097   26.9300 C.ar    1  UNL1       -0.0019
     45 C          15.2434   89.4947   28.8019 C.3     1  UNL1        0.1687
     46 C          13.7098   89.1324   30.5023 C.3     1  UNL1        0.1746
     47 O          14.5694   88.5154   29.5687 O.3     1  UNL1       -0.3463
@<TRIPOS>BOND
     1    46    47    1
     2    47    45    1
     3    45    39    1
     4    39    40   ar
     5    40    41   ar
     6    41    42   ar
     7    42    43   ar
     8    43    29    1
     9    29    30   ar
    10    30    31   ar
    11    31    32   ar
    12    32    33   ar
    13    33    34   ar
    14    34    25    1
    15    25    26    2
    16    25    27   am
    17    27     1    1
    18     1     2   ar
    19     2     3   ar
    20     3     4   ar
    21     4     7    1
    22     7     8    1
    23     8     9    1
    24     9    10    1
    25    10    13    1
    26    13    14    1
    27    14    15    1
    28    15    16   ar
    29    16    17   ar
    30    17    18   ar
    31    18    19   ar
    32    19    21    1
    33    21    22    2
    34    21    23    1
    35    19    20   ar
    36    10    11    1
    37    11    12    1
    38     4     5   ar
    39     5     6   ar
    40    34    35   ar
    41    35    36    1
    42    35    37   ar
    43    37    38   ar
    44    43    44   ar
    45    44    39   ar
    46    38    29   ar
    47    37    32   ar
    48     6     1   ar
    49    12     7    1
    50    20    15   ar
    51    27    28    1
    52    23    24    1
@<TRIPOS>MOLECULE
*****
 47 52 0 0 0
SMALL
GASTEIGER

@<TRIPOS>ATOM
      1 C          12.0183   80.6598   24.7394 C.ar    1  UNL1        0.0702
      2 C          13.3826   80.5890   25.0473 C.ar    1  UNL1        0.0191
      3 C          14.0400   81.6945   25.5886 C.ar    1  UNL1        0.0356
      4 C          13.3264   82.8804   25.8157 C.ar    1  UNL1        0.1318
      5 N          12.0084   82.9398   25.4767 N.ar    1  UNL1       -0.2279
      6 C          11.3466   81.8752   24.9510 C.ar    1  UNL1        0.1149
      7 N          13.9796   84.0423   26.3599 N.pl3   1  UNL1       -0.2932
      8 C          14.4778   85.0993   25.4685 C.3     1  UNL1        0.0923
      9 C          14.2907   86.4701   26.1228 C.3     1  UNL1        0.0252
     10 C          14.9307   86.4924   27.5234 C.3     1  UNL1        0.0472
     11 C          14.3309   85.3760   28.4005 C.3     1  UNL1        0.0252
     12 C          14.4974   84.0062   27.7336 C.3     1  UNL1        0.0923
     13 C          14.8074   87.8697   28.2066 C.3     1  UNL1        0.2054
     14 O          15.3983   88.9140   27.4271 O.3     1  UNL1       -0.4755
     15 C          16.7053   88.9420   26.9110 C.ar    1  UNL1        0.1388
     16 C          17.7172   89.4490   27.7323 C.ar    1  UNL1        0.0369
     17 C          19.0363   89.5060   27.2815 C.ar    1  UNL1        0.0033
     18 C          19.3610   89.0579   26.0000 C.ar    1  UNL1        0.0066
     19 C          18.3631   88.5473   25.1517 C.ar    1  UNL1        0.0785
     20 C          17.0372   88.4798   25.6206 C.ar    1  UNL1        0.0433
     21 C          18.6931   88.0628   23.7885 C.2     1  UNL1        0.3381
     22 O          17.8250   87.4436   23.1176 O.2     1  UNL1       -0.2451
     23 O          19.9432   88.2863   23.2125 O.3     1  UNL1       -0.4771
     24 H          20.6499   88.8631   23.6499 H       1  UNL1        0.2954
     25 C          10.6807   78.5154   24.9280 C.2     1  UNL1        0.2839
     26 O          11.0180   78.3022   26.1236 O.2     1  UNL1       -0.2665
     27 N          11.3581   79.5211   24.1601 N.am    1  UNL1       -0.2766
     28 H          11.4698   79.3574   23.1345 H       1  UNL1        0.1553
     29 C           6.4196   75.2622   22.2109 C.ar    1  UNL1        0.0002
     30 C           6.8294   74.3458   23.2168 C.ar    1  UNL1        0.0031
     31 C           7.8418   74.6851   24.1316 C.ar    1  UNL1        0.0375
     32 C           8.4266   75.9418   24.0213 C.ar    1  UNL1        0.1452
     33 O           9.3788   76.4459   24.7676 O.2     1  UNL1       -0.4492
     34 C           9.6454   77.6608   24.3206 C.ar    1  UNL1        0.1946
     35 C           8.8061   77.9688   23.2424 C.ar    1  UNL1        0.0202
     36 C           8.7331   79.2387   22.4491 C.3     1  UNL1        0.0345
     37 C           8.0407   76.8345   23.0586 C.ar    1  UNL1        0.0337
     38 C           7.0404   76.5321   22.1345 C.ar    1  UNL1        0.0028
     39 C           3.9664   75.4325   19.3098 C.ar    1  UNL1        0.0073
     40 C           3.3093   74.2010   19.4430 C.ar    1  UNL1       -0.0019
     41 C           3.6719   73.3175   20.4613 C.ar    1  UNL1       -0.0002
     42 C           4.6864   73.6581   21.3592 C.ar    1  UNL1       -0.0000
     43 C           5.3503   74.8931   21.2493 C.ar    1  UNL1       -0.0002
     44 C           4.9810   75.7764   20.2177 C.ar    1  UNL1       -0.0019
     45 C           3.5556   76.3912   18.2236 C.3     1  UNL1        0.1687
     46 C           4.7163   78.3698   17.8874 C.3     1  UNL1        0.1746
     47 O           3.7207   77.7285   18.6547 O.3     1  UNL1       -0.3463
@<TRIPOS>BOND
     1    46    47    1
     2    47    45    1
     3    45    39    1
     4    39    40   ar
     5    40    41   ar
     6    41    42   ar
     7    42    43   ar
     8    43    29    1
     9    29    30   ar
    10    30    31   ar
    11    31    32   ar
    12    32    33   ar
    13    33    34   ar
    14    34    25    1
    15    25    26    2
    16    25    27   am
    17    27     1    1
    18     1     2   ar
    19     2     3   ar
    20     3     4   ar
    21     4     7    1
    22     7     8    1
    23     8     9    1
    24     9    10    1
    25    10    13    1
    26    13    14    1
    27    14    15    1
    28    15    16   ar
    29    16    17   ar
    30    17    18   ar
    31    18    19   ar
    32    19    21    1
    33    21    22    2
    34    21    23    1
    35    19    20   ar
    36    10    11    1
    37    11    12    1
    38     4     5   ar
    39     5     6   ar
    40    34    35   ar
    41    35    36    1
    42    35    37   ar
    43    37    38   ar
    44    43    44   ar
    45    44    39   ar
    46    38    29   ar
    47    37    32   ar
    48     6     1   ar
    49    12     7    1
    50    20    15   ar
    51    27    28    1
    52    23    24    1
@<TRIPOS>MOLECULE
*****
 47 52 0 0 0
SMALL
GASTEIGER

@<TRIPOS>ATOM
      1 C           8.6428   77.9049   22.4947 C.ar    1  UNL1        0.0702
      2 C           8.6061   79.2996   22.3728 C.ar    1  UNL1        0.0191
      3 C           9.5217   80.0909   23.0677 C.ar    1  UNL1        0.0356
      4 C          10.4751   79.4803   23.8954 C.ar    1  UNL1        0.1318
      5 N          10.4715   78.1245   24.0277 N.ar    1  UNL1       -0.2279
      6 C           9.5915   77.3335   23.3587 C.ar    1  UNL1        0.1149
      7 N          11.4240   80.2702   24.6360 N.pl3   1  UNL1       -0.2932
      8 C          12.7642   79.7412   24.9257 C.3     1  UNL1        0.0923
      9 C          13.7983   80.8679   24.8654 C.3     1  UNL1        0.0252
     10 C          13.3833   82.0322   25.7840 C.3     1  UNL1        0.0472
     11 C          11.9839   82.5462   25.3926 C.3     1  UNL1        0.0252
     12 C          10.9535   81.4123   25.4301 C.3     1  UNL1        0.0923
     13 C          14.4186   83.1754   25.7920 C.3     1  UNL1        0.2054
     14 O          13.8405   84.4301   25.4193 O.3     1  UNL1       -0.4755
     15 C          14.0149   85.1079   24.2005 C.ar    1  UNL1        0.1388
     16 C          13.5950   86.4401   24.1323 C.ar    1  UNL1        0.0369
     17 C          13.7384   87.1706   22.9524 C.ar    1  UNL1        0.0033
     18 C          14.3025   86.5766   21.8222 C.ar    1  UNL1        0.0066
     19 C          14.7294   85.2377   21.8613 C.ar    1  UNL1        0.0785
     20 C          14.5945   84.5129   23.0608 C.ar    1  UNL1        0.0433
     21 C          15.3352   84.5936   20.6697 C.2     1  UNL1        0.3381
     22 O          15.6345   85.2927   19.6652 O.2     1  UNL1       -0.2451
     23 O          15.6016   83.2254   20.6304 O.3     1  UNL1       -0.4771
     24 H          15.4840   82.6236   21.4350 H       1  UNL1        0.2954
     25 C           6.5236   76.5177   22.4116 C.2     1  UNL1        0.2839
     26 O           6.5310   76.2652   23.6464 O.2     1  UNL1       -0.2665
     27 N           7.6787   77.1022   21.7919 N.am    1  UNL1       -0.2766
     28 H           7.8861   76.8388   20.8026 H       1  UNL1        0.1553
     29 C           1.5323   75.0086   19.4227 C.ar    1  UNL1        0.0002
     30 C           2.5013   74.8227   18.3998 C.ar    1  UNL1        0.0031
     31 C           3.8647   75.0605   18.6470 C.ar    1  UNL1        0.0375
     32 C           4.2336   75.4814   19.9199 C.ar    1  UNL1        0.1452
     33 O           5.4408   75.7561   20.3497 O.2     1  UNL1       -0.4492
     34 C           5.3474   76.1255   21.6152 C.ar    1  UNL1        0.1946
     35 C           4.0122   76.0651   22.0340 C.ar    1  UNL1        0.0202
     36 C           3.4443   76.3630   23.3890 C.3     1  UNL1        0.0345
     37 C           3.3114   75.6629   20.9145 C.ar    1  UNL1        0.0337
     38 C           1.9508   75.4371   20.7053 C.ar    1  UNL1        0.0028
     39 C          -2.2393   75.4686   19.2575 C.ar    1  UNL1        0.0073
     40 C          -2.6290   74.2644   18.6541 C.ar    1  UNL1       -0.0019
     41 C          -1.6697   73.3169   18.2923 C.ar    1  UNL1       -0.0002
     42 C          -0.3158   73.5588   18.5364 C.ar    1  UNL1       -0.0000
     43 C           0.0949   74.7557   19.1504 C.ar    1  UNL1       -0.0002
     44 C          -0.8784   75.7071   19.5088 C.ar    1  UNL1       -0.0019
     45 C          -3.2802   76.4771   19.6664 C.3     1  UNL1        0.1687
     46 C          -4.9257   77.6263   18.5060 C.3     1  UNL1        0.1746
     47 O          -4.4356   76.3512   18.8598 O.3     1  UNL1       -0.3463
@<TRIPOS>BOND
     1    46    47    1
     2    47    45    1
     3    45    39    1
     4    39    40   ar
     5    40    41   ar
     6    41    42   ar
     7    42    43   ar
     8    43    29    1
     9    29    30   ar
    10    30    31   ar
    11    31    32   ar
    12    32    33   ar
    13    33    34   ar
    14    34    25    1
    15    25    26    2
    16    25    27   am
    17    27     1    1
    18     1     2   ar
    19     2     3   ar
    20     3     4   ar
    21     4     7    1
    22     7     8    1
    23     8     9    1
    24     9    10    1
    25    10    13    1
    26    13    14    1
    27    14    15    1
    28    15    16   ar
    29    16    17   ar
    30    17    18   ar
    31    18    19   ar
    32    19    21    1
    33    21    22    2
    34    21    23    1
    35    19    20   ar
    36    10    11    1
    37    11    12    1
    38     4     5   ar
    39     5     6   ar
    40    34    35   ar
    41    35    36    1
    42    35    37   ar
    43    37    38   ar
    44    43    44   ar
    45    44    39   ar
    46    38    29   ar
    47    37    32   ar
    48     6     1   ar
    49    12     7    1
    50    20    15   ar
    51    27    28    1
    52    23    24    1
@<TRIPOS>MOLECULE
*****
 47 52 0 0 0
SMALL
GASTEIGER

@<TRIPOS>ATOM
      1 C          12.1476   80.8277   24.8201 C.ar    1  UNL1        0.0702
      2 C          11.4687   82.0300   24.5867 C.ar    1  UNL1        0.0191
      3 C          12.1811   83.2014   24.3269 C.ar    1  UNL1        0.0356
      4 C          13.5832   83.1682   24.3083 C.ar    1  UNL1        0.1318
      5 N          14.2250   81.9962   24.5727 N.ar    1  UNL1       -0.2279
      6 C          13.5522   80.8424   24.8253 C.ar    1  UNL1        0.1149
      7 N          14.3465   84.3628   24.0572 N.pl3   1  UNL1       -0.2932
      8 C          15.3714   84.3807   23.0039 C.3     1  UNL1        0.0923
      9 C          15.3975   85.7492   22.3191 C.3     1  UNL1        0.0252
     10 C          15.5638   86.8716   23.3603 C.3     1  UNL1        0.0472
     11 C          14.4337   86.7994   24.4059 C.3     1  UNL1        0.0252
     12 C          14.3930   85.4208   25.0744 C.3     1  UNL1        0.0923
     13 C          15.6409   88.2696   22.7136 C.3     1  UNL1        0.2054
     14 O          14.3531   88.7553   22.3222 O.3     1  UNL1       -0.4755
     15 C          13.5897   88.3247   21.2236 C.ar    1  UNL1        0.1388
     16 C          12.3100   87.8216   21.4791 C.ar    1  UNL1        0.0369
     17 C          11.5000   87.3765   20.4340 C.ar    1  UNL1        0.0033
     18 C          11.9609   87.4264   19.1174 C.ar    1  UNL1        0.0066
     19 C          13.2446   87.9233   18.8322 C.ar    1  UNL1        0.0785
     20 C          14.0492   88.3842   19.8917 C.ar    1  UNL1        0.0433
     21 C          13.7469   87.9871   17.4374 C.2     1  UNL1        0.3381
     22 O          13.6399   89.0581   16.7825 O.2     1  UNL1       -0.2451
     23 O          14.3549   86.8917   16.8251 O.3     1  UNL1       -0.4771
     24 H          14.5669   86.0370   17.3229 H       1  UNL1        0.2954
     25 C          11.8606   78.6018   25.9974 C.2     1  UNL1        0.2839
     26 O          13.0955   78.4415   26.1922 O.2     1  UNL1       -0.2665
     27 N          11.4022   79.6326   25.1100 N.am    1  UNL1       -0.2766
     28 H          10.5310   79.4519   24.5630 H       1  UNL1        0.1553
     29 C           7.7608   74.9191   28.3959 C.ar    1  UNL1        0.0002
     30 C           8.9486   74.3541   28.9340 C.ar    1  UNL1        0.0031
     31 C          10.2072   74.9070   28.6393 C.ar    1  UNL1        0.0375
     32 C          10.2525   76.0207   27.8080 C.ar    1  UNL1        0.1452
     33 O          11.3155   76.6783   27.4139 O.2     1  UNL1       -0.4492
     34 C          10.9160   77.6635   26.6288 C.ar    1  UNL1        0.1946
     35 C           9.5190   77.6579   26.5269 C.ar    1  UNL1        0.0202
     36 C           8.6340   78.6042   25.7731 C.3     1  UNL1        0.0345
     37 C           9.1167   76.5758   27.2843 C.ar    1  UNL1        0.0337
     38 C           7.8515   76.0540   27.5546 C.ar    1  UNL1        0.0028
     39 C           4.2458   74.4844   29.7814 C.ar    1  UNL1        0.0073
     40 C           3.9388   73.1928   29.3302 C.ar    1  UNL1       -0.0019
     41 C           4.8641   72.4754   28.5699 C.ar    1  UNL1       -0.0002
     42 C           6.1054   73.0366   28.2605 C.ar    1  UNL1       -0.0000
     43 C           6.4369   74.3265   28.7126 C.ar    1  UNL1       -0.0002
     44 C           5.4969   75.0442   29.4756 C.ar    1  UNL1       -0.0019
     45 C           3.2528   75.2446   30.6204 C.3     1  UNL1        0.1687
     46 C           3.7682   77.5049   30.6116 C.3     1  UNL1        0.1746
     47 O           2.9655   76.4990   30.0327 O.3     1  UNL1       -0.3463
@<TRIPOS>BOND
     1    46    47    1
     2    47    45    1
     3    45    39    1
     4    39    40   ar
     5    40    41   ar
     6    41    42   ar
     7    42    43   ar
     8    43    29    1
     9    29    30   ar
    10    30    31   ar
    11    31    32   ar
    12    32    33   ar
    13    33    34   ar
    14    34    25    1
    15    25    26    2
    16    25    27   am
    17    27     1    1
    18     1     2   ar
    19     2     3   ar
    20     3     4   ar
    21     4     7    1
    22     7     8    1
    23     8     9    1
    24     9    10    1
    25    10    13    1
    26    13    14    1
    27    14    15    1
    28    15    16   ar
    29    16    17   ar
    30    17    18   ar
    31    18    19   ar
    32    19    21    1
    33    21    22    2
    34    21    23    1
    35    19    20   ar
    36    10    11    1
    37    11    12    1
    38     4     5   ar
    39     5     6   ar
    40    34    35   ar
    41    35    36    1
    42    35    37   ar
    43    37    38   ar
    44    43    44   ar
    45    44    39   ar
    46    38    29   ar
    47    37    32   ar
    48     6     1   ar
    49    12     7    1
    50    20    15   ar
    51    27    28    1
    52    23    24    1
@<TRIPOS>MOLECULE
*****
 47 52 0 0 0
SMALL
GASTEIGER

@<TRIPOS>ATOM
      1 C          12.7062   82.2544   25.1471 C.ar    1  UNL1        0.0702
      2 C          13.5015   82.9584   26.0597 C.ar    1  UNL1        0.0191
      3 C          14.1217   84.1495   25.6801 C.ar    1  UNL1        0.0356
      4 C          13.9492   84.6335   24.3751 C.ar    1  UNL1        0.1318
      5 N          13.2005   83.9156   23.4922 N.ar    1  UNL1       -0.2279
      6 C          12.5846   82.7548   23.8402 C.ar    1  UNL1        0.1149
      7 N          14.5873   85.8518   23.9493 N.pl3   1  UNL1       -0.2932
      8 C          15.9056   85.8116   23.3008 C.3     1  UNL1        0.0923
      9 C          15.9903   86.8871   22.2152 C.3     1  UNL1        0.0252
     10 C          15.6295   88.2682   22.7932 C.3     1  UNL1        0.0472
     11 C          14.2237   88.2304   23.4239 C.3     1  UNL1        0.0252
     12 C          14.1324   87.1373   24.4942 C.3     1  UNL1        0.0923
     13 C          15.7442   89.3944   21.7458 C.3     1  UNL1        0.2054
     14 O          14.6074   89.4428   20.8782 O.3     1  UNL1       -0.4755
     15 C          13.9141   88.3462   20.3378 C.ar    1  UNL1        0.1388
     16 C          12.5280   88.3011   20.5185 C.ar    1  UNL1        0.0369
     17 C          11.7793   87.2402   20.0082 C.ar    1  UNL1        0.0033
     18 C          12.4084   86.2072   19.3113 C.ar    1  UNL1        0.0066
     19 C          13.8008   86.2249   19.1186 C.ar    1  UNL1        0.0785
     20 C          14.5462   87.3071   19.6242 C.ar    1  UNL1        0.0433
     21 C          14.4834   85.1367   18.3760 C.2     1  UNL1        0.3381
     22 O          15.5860   84.6915   18.7923 O.2     1  UNL1       -0.2451
     23 O          13.9304   84.5729   17.2267 O.3     1  UNL1       -0.4771
     24 H          13.0039   84.8079   16.8956 H       1  UNL1        0.2954
     25 C          10.9447   80.9337   26.4022 C.2     1  UNL1        0.2839
     26 O          10.7051   81.8588   27.2240 O.2     1  UNL1       -0.2665
     27 N          12.0918   81.0162   25.5436 N.am    1  UNL1       -0.2766
     28 H          12.5697   80.1247   25.2827 H       1  UNL1        0.1553
     29 C           7.3601   76.1210   26.7377 C.ar    1  UNL1        0.0002
     30 C           7.5641   76.1825   25.3326 C.ar    1  UNL1        0.0031
     31 C           8.3713   77.1838   24.7648 C.ar    1  UNL1        0.0375
     32 C           8.9620   78.1084   25.6190 C.ar    1  UNL1        0.1452
     33 O           9.7408   79.1108   25.2926 O.2     1  UNL1       -0.4492
     34 C          10.0774   79.7424   26.4037 C.ar    1  UNL1        0.1946
     35 C           9.5052   79.1021   27.5102 C.ar    1  UNL1        0.0202
     36 C           9.6402   79.4487   28.9624 C.3     1  UNL1        0.0345
     37 C           8.7755   78.0600   26.9737 C.ar    1  UNL1        0.0337
     38 C           7.9813   77.0814   27.5717 C.ar    1  UNL1        0.0028
     39 C           4.9023   74.3260   29.0183 C.ar    1  UNL1        0.0073
     40 C           4.9028   73.0425   28.4539 C.ar    1  UNL1       -0.0019
     41 C           5.6871   72.7683   27.3320 C.ar    1  UNL1       -0.0002
     42 C           6.4829   73.7689   26.7692 C.ar    1  UNL1       -0.0000
     43 C           6.5047   75.0600   27.3267 C.ar    1  UNL1       -0.0002
     44 C           5.7084   75.3288   28.4556 C.ar    1  UNL1       -0.0019
     45 C           4.0719   74.6099   30.2421 C.3     1  UNL1        0.1687
     46 C           3.3630   76.7939   30.5628 C.3     1  UNL1        0.1746
     47 O           4.4076   75.8718   30.7866 O.3     1  UNL1       -0.3463
@<TRIPOS>BOND
     1    46    47    1
     2    47    45    1
     3    45    39    1
     4    39    40   ar
     5    40    41   ar
     6    41    42   ar
     7    42    43   ar
     8    43    29    1
     9    29    30   ar
    10    30    31   ar
    11    31    32   ar
    12    32    33   ar
    13    33    34   ar
    14    34    25    1
    15    25    26    2
    16    25    27   am
    17    27     1    1
    18     1     2   ar
    19     2     3   ar
    20     3     4   ar
    21     4     7    1
    22     7     8    1
    23     8     9    1
    24     9    10    1
    25    10    13    1
    26    13    14    1
    27    14    15    1
    28    15    16   ar
    29    16    17   ar
    30    17    18   ar
    31    18    19   ar
    32    19    21    1
    33    21    22    2
    34    21    23    1
    35    19    20   ar
    36    10    11    1
    37    11    12    1
    38     4     5   ar
    39     5     6   ar
    40    34    35   ar
    41    35    36    1
    42    35    37   ar
    43    37    38   ar
    44    43    44   ar
    45    44    39   ar
    46    38    29   ar
    47    37    32   ar
    48     6     1   ar
    49    12     7    1
    50    20    15   ar
    51    27    28    1
    52    23    24    1
@<TRIPOS>MOLECULE
*****
 47 52 0 0 0
SMALL
GASTEIGER

@<TRIPOS>ATOM
      1 C           8.6702   77.8529   22.4960 C.ar    1  UNL1        0.0702
      2 C           8.6714   79.2475   22.3684 C.ar    1  UNL1        0.0191
      3 C           9.5898   80.0186   23.0821 C.ar    1  UNL1        0.0356
      4 C          10.5077   79.3877   23.9344 C.ar    1  UNL1        0.1318
      5 N          10.4669   78.0331   24.0714 N.ar    1  UNL1       -0.2279
      6 C           9.5834   77.2615   23.3844 C.ar    1  UNL1        0.1149
      7 N          11.4582   80.1567   24.6946 N.pl3   1  UNL1       -0.2932
      8 C          12.7891   79.6080   24.9909 C.3     1  UNL1        0.0923
      9 C          13.8371   80.7229   24.9555 C.3     1  UNL1        0.0252
     10 C          13.4265   81.8803   25.8848 C.3     1  UNL1        0.0472
     11 C          12.0374   82.4160   25.4859 C.3     1  UNL1        0.0252
     12 C          10.9933   81.2942   25.4984 C.3     1  UNL1        0.0923
     13 C          14.4752   83.0108   25.9179 C.3     1  UNL1        0.2054
     14 O          14.3053   83.8721   27.0478 O.3     1  UNL1       -0.4755
     15 C          14.2806   85.2773   27.0384 C.ar    1  UNL1        0.1388
     16 C          14.3989   85.9207   25.8023 C.ar    1  UNL1        0.0369
     17 C          14.3828   87.3134   25.7221 C.ar    1  UNL1        0.0033
     18 C          14.2502   88.0826   26.8793 C.ar    1  UNL1        0.0066
     19 C          14.1337   87.4622   28.1355 C.ar    1  UNL1        0.0785
     20 C          14.1360   86.0560   28.2052 C.ar    1  UNL1        0.0433
     21 C          13.9874   88.2660   29.3741 C.2     1  UNL1        0.3381
     22 O          14.8643   89.1197   29.6729 O.2     1  UNL1       -0.2451
     23 O          12.8897   88.1164   30.2211 O.3     1  UNL1       -0.4771
     24 H          12.1001   87.5273   29.9915 H       1  UNL1        0.2954
     25 C           6.5645   76.4471   22.3844 C.2     1  UNL1        0.2839
     26 O           6.5948   76.1398   23.6064 O.2     1  UNL1       -0.2665
     27 N           7.7031   77.0717   21.7733 N.am    1  UNL1       -0.2766
     28 H           7.8971   76.8550   20.7701 H       1  UNL1        0.1553
     29 C           1.5409   75.0195   19.4097 C.ar    1  UNL1        0.0002
     30 C           2.4962   74.8810   18.3666 C.ar    1  UNL1        0.0031
     31 C           3.8614   75.1190   18.6035 C.ar    1  UNL1        0.0375
     32 C           4.2458   75.4924   19.8867 C.ar    1  UNL1        0.1452
     33 O           5.4572   75.7590   20.3098 O.2     1  UNL1       -0.4492
     34 C           5.3796   76.0777   21.5901 C.ar    1  UNL1        0.1946
     35 C           4.0511   75.9911   22.0251 C.ar    1  UNL1        0.0202
     36 C           3.5008   76.2314   23.3986 C.3     1  UNL1        0.0345
     37 C           3.3369   75.6280   20.9006 C.ar    1  UNL1        0.0337
     38 C           1.9750   75.4004   20.7021 C.ar    1  UNL1        0.0028
     39 C          -2.2301   75.4882   19.2558 C.ar    1  UNL1        0.0073
     40 C          -2.6262   74.2763   18.6723 C.ar    1  UNL1       -0.0019
     41 C          -1.6715   73.3207   18.3200 C.ar    1  UNL1       -0.0002
     42 C          -0.3156   73.5622   18.5540 C.ar    1  UNL1       -0.0000
     43 C           0.1014   74.7669   19.1481 C.ar    1  UNL1       -0.0002
     44 C          -0.8673   75.7263   19.4970 C.ar    1  UNL1       -0.0019
     45 C          -3.2661   76.5057   19.6547 C.3     1  UNL1        0.1687
     46 C          -4.9432   77.6359   18.5212 C.3     1  UNL1        0.1746
     47 O          -4.4285   76.3665   18.8605 O.3     1  UNL1       -0.3463
@<TRIPOS>BOND
     1    46    47    1
     2    47    45    1
     3    45    39    1
     4    39    40   ar
     5    40    41   ar
     6    41    42   ar
     7    42    43   ar
     8    43    29    1
     9    29    30   ar
    10    30    31   ar
    11    31    32   ar
    12    32    33   ar
    13    33    34   ar
    14    34    25    1
    15    25    26    2
    16    25    27   am
    17    27     1    1
    18     1     2   ar
    19     2     3   ar
    20     3     4   ar
    21     4     7    1
    22     7     8    1
    23     8     9    1
    24     9    10    1
    25    10    13    1
    26    13    14    1
    27    14    15    1
    28    15    16   ar
    29    16    17   ar
    30    17    18   ar
    31    18    19   ar
    32    19    21    1
    33    21    22    2
    34    21    23    1
    35    19    20   ar
    36    10    11    1
    37    11    12    1
    38     4     5   ar
    39     5     6   ar
    40    34    35   ar
    41    35    36    1
    42    35    37   ar
    43    37    38   ar
    44    43    44   ar
    45    44    39   ar
    46    38    29   ar
    47    37    32   ar
    48     6     1   ar
    49    12     7    1
    50    20    15   ar
    51    27    28    1
    52    23    24    1
