@<TRIPOS>MOLECULE
*****
 50 55 0 0 0
SMALL
GASTEIGER

@<TRIPOS>ATOM
      1 O         -60.4243  -42.0345  -21.4081 O.2     1  UNL1       -0.2701
      2 C         -61.5280  -41.8209  -21.9809 C.2     1  UNL1        0.2484
      3 N         -62.4581  -40.8868  -21.4098 N.am    1  UNL1       -0.2945
      4 H         -63.2451  -40.5355  -22.0011 H       1  UNL1        0.1501
      5 C         -61.8298  -42.5131  -23.2542 C.ar    1  UNL1        0.0817
      6 C         -61.0876  -43.6502  -23.6177 C.ar    1  UNL1        0.0194
      7 C         -61.3491  -44.3205  -24.8175 C.ar    1  UNL1        0.0712
      8 CL        -60.3651  -45.7121  -25.2500 Cl      1  UNL1       -0.0810
      9 C         -62.3700  -43.8639  -25.6674 C.ar    1  UNL1        0.0609
     10 C         -63.1215  -42.7398  -25.3031 C.ar    1  UNL1        0.0451
     11 C         -62.8608  -42.0689  -24.1050 C.ar    1  UNL1        0.1457
     12 F         -63.6508  -41.0208  -23.7600 F       1  UNL1       -0.2040
     13 N         -62.6578  -44.5431  -26.8971 N.pl3   1  UNL1       -0.3033
     14 C         -62.6541  -43.7970  -28.1571 C.3     1  UNL1        0.1123
     15 C         -63.7691  -44.3124  -29.0712 C.3     1  UNL1        0.1136
     16 N         -63.7694  -45.7839  -29.1632 N.pl3   1  UNL1       -0.2897
     17 C         -62.8598  -46.5706  -28.3140 C.3     1  UNL1        0.1136
     18 C         -62.8123  -46.0019  -26.8908 C.3     1  UNL1        0.1123
     19 C         -64.5268  -46.4459  -30.2028 C.ar    1  UNL1        0.1318
     20 C         -64.9768  -45.7498  -31.3388 C.ar    1  UNL1        0.0343
     21 C         -65.7027  -46.4251  -32.3212 C.ar    1  UNL1        0.0083
     22 C         -65.9683  -47.7957  -32.1884 C.ar    1  UNL1        0.0906
     23 C         -65.5284  -48.4492  -31.0278 C.ar    1  UNL1        0.1041
     24 N         -64.8247  -47.7707  -30.0837 N.ar    1  UNL1       -0.2292
     25 C         -66.7945  -48.5241  -33.2176 C.3     1  UNL1        0.4200
     26 F         -66.1037  -48.6294  -34.4125 F       1  UNL1       -0.1658
     27 F         -67.0861  -49.7927  -32.7523 F       1  UNL1       -0.1658
     28 F         -67.9783  -47.8489  -33.4597 F       1  UNL1       -0.1658
     29 C         -62.2311  -40.2687  -20.1003 C.3     1  UNL1        0.1535
     30 C         -62.6818  -38.8303  -20.1271 C.2     1  UNL1        0.2443
     31 O         -62.4781  -38.1362  -21.1605 O.2     1  UNL1       -0.2730
     32 N         -63.4370  -38.2992  -19.0253 N.am    1  UNL1       -0.2825
     33 H         -63.6959  -38.9561  -18.2545 H       1  UNL1        0.1549
     34 C         -64.0792  -37.0147  -19.0446 C.ar    1  UNL1        0.0535
     35 C         -63.4301  -35.8616  -18.5749 C.ar    1  UNL1        0.0353
     36 C         -64.0973  -34.6345  -18.6100 C.ar    1  UNL1        0.1002
     37 N         -65.3692  -34.5622  -19.0845 N.ar    1  UNL1       -0.2422
     38 C         -66.0274  -35.6657  -19.5280 C.ar    1  UNL1        0.1002
     39 C         -65.3984  -36.9121  -19.5059 C.ar    1  UNL1        0.0353
     40 C         -62.9804  -41.0536  -19.0067 C.3     1  UNL1        0.0569
     41 C         -64.1279  -41.8406  -19.5764 C.ar    1  UNL1       -0.0017
     42 C         -64.4552  -43.1579  -19.2695 C.ar    1  UNL1        0.0681
     43 N         -65.6238  -43.5038  -19.8559 N.ar    1  UNL1       -0.3523
     44 C         -66.0450  -42.4125  -20.5183 C.ar    1  UNL1        0.0563
     45 C         -67.2307  -42.2670  -21.2374 C.ar    1  UNL1        0.0170
     46 C         -67.4994  -41.0133  -21.8160 C.ar    1  UNL1        0.0015
     47 C         -66.5891  -39.9445  -21.6627 C.ar    1  UNL1        0.0001
     48 C         -65.4010  -40.1198  -20.9306 C.ar    1  UNL1        0.0012
     49 C         -65.1597  -41.3755  -20.3709 C.ar    1  UNL1        0.0131
     50 H         -66.1122  -44.4238  -19.7809 H       1  UNL1        0.1660
@<TRIPOS>BOND
     1     1     2    2
     2     2     3   am
     3     3    29    1
     4    29    40    1
     5    40    41    1
     6    41    42   ar
     7    42    43   ar
     8    43    44   ar
     9    44    45   ar
    10    45    46   ar
    11    46    47   ar
    12    47    48   ar
    13    48    49   ar
    14    29    30    1
    15    30    31    2
    16    30    32   am
    17    32    34    1
    18    34    35   ar
    19    35    36   ar
    20    36    37   ar
    21    37    38   ar
    22    38    39   ar
    23     2     5    1
    24     5     6   ar
    25     6     7   ar
    26     7     8    1
    27     7     9   ar
    28     9    13    1
    29    13    14    1
    30    14    15    1
    31    15    16    1
    32    16    19    1
    33    19    20   ar
    34    20    21   ar
    35    21    22   ar
    36    22    25    1
    37    25    26    1
    38    25    27    1
    39    25    28    1
    40    22    23   ar
    41    23    24   ar
    42    16    17    1
    43    17    18    1
    44     9    10   ar
    45    10    11   ar
    46    11    12    1
    47    49    41   ar
    48    39    34   ar
    49    11     5   ar
    50    49    44   ar
    51    18    13    1
    52    24    19   ar
    53     3     4    1
    54    43    50    1
    55    32    33    1
@<TRIPOS>MOLECULE
*****
 50 55 0 0 0
SMALL
GASTEIGER

@<TRIPOS>ATOM
      1 O         -62.1682  -45.2218  -28.3591 O.2     1  UNL1       -0.2701
      2 C         -62.8659  -44.1710  -28.3291 C.2     1  UNL1        0.2484
      3 N         -63.5370  -43.7271  -29.5193 N.am    1  UNL1       -0.2945
      4 H         -64.2945  -43.0121  -29.4325 H       1  UNL1        0.1501
      5 C         -63.0091  -43.4320  -27.0543 C.ar    1  UNL1        0.0817
      6 C         -62.5680  -44.0229  -25.8575 C.ar    1  UNL1        0.0194
      7 C         -62.6954  -43.3484  -24.6385 C.ar    1  UNL1        0.0712
      8 CL        -62.1693  -44.1461  -23.1624 Cl      1  UNL1       -0.0810
      9 C         -63.2595  -42.0625  -24.6045 C.ar    1  UNL1        0.0609
     10 C         -63.6877  -41.4639  -25.7959 C.ar    1  UNL1        0.0451
     11 C         -63.5614  -42.1369  -27.0144 C.ar    1  UNL1        0.1457
     12 F         -63.9327  -41.4984  -28.1529 F       1  UNL1       -0.2040
     13 N         -63.3906  -41.3526  -23.3655 N.pl3   1  UNL1       -0.3033
     14 C         -64.6526  -41.4108  -22.6250 C.3     1  UNL1        0.1123
     15 C         -64.9455  -40.0502  -21.9869 C.3     1  UNL1        0.1136
     16 N         -63.7729  -39.5135  -21.2722 N.pl3   1  UNL1       -0.2897
     17 C         -62.4804  -40.2132  -21.3574 C.3     1  UNL1        0.1136
     18 C         -62.2132  -40.6949  -22.7884 C.3     1  UNL1        0.1123
     19 C         -63.9274  -38.4092  -20.3507 C.ar    1  UNL1        0.1318
     20 C         -64.9769  -38.3759  -19.4153 C.ar    1  UNL1        0.0343
     21 C         -65.0902  -37.2936  -18.5412 C.ar    1  UNL1        0.0083
     22 C         -64.1531  -36.2511  -18.5803 C.ar    1  UNL1        0.0906
     23 C         -63.1374  -36.3054  -19.5462 C.ar    1  UNL1        0.1041
     24 N         -63.0479  -37.3685  -20.3881 N.ar    1  UNL1       -0.2292
     25 C         -64.2945  -35.0532  -17.6762 C.3     1  UNL1        0.4200
     26 F         -64.5551  -35.4508  -16.3762 F       1  UNL1       -0.1658
     27 F         -63.1194  -34.3255  -17.6978 F       1  UNL1       -0.1658
     28 F         -65.3346  -34.2434  -18.0983 F       1  UNL1       -0.1658
     29 C         -63.3288  -44.3784  -30.8157 C.3     1  UNL1        0.1535
     30 C         -64.5177  -45.2420  -31.1526 C.2     1  UNL1        0.2443
     31 O         -65.5253  -44.7212  -31.7044 O.2     1  UNL1       -0.2730
     32 N         -64.4475  -46.6631  -30.9478 N.am    1  UNL1       -0.2825
     33 H         -63.5395  -47.0601  -30.6153 H       1  UNL1        0.1549
     34 C         -65.4407  -47.5866  -31.4206 C.ar    1  UNL1        0.0535
     35 C         -65.9045  -48.6413  -30.6180 C.ar    1  UNL1        0.0353
     36 C         -66.8687  -49.5171  -31.1233 C.ar    1  UNL1        0.1002
     37 N         -67.3437  -49.3545  -32.3866 N.ar    1  UNL1       -0.2422
     38 C         -66.8987  -48.3535  -33.1912 C.ar    1  UNL1        0.1002
     39 C         -65.9322  -47.4591  -32.7266 C.ar    1  UNL1        0.0353
     40 C         -63.0982  -43.3189  -31.9101 C.3     1  UNL1        0.0569
     41 C         -61.8280  -43.5764  -32.6725 C.ar    1  UNL1       -0.0017
     42 C         -61.5986  -43.2811  -34.0130 C.ar    1  UNL1        0.0681
     43 N         -60.3062  -43.5166  -34.3347 N.ar    1  UNL1       -0.3523
     44 C         -59.7139  -43.9440  -33.2061 C.ar    1  UNL1        0.0563
     45 C         -58.3689  -44.2656  -33.0286 C.ar    1  UNL1        0.0170
     46 C         -57.9480  -44.6469  -31.7416 C.ar    1  UNL1        0.0015
     47 C         -58.8695  -44.6952  -30.6724 C.ar    1  UNL1        0.0001
     48 C         -60.2205  -44.3639  -30.8805 C.ar    1  UNL1        0.0012
     49 C         -60.6096  -43.9927  -32.1686 C.ar    1  UNL1        0.0131
     50 H         -59.8565  -43.3658  -35.2650 H       1  UNL1        0.1660
@<TRIPOS>BOND
     1     1     2    2
     2     2     3   am
     3     3    29    1
     4    29    40    1
     5    40    41    1
     6    41    42   ar
     7    42    43   ar
     8    43    44   ar
     9    44    45   ar
    10    45    46   ar
    11    46    47   ar
    12    47    48   ar
    13    48    49   ar
    14    29    30    1
    15    30    31    2
    16    30    32   am
    17    32    34    1
    18    34    35   ar
    19    35    36   ar
    20    36    37   ar
    21    37    38   ar
    22    38    39   ar
    23     2     5    1
    24     5     6   ar
    25     6     7   ar
    26     7     8    1
    27     7     9   ar
    28     9    13    1
    29    13    14    1
    30    14    15    1
    31    15    16    1
    32    16    19    1
    33    19    20   ar
    34    20    21   ar
    35    21    22   ar
    36    22    25    1
    37    25    26    1
    38    25    27    1
    39    25    28    1
    40    22    23   ar
    41    23    24   ar
    42    16    17    1
    43    17    18    1
    44     9    10   ar
    45    10    11   ar
    46    11    12    1
    47    49    41   ar
    48    39    34   ar
    49    11     5   ar
    50    49    44   ar
    51    18    13    1
    52    24    19   ar
    53     3     4    1
    54    43    50    1
    55    32    33    1
@<TRIPOS>MOLECULE
*****
 50 55 0 0 0
SMALL
GASTEIGER

@<TRIPOS>ATOM
      1 O         -61.3657  -41.9938  -19.4748 O.2     1  UNL1       -0.2701
      2 C         -62.0764  -41.4324  -20.3532 C.2     1  UNL1        0.2484
      3 N         -63.0459  -40.4469  -19.9623 N.am    1  UNL1       -0.2945
      4 H         -63.4497  -39.8205  -20.6952 H       1  UNL1        0.1501
      5 C         -61.8724  -41.7755  -21.7788 C.ar    1  UNL1        0.0817
      6 C         -62.8953  -41.5158  -22.7073 C.ar    1  UNL1        0.0194
      7 C         -62.7304  -41.8343  -24.0596 C.ar    1  UNL1        0.0712
      8 CL        -64.0548  -41.5310  -25.1757 Cl      1  UNL1       -0.0810
      9 C         -61.5281  -42.4101  -24.5025 C.ar    1  UNL1        0.0609
     10 C         -60.5008  -42.6579  -23.5837 C.ar    1  UNL1        0.0451
     11 C         -60.6646  -42.3407  -22.2323 C.ar    1  UNL1        0.1457
     12 F         -59.6233  -42.5407  -21.3854 F       1  UNL1       -0.2040
     13 N         -61.3380  -42.7356  -25.8861 N.pl3   1  UNL1       -0.3033
     14 C         -60.3650  -41.9846  -26.6819 C.3     1  UNL1        0.1123
     15 C         -60.9008  -41.7786  -28.1014 C.3     1  UNL1        0.1136
     16 N         -61.4178  -43.0315  -28.6819 N.pl3   1  UNL1       -0.2897
     17 C         -61.5014  -44.2435  -27.8504 C.3     1  UNL1        0.1136
     18 C         -62.0185  -43.9082  -26.4463 C.3     1  UNL1        0.1123
     19 C         -61.6749  -43.1213  -30.1026 C.ar    1  UNL1        0.1318
     20 C         -60.6889  -43.5698  -30.9994 C.ar    1  UNL1        0.0343
     21 C         -60.9769  -43.6447  -32.3630 C.ar    1  UNL1        0.0083
     22 C         -62.2484  -43.2925  -32.8383 C.ar    1  UNL1        0.0906
     23 C         -63.1962  -42.8222  -31.9173 C.ar    1  UNL1        0.1041
     24 N         -62.8926  -42.7562  -30.5943 N.ar    1  UNL1       -0.2292
     25 C         -62.5550  -43.3209  -34.3139 C.3     1  UNL1        0.4200
     26 F         -63.0686  -42.1045  -34.7293 F       1  UNL1       -0.1658
     27 F         -61.3928  -43.5825  -35.0153 F       1  UNL1       -0.1658
     28 F         -63.4858  -44.3045  -34.6000 F       1  UNL1       -0.1658
     29 C         -63.3411  -40.1650  -18.5546 C.3     1  UNL1        0.1535
     30 C         -63.6348  -38.6972  -18.3761 C.2     1  UNL1        0.2443
     31 O         -62.7135  -37.9223  -17.9992 O.2     1  UNL1       -0.2730
     32 N         -64.9235  -38.1780  -18.7448 N.am    1  UNL1       -0.2825
     33 H         -65.6056  -38.8397  -19.1800 H       1  UNL1        0.1549
     34 C         -65.2314  -36.7763  -18.8025 C.ar    1  UNL1        0.0535
     35 C         -66.2257  -36.2772  -19.6593 C.ar    1  UNL1        0.0353
     36 C         -66.4868  -34.9048  -19.6836 C.ar    1  UNL1        0.1002
     37 N         -65.7742  -34.0601  -18.8919 N.ar    1  UNL1       -0.2422
     38 C         -64.7939  -34.5143  -18.0671 C.ar    1  UNL1        0.1002
     39 C         -64.4981  -35.8780  -18.0159 C.ar    1  UNL1        0.0353
     40 C         -64.5322  -41.0199  -18.0815 C.3     1  UNL1        0.0569
     41 C         -65.1527  -41.7841  -19.2180 C.ar    1  UNL1       -0.0017
     42 C         -65.3452  -43.1612  -19.2757 C.ar    1  UNL1        0.0681
     43 N         -66.0541  -43.4938  -20.3785 N.ar    1  UNL1       -0.3523
     44 C         -66.3236  -42.3382  -21.0101 C.ar    1  UNL1        0.0563
     45 C         -67.0751  -42.1667  -22.1720 C.ar    1  UNL1        0.0170
     46 C         -67.2759  -40.8547  -22.6378 C.ar    1  UNL1        0.0015
     47 C         -66.7299  -39.7557  -21.9388 C.ar    1  UNL1        0.0001
     48 C         -65.9768  -39.9585  -20.7683 C.ar    1  UNL1        0.0012
     49 C         -65.7914  -41.2713  -20.3321 C.ar    1  UNL1        0.0131
     50 H         -66.3557  -44.4526  -20.6616 H       1  UNL1        0.1660
@<TRIPOS>BOND
     1     1     2    2
     2     2     3   am
     3     3    29    1
     4    29    40    1
     5    40    41    1
     6    41    42   ar
     7    42    43   ar
     8    43    44   ar
     9    44    45   ar
    10    45    46   ar
    11    46    47   ar
    12    47    48   ar
    13    48    49   ar
    14    29    30    1
    15    30    31    2
    16    30    32   am
    17    32    34    1
    18    34    35   ar
    19    35    36   ar
    20    36    37   ar
    21    37    38   ar
    22    38    39   ar
    23     2     5    1
    24     5     6   ar
    25     6     7   ar
    26     7     8    1
    27     7     9   ar
    28     9    13    1
    29    13    14    1
    30    14    15    1
    31    15    16    1
    32    16    19    1
    33    19    20   ar
    34    20    21   ar
    35    21    22   ar
    36    22    25    1
    37    25    26    1
    38    25    27    1
    39    25    28    1
    40    22    23   ar
    41    23    24   ar
    42    16    17    1
    43    17    18    1
    44     9    10   ar
    45    10    11   ar
    46    11    12    1
    47    49    41   ar
    48    39    34   ar
    49    11     5   ar
    50    49    44   ar
    51    18    13    1
    52    24    19   ar
    53     3     4    1
    54    43    50    1
    55    32    33    1
@<TRIPOS>MOLECULE
*****
 50 55 0 0 0
SMALL
GASTEIGER

@<TRIPOS>ATOM
      1 O         -60.2879  -41.6242  -21.4449 O.2     1  UNL1       -0.2701
      2 C         -61.4606  -41.6303  -21.9101 C.2     1  UNL1        0.2484
      3 N         -62.4809  -40.8385  -21.2809 N.am    1  UNL1       -0.2945
      4 H         -63.3689  -40.6566  -21.8015 H       1  UNL1        0.1501
      5 C         -61.7559  -42.4287  -23.1213 C.ar    1  UNL1        0.0817
      6 C         -62.4664  -41.8413  -24.1824 C.ar    1  UNL1        0.0194
      7 C         -62.7626  -42.5745  -25.3365 C.ar    1  UNL1        0.0712
      8 CL        -63.6917  -41.8099  -26.6187 Cl      1  UNL1       -0.0810
      9 C         -62.3390  -43.9092  -25.4468 C.ar    1  UNL1        0.0609
     10 C         -61.6188  -44.4948  -24.3983 C.ar    1  UNL1        0.0451
     11 C         -61.3228  -43.7634  -23.2445 C.ar    1  UNL1        0.1457
     12 F         -60.5712  -44.3480  -22.2775 F       1  UNL1       -0.2040
     13 N         -62.6263  -44.6737  -26.6255 N.pl3   1  UNL1       -0.3033
     14 C         -62.2797  -44.1358  -27.9426 C.3     1  UNL1        0.1123
     15 C         -63.3619  -44.5095  -28.9593 C.3     1  UNL1        0.1136
     16 N         -63.7117  -45.9402  -28.8901 N.pl3   1  UNL1       -0.2897
     17 C         -63.1381  -46.7834  -27.8283 C.3     1  UNL1        0.1136
     18 C         -63.1335  -46.0430  -26.4855 C.3     1  UNL1        0.1123
     19 C         -64.4701  -46.5544  -29.9579 C.ar    1  UNL1        0.1318
     20 C         -64.8972  -45.8136  -31.0743 C.ar    1  UNL1        0.0343
     21 C         -65.6250  -46.4435  -32.0850 C.ar    1  UNL1        0.0083
     22 C         -65.9152  -47.8128  -32.0001 C.ar    1  UNL1        0.0906
     23 C         -65.4977  -48.5117  -30.8578 C.ar    1  UNL1        0.1041
     24 N         -64.7917  -47.8770  -29.8854 N.ar    1  UNL1       -0.2292
     25 C         -66.7437  -48.4925  -33.0603 C.3     1  UNL1        0.4200
     26 F         -66.0442  -48.5682  -34.2524 F       1  UNL1       -0.1658
     27 F         -67.0593  -49.7713  -32.6410 F       1  UNL1       -0.1658
     28 F         -67.9146  -47.7906  -33.2889 F       1  UNL1       -0.1658
     29 C         -62.2428  -40.1238  -20.0236 C.3     1  UNL1        0.1535
     30 C         -62.8105  -38.7299  -20.1106 C.2     1  UNL1        0.2443
     31 O         -62.7040  -38.0836  -21.1887 O.2     1  UNL1       -0.2730
     32 N         -63.5640  -38.1969  -19.0086 N.am    1  UNL1       -0.2825
     33 H         -63.7385  -38.8259  -18.1922 H       1  UNL1        0.1549
     34 C         -64.3095  -36.9709  -19.0715 C.ar    1  UNL1        0.0535
     35 C         -63.8040  -35.7753  -18.5359 C.ar    1  UNL1        0.0353
     36 C         -64.5680  -34.6084  -18.6172 C.ar    1  UNL1        0.1002
     37 N         -65.7960  -34.6354  -19.2000 N.ar    1  UNL1       -0.2422
     38 C         -66.3170  -35.7827  -19.7098 C.ar    1  UNL1        0.1002
     39 C         -65.5880  -36.9720  -19.6449 C.ar    1  UNL1        0.0353
     40 C         -62.8721  -40.8954  -18.8480 C.3     1  UNL1        0.0569
     41 C         -64.1669  -41.5495  -19.2435 C.ar    1  UNL1       -0.0017
     42 C         -65.4102  -40.9298  -19.3271 C.ar    1  UNL1        0.0681
     43 N         -66.3274  -41.7778  -19.8456 N.ar    1  UNL1       -0.3523
     44 C         -65.6716  -42.9226  -20.1039 C.ar    1  UNL1        0.0563
     45 C         -66.1877  -44.0766  -20.6919 C.ar    1  UNL1        0.0170
     46 C         -65.3072  -45.1503  -20.9172 C.ar    1  UNL1        0.0015
     47 C         -63.9456  -45.0470  -20.5564 C.ar    1  UNL1        0.0001
     48 C         -63.4523  -43.8697  -19.9658 C.ar    1  UNL1        0.0012
     49 C         -64.3499  -42.8225  -19.7514 C.ar    1  UNL1        0.0131
     50 H         -67.3333  -41.5707  -20.0345 H       1  UNL1        0.1660
@<TRIPOS>BOND
     1     1     2    2
     2     2     3   am
     3     3    29    1
     4    29    40    1
     5    40    41    1
     6    41    42   ar
     7    42    43   ar
     8    43    44   ar
     9    44    45   ar
    10    45    46   ar
    11    46    47   ar
    12    47    48   ar
    13    48    49   ar
    14    29    30    1
    15    30    31    2
    16    30    32   am
    17    32    34    1
    18    34    35   ar
    19    35    36   ar
    20    36    37   ar
    21    37    38   ar
    22    38    39   ar
    23     2     5    1
    24     5     6   ar
    25     6     7   ar
    26     7     8    1
    27     7     9   ar
    28     9    13    1
    29    13    14    1
    30    14    15    1
    31    15    16    1
    32    16    19    1
    33    19    20   ar
    34    20    21   ar
    35    21    22   ar
    36    22    25    1
    37    25    26    1
    38    25    27    1
    39    25    28    1
    40    22    23   ar
    41    23    24   ar
    42    16    17    1
    43    17    18    1
    44     9    10   ar
    45    10    11   ar
    46    11    12    1
    47    49    41   ar
    48    39    34   ar
    49    11     5   ar
    50    49    44   ar
    51    18    13    1
    52    24    19   ar
    53     3     4    1
    54    43    50    1
    55    32    33    1
@<TRIPOS>MOLECULE
*****
 50 55 0 0 0
SMALL
GASTEIGER

@<TRIPOS>ATOM
      1 O         -61.1040  -46.3642  -26.4063 O.2     1  UNL1       -0.2701
      2 C         -62.0289  -45.5110  -26.4972 C.2     1  UNL1        0.2484
      3 N         -62.8952  -45.5185  -27.6432 N.am    1  UNL1       -0.2945
      4 H         -63.7915  -44.9825  -27.5995 H       1  UNL1        0.1501
      5 C         -62.2269  -44.5368  -25.4001 C.ar    1  UNL1        0.0817
      6 C         -61.7466  -44.8354  -24.1132 C.ar    1  UNL1        0.0194
      7 C         -61.9242  -43.9346  -23.0576 C.ar    1  UNL1        0.0712
      8 CL        -61.3448  -44.3715  -21.4559 Cl      1  UNL1       -0.0810
      9 C         -62.5791  -42.7124  -23.2818 C.ar    1  UNL1        0.0609
     10 C         -63.0470  -42.4042  -24.5652 C.ar    1  UNL1        0.0451
     11 C         -62.8707  -43.3036  -25.6205 C.ar    1  UNL1        0.1457
     12 F         -63.2848  -42.9415  -26.8611 F       1  UNL1       -0.2040
     13 N         -62.7629  -41.7732  -22.2138 N.pl3   1  UNL1       -0.3033
     14 C         -63.8429  -41.9761  -21.2460 C.3     1  UNL1        0.1123
     15 C         -64.4538  -40.6272  -20.8567 C.3     1  UNL1        0.1136
     16 N         -63.4204  -39.6343  -20.5100 N.pl3   1  UNL1       -0.2897
     17 C         -61.9977  -39.9621  -20.6995 C.3     1  UNL1        0.1136
     18 C         -61.7793  -40.7015  -22.0249 C.3     1  UNL1        0.1123
     19 C         -63.7867  -38.4151  -19.8231 C.ar    1  UNL1        0.1318
     20 C         -64.8935  -38.3653  -18.9570 C.ar    1  UNL1        0.0343
     21 C         -65.2129  -37.1702  -18.3107 C.ar    1  UNL1        0.0083
     22 C         -64.4252  -36.0268  -18.5075 C.ar    1  UNL1        0.0906
     23 C         -63.3468  -36.1074  -19.4009 C.ar    1  UNL1        0.1041
     24 N         -63.0558  -37.2816  -20.0203 N.ar    1  UNL1       -0.2292
     25 C         -64.7899  -34.7177  -17.8549 C.3     1  UNL1        0.4200
     26 F         -64.9728  -34.8854  -16.4932 F       1  UNL1       -0.1658
     27 F         -63.7723  -33.8058  -18.0641 F       1  UNL1       -0.1658
     28 F         -65.9631  -34.2156  -18.3910 F       1  UNL1       -0.1658
     29 C         -62.6576  -46.4009  -28.7891 C.3     1  UNL1        0.1535
     30 C         -63.9552  -46.6678  -29.5086 C.2     1  UNL1        0.2443
     31 O         -64.8483  -45.7772  -29.5266 O.2     1  UNL1       -0.2730
     32 N         -64.1171  -47.8825  -30.2600 N.am    1  UNL1       -0.2825
     33 H         -63.2951  -48.5251  -30.3244 H       1  UNL1        0.1549
     34 C         -65.2262  -48.1359  -31.1366 C.ar    1  UNL1        0.0535
     35 C         -65.4119  -47.4000  -32.3180 C.ar    1  UNL1        0.0353
     36 C         -66.5087  -47.6799  -33.1371 C.ar    1  UNL1        0.1002
     37 N         -67.3942  -48.6494  -32.7848 N.ar    1  UNL1       -0.2422
     38 C         -67.2485  -49.3640  -31.6377 C.ar    1  UNL1        0.1002
     39 C         -66.1687  -49.1127  -30.7887 C.ar    1  UNL1        0.0353
     40 C         -61.6274  -45.7657  -29.7424 C.3     1  UNL1        0.0569
     41 C         -62.0335  -44.3774  -30.1527 C.ar    1  UNL1       -0.0017
     42 C         -63.0164  -44.0481  -31.0813 C.ar    1  UNL1        0.0681
     43 N         -63.2162  -42.7106  -31.1041 N.ar    1  UNL1       -0.3523
     44 C         -62.3791  -42.1936  -30.1882 C.ar    1  UNL1        0.0563
     45 C         -62.2574  -40.8554  -29.8161 C.ar    1  UNL1        0.0170
     46 C         -61.3461  -40.5375  -28.7928 C.ar    1  UNL1        0.0015
     47 C         -60.5872  -41.5525  -28.1695 C.ar    1  UNL1        0.0001
     48 C         -60.7317  -42.8946  -28.5646 C.ar    1  UNL1        0.0012
     49 C         -61.6409  -43.1795  -29.5846 C.ar    1  UNL1        0.0131
     50 H         -63.9049  -42.1919  -31.6933 H       1  UNL1        0.1660
@<TRIPOS>BOND
     1     1     2    2
     2     2     3   am
     3     3    29    1
     4    29    40    1
     5    40    41    1
     6    41    42   ar
     7    42    43   ar
     8    43    44   ar
     9    44    45   ar
    10    45    46   ar
    11    46    47   ar
    12    47    48   ar
    13    48    49   ar
    14    29    30    1
    15    30    31    2
    16    30    32   am
    17    32    34    1
    18    34    35   ar
    19    35    36   ar
    20    36    37   ar
    21    37    38   ar
    22    38    39   ar
    23     2     5    1
    24     5     6   ar
    25     6     7   ar
    26     7     8    1
    27     7     9   ar
    28     9    13    1
    29    13    14    1
    30    14    15    1
    31    15    16    1
    32    16    19    1
    33    19    20   ar
    34    20    21   ar
    35    21    22   ar
    36    22    25    1
    37    25    26    1
    38    25    27    1
    39    25    28    1
    40    22    23   ar
    41    23    24   ar
    42    16    17    1
    43    17    18    1
    44     9    10   ar
    45    10    11   ar
    46    11    12    1
    47    49    41   ar
    48    39    34   ar
    49    11     5   ar
    50    49    44   ar
    51    18    13    1
    52    24    19   ar
    53     3     4    1
    54    43    50    1
    55    32    33    1
@<TRIPOS>MOLECULE
*****
 50 55 0 0 0
SMALL
GASTEIGER

@<TRIPOS>ATOM
      1 O         -60.2734  -46.2262  -25.9600 O.2     1  UNL1       -0.2701
      2 C         -61.4173  -45.6963  -25.9113 C.2     1  UNL1        0.2484
      3 N         -62.4243  -46.0865  -26.8588 N.am    1  UNL1       -0.2945
      4 H         -63.4203  -45.8343  -26.6666 H       1  UNL1        0.1501
      5 C         -61.7124  -44.7045  -24.8525 C.ar    1  UNL1        0.0817
      6 C         -62.4826  -43.5698  -25.1610 C.ar    1  UNL1        0.0194
      7 C         -62.7724  -42.6149  -24.1804 C.ar    1  UNL1        0.0712
      8 CL        -63.7027  -41.1904  -24.6246 Cl      1  UNL1       -0.0810
      9 C         -62.3006  -42.7913  -22.8692 C.ar    1  UNL1        0.0609
     10 C         -61.5446  -43.9269  -22.5536 C.ar    1  UNL1        0.0451
     11 C         -61.2539  -44.8814  -23.5325 C.ar    1  UNL1        0.1457
     12 F         -60.5701  -45.9969  -23.1720 F       1  UNL1       -0.2040
     13 N         -62.5946  -41.8272  -21.8492 N.pl3   1  UNL1       -0.3033
     14 C         -63.8038  -41.9752  -21.0367 C.3     1  UNL1        0.1123
     15 C         -64.4125  -40.5992  -20.7529 C.3     1  UNL1        0.1136
     16 N         -63.4007  -39.6365  -20.2803 N.pl3   1  UNL1       -0.2897
     17 C         -61.9784  -40.0165  -20.2678 C.3     1  UNL1        0.1136
     18 C         -61.6075  -40.7868  -21.5407 C.3     1  UNL1        0.1123
     19 C         -63.8127  -38.3931  -19.6665 C.ar    1  UNL1        0.1318
     20 C         -64.9257  -38.3320  -18.8090 C.ar    1  UNL1        0.0343
     21 C         -65.2898  -37.1134  -18.2342 C.ar    1  UNL1        0.0083
     22 C         -64.5408  -35.9566  -18.4936 C.ar    1  UNL1        0.0906
     23 C         -63.4551  -36.0511  -19.3767 C.ar    1  UNL1        0.1041
     24 N         -63.1202  -37.2482  -19.9260 N.ar    1  UNL1       -0.2292
     25 C         -64.9542  -34.6256  -17.9192 C.3     1  UNL1        0.4200
     26 F         -65.2242  -34.7403  -16.5665 F       1  UNL1       -0.1658
     27 F         -63.9302  -33.7145  -18.0988 F       1  UNL1       -0.1658
     28 F         -66.0929  -34.1547  -18.5498 F       1  UNL1       -0.1658
     29 C         -62.1289  -46.9851  -27.9784 C.3     1  UNL1        0.1535
     30 C         -61.1365  -46.3357  -28.9091 C.2     1  UNL1        0.2443
     31 O         -59.9625  -46.7918  -28.9792 O.2     1  UNL1       -0.2730
     32 N         -61.5664  -45.2819  -29.7871 N.am    1  UNL1       -0.2825
     33 H         -62.5820  -45.0346  -29.7856 H       1  UNL1        0.1549
     34 C         -60.7549  -44.7427  -30.8424 C.ar    1  UNL1        0.0535
     35 C         -61.3118  -43.9777  -31.8798 C.ar    1  UNL1        0.0353
     36 C         -60.4825  -43.4777  -32.8869 C.ar    1  UNL1        0.1002
     37 N         -59.1490  -43.7414  -32.8670 N.ar    1  UNL1       -0.2422
     38 C         -58.5868  -44.4944  -31.8849 C.ar    1  UNL1        0.1002
     39 C         -59.3808  -45.0170  -30.8620 C.ar    1  UNL1        0.0353
     40 C         -61.5842  -48.3266  -27.4519 C.3     1  UNL1        0.0569
     41 C         -62.3762  -48.8228  -26.2740 C.ar    1  UNL1       -0.0017
     42 C         -63.7484  -49.0522  -26.2428 C.ar    1  UNL1        0.0681
     43 N         -64.1054  -49.6261  -25.0713 N.ar    1  UNL1       -0.3523
     44 C         -62.9693  -49.7748  -24.3684 C.ar    1  UNL1        0.0563
     45 C         -62.8240  -50.3666  -23.1143 C.ar    1  UNL1        0.0170
     46 C         -61.5268  -50.4629  -22.5787 C.ar    1  UNL1        0.0015
     47 C         -60.4162  -49.9737  -23.3010 C.ar    1  UNL1        0.0001
     48 C         -60.5925  -49.3825  -24.5650 C.ar    1  UNL1        0.0012
     49 C         -61.8912  -49.2976  -25.0693 C.ar    1  UNL1        0.0131
     50 H         -65.0660  -49.9211  -24.7873 H       1  UNL1        0.1660
@<TRIPOS>BOND
     1     1     2    2
     2     2     3   am
     3     3    29    1
     4    29    40    1
     5    40    41    1
     6    41    42   ar
     7    42    43   ar
     8    43    44   ar
     9    44    45   ar
    10    45    46   ar
    11    46    47   ar
    12    47    48   ar
    13    48    49   ar
    14    29    30    1
    15    30    31    2
    16    30    32   am
    17    32    34    1
    18    34    35   ar
    19    35    36   ar
    20    36    37   ar
    21    37    38   ar
    22    38    39   ar
    23     2     5    1
    24     5     6   ar
    25     6     7   ar
    26     7     8    1
    27     7     9   ar
    28     9    13    1
    29    13    14    1
    30    14    15    1
    31    15    16    1
    32    16    19    1
    33    19    20   ar
    34    20    21   ar
    35    21    22   ar
    36    22    25    1
    37    25    26    1
    38    25    27    1
    39    25    28    1
    40    22    23   ar
    41    23    24   ar
    42    16    17    1
    43    17    18    1
    44     9    10   ar
    45    10    11   ar
    46    11    12    1
    47    49    41   ar
    48    39    34   ar
    49    11     5   ar
    50    49    44   ar
    51    18    13    1
    52    24    19   ar
    53     3     4    1
    54    43    50    1
    55    32    33    1
@<TRIPOS>MOLECULE
*****
 50 55 0 0 0
SMALL
GASTEIGER

@<TRIPOS>ATOM
      1 O         -61.2130  -46.7169  -26.7933 O.2     1  UNL1       -0.2701
      2 C         -62.2997  -46.0942  -26.6412 C.2     1  UNL1        0.2484
      3 N         -63.4253  -46.4107  -27.4759 N.am    1  UNL1       -0.2945
      4 H         -64.3732  -46.0753  -27.1904 H       1  UNL1        0.1501
      5 C         -62.4054  -45.0697  -25.5777 C.ar    1  UNL1        0.0817
      6 C         -62.0930  -45.4134  -24.2509 C.ar    1  UNL1        0.0194
      7 C         -62.1887  -44.4659  -23.2261 C.ar    1  UNL1        0.0712
      8 CL        -61.8297  -44.9546  -21.5755 Cl      1  UNL1       -0.0810
      9 C         -62.5903  -43.1526  -23.5209 C.ar    1  UNL1        0.0609
     10 C         -62.8892  -42.8016  -24.8432 C.ar    1  UNL1        0.0451
     11 C         -62.7945  -43.7475  -25.8679 C.ar    1  UNL1        0.1457
     12 F         -63.0343  -43.3520  -27.1438 F       1  UNL1       -0.2040
     13 N         -62.6861  -42.1660  -22.4847 N.pl3   1  UNL1       -0.3033
     14 C         -63.6650  -42.3351  -21.4089 C.3     1  UNL1        0.1123
     15 C         -64.2575  -40.9764  -21.0252 C.3     1  UNL1        0.1136
     16 N         -63.2118  -39.9562  -20.8261 N.pl3   1  UNL1       -0.2897
     17 C         -61.8087  -40.2761  -21.1365 C.3     1  UNL1        0.1136
     18 C         -61.7063  -41.0751  -22.4413 C.3     1  UNL1        0.1123
     19 C         -63.5302  -38.7100  -20.1641 C.ar    1  UNL1        0.1318
     20 C         -64.5623  -38.6279  -19.2125 C.ar    1  UNL1        0.0343
     21 C         -64.8371  -37.4073  -18.5939 C.ar    1  UNL1        0.0083
     22 C         -64.0777  -36.2699  -18.9038 C.ar    1  UNL1        0.0906
     23 C         -63.0760  -36.3842  -19.8791 C.ar    1  UNL1        0.1041
     24 N         -62.8274  -37.5828  -20.4694 N.ar    1  UNL1       -0.2292
     25 C         -64.3982  -34.9355  -18.2801 C.3     1  UNL1        0.4200
     26 F         -64.9002  -35.1024  -17.0010 F       1  UNL1       -0.1658
     27 F         -63.2459  -34.1744  -18.2162 F       1  UNL1       -0.1658
     28 F         -65.3440  -34.2601  -19.0319 F       1  UNL1       -0.1658
     29 C         -63.3179  -47.3430  -28.6018 C.3     1  UNL1        0.1535
     30 C         -63.6344  -48.7429  -28.1404 C.2     1  UNL1        0.2443
     31 O         -63.6218  -49.6883  -28.9755 O.2     1  UNL1       -0.2730
     32 N         -63.8338  -49.0044  -26.7411 N.am    1  UNL1       -0.2825
     33 H         -63.6984  -48.2095  -26.0759 H       1  UNL1        0.1549
     34 C         -63.9388  -50.3240  -26.1838 C.ar    1  UNL1        0.0535
     35 C         -64.1874  -51.4451  -26.9918 C.ar    1  UNL1        0.0353
     36 C         -64.2855  -52.7086  -26.4033 C.ar    1  UNL1        0.1002
     37 N         -64.1529  -52.8471  -25.0575 N.ar    1  UNL1       -0.2422
     38 C         -63.9303  -51.7765  -24.2501 C.ar    1  UNL1        0.1002
     39 C         -63.8301  -50.4957  -24.7973 C.ar    1  UNL1        0.0353
     40 C         -64.2688  -46.9158  -29.7362 C.3     1  UNL1        0.0569
     41 C         -64.4056  -45.4203  -29.8116 C.ar    1  UNL1       -0.0017
     42 C         -65.4847  -44.6686  -29.3561 C.ar    1  UNL1        0.0681
     43 N         -65.2159  -43.3469  -29.4559 N.ar    1  UNL1       -0.3523
     44 C         -63.9715  -43.2570  -29.9564 C.ar    1  UNL1        0.0563
     45 C         -63.2383  -42.0946  -30.1915 C.ar    1  UNL1        0.0170
     46 C         -61.9251  -42.2319  -30.6766 C.ar    1  UNL1        0.0015
     47 C         -61.3792  -43.5132  -30.9108 C.ar    1  UNL1        0.0001
     48 C         -62.1417  -44.6689  -30.6633 C.ar    1  UNL1        0.0012
     49 C         -63.4425  -44.5014  -30.1856 C.ar    1  UNL1        0.0131
     50 H         -65.8397  -42.5593  -29.1711 H       1  UNL1        0.1660
@<TRIPOS>BOND
     1     1     2    2
     2     2     3   am
     3     3    29    1
     4    29    40    1
     5    40    41    1
     6    41    42   ar
     7    42    43   ar
     8    43    44   ar
     9    44    45   ar
    10    45    46   ar
    11    46    47   ar
    12    47    48   ar
    13    48    49   ar
    14    29    30    1
    15    30    31    2
    16    30    32   am
    17    32    34    1
    18    34    35   ar
    19    35    36   ar
    20    36    37   ar
    21    37    38   ar
    22    38    39   ar
    23     2     5    1
    24     5     6   ar
    25     6     7   ar
    26     7     8    1
    27     7     9   ar
    28     9    13    1
    29    13    14    1
    30    14    15    1
    31    15    16    1
    32    16    19    1
    33    19    20   ar
    34    20    21   ar
    35    21    22   ar
    36    22    25    1
    37    25    26    1
    38    25    27    1
    39    25    28    1
    40    22    23   ar
    41    23    24   ar
    42    16    17    1
    43    17    18    1
    44     9    10   ar
    45    10    11   ar
    46    11    12    1
    47    49    41   ar
    48    39    34   ar
    49    11     5   ar
    50    49    44   ar
    51    18    13    1
    52    24    19   ar
    53     3     4    1
    54    43    50    1
    55    32    33    1
@<TRIPOS>MOLECULE
*****
 50 55 0 0 0
SMALL
GASTEIGER

@<TRIPOS>ATOM
      1 O         -60.7573  -47.3449  -25.2642 O.2     1  UNL1       -0.2701
      2 C         -61.5960  -46.4421  -25.5351 C.2     1  UNL1        0.2484
      3 N         -62.2816  -46.4621  -26.7974 N.am    1  UNL1       -0.2945
      4 H         -63.1344  -45.8695  -26.9159 H       1  UNL1        0.1501
      5 C         -61.8850  -45.3955  -24.5288 C.ar    1  UNL1        0.0817
      6 C         -62.3702  -44.1450  -24.9492 C.ar    1  UNL1        0.0194
      7 C         -62.6471  -43.1368  -24.0196 C.ar    1  UNL1        0.0712
      8 CL        -63.2108  -41.5745  -24.5971 Cl      1  UNL1       -0.0810
      9 C         -62.4505  -43.3738  -22.6492 C.ar    1  UNL1        0.0609
     10 C         -61.9804  -44.6225  -22.2241 C.ar    1  UNL1        0.0451
     11 C         -61.7029  -45.6304  -23.1520 C.ar    1  UNL1        0.1457
     12 F         -61.3069  -46.8454  -22.6951 F       1  UNL1       -0.2040
     13 N         -62.7367  -42.3552  -21.6813 N.pl3   1  UNL1       -0.3033
     14 C         -64.0250  -42.3560  -20.9852 C.3     1  UNL1        0.1123
     15 C         -64.5118  -40.9178  -20.7883 C.3     1  UNL1        0.1136
     16 N         -63.4542  -40.0487  -20.2405 N.pl3   1  UNL1       -0.2897
     17 C         -62.0862  -40.5700  -20.0847 C.3     1  UNL1        0.1136
     18 C         -61.6803  -41.4112  -21.3008 C.3     1  UNL1        0.1123
     19 C         -63.7907  -38.7524  -19.6937 C.ar    1  UNL1        0.1318
     20 C         -64.8243  -38.5993  -18.7525 C.ar    1  UNL1        0.0343
     21 C         -65.1168  -37.3318  -18.2466 C.ar    1  UNL1        0.0083
     22 C         -64.3736  -36.2164  -18.6587 C.ar    1  UNL1        0.0906
     23 C         -63.3698  -36.4041  -19.6205 C.ar    1  UNL1        0.1041
     24 N         -63.1038  -37.6475  -20.1002 N.ar    1  UNL1       -0.2292
     25 C         -64.7133  -34.8358  -18.1579 C.3     1  UNL1        0.4200
     26 F         -65.1952  -34.8916  -16.8615 F       1  UNL1       -0.1658
     27 F         -63.5763  -34.0500  -18.1826 F       1  UNL1       -0.1658
     28 F         -65.6825  -34.2523  -18.9556 F       1  UNL1       -0.1658
     29 C         -61.9399  -47.4227  -27.8504 C.3     1  UNL1        0.1535
     30 C         -63.1974  -47.9340  -28.5060 C.2     1  UNL1        0.2443
     31 O         -64.0828  -48.4892  -27.7995 O.2     1  UNL1       -0.2730
     32 N         -63.4258  -47.6834  -29.9029 N.am    1  UNL1       -0.2825
     33 H         -62.7231  -47.1000  -30.4113 H       1  UNL1        0.1549
     34 C         -64.6710  -47.9495  -30.5674 C.ar    1  UNL1        0.0535
     35 C         -65.4709  -49.0488  -30.2162 C.ar    1  UNL1        0.0353
     36 C         -66.6725  -49.2693  -30.8943 C.ar    1  UNL1        0.1002
     37 N         -67.0561  -48.4315  -31.8938 N.ar    1  UNL1       -0.2422
     38 C         -66.2920  -47.3708  -32.2663 C.ar    1  UNL1        0.1002
     39 C         -65.0818  -47.1175  -31.6174 C.ar    1  UNL1        0.0353
     40 C         -61.0140  -46.7624  -28.8899 C.3     1  UNL1        0.0569
     41 C         -61.0387  -45.2629  -28.7815 C.ar    1  UNL1       -0.0017
     42 C         -60.1919  -44.4800  -28.0026 C.ar    1  UNL1        0.0681
     43 N         -60.4013  -43.1669  -28.2498 N.ar    1  UNL1       -0.3523
     44 C         -61.3623  -43.1137  -29.1883 C.ar    1  UNL1        0.0563
     45 C         -61.8819  -41.9738  -29.8004 C.ar    1  UNL1        0.0170
     46 C         -62.8550  -42.1500  -30.8009 C.ar    1  UNL1        0.0015
     47 C         -63.2803  -43.4466  -31.1650 C.ar    1  UNL1        0.0001
     48 C         -62.7375  -44.5788  -30.5312 C.ar    1  UNL1        0.0012
     49 C         -61.7765  -44.3729  -29.5402 C.ar    1  UNL1        0.0131
     50 H         -59.8947  -42.3616  -27.8193 H       1  UNL1        0.1660
@<TRIPOS>BOND
     1     1     2    2
     2     2     3   am
     3     3    29    1
     4    29    40    1
     5    40    41    1
     6    41    42   ar
     7    42    43   ar
     8    43    44   ar
     9    44    45   ar
    10    45    46   ar
    11    46    47   ar
    12    47    48   ar
    13    48    49   ar
    14    29    30    1
    15    30    31    2
    16    30    32   am
    17    32    34    1
    18    34    35   ar
    19    35    36   ar
    20    36    37   ar
    21    37    38   ar
    22    38    39   ar
    23     2     5    1
    24     5     6   ar
    25     6     7   ar
    26     7     8    1
    27     7     9   ar
    28     9    13    1
    29    13    14    1
    30    14    15    1
    31    15    16    1
    32    16    19    1
    33    19    20   ar
    34    20    21   ar
    35    21    22   ar
    36    22    25    1
    37    25    26    1
    38    25    27    1
    39    25    28    1
    40    22    23   ar
    41    23    24   ar
    42    16    17    1
    43    17    18    1
    44     9    10   ar
    45    10    11   ar
    46    11    12    1
    47    49    41   ar
    48    39    34   ar
    49    11     5   ar
    50    49    44   ar
    51    18    13    1
    52    24    19   ar
    53     3     4    1
    54    43    50    1
    55    32    33    1
@<TRIPOS>MOLECULE
*****
 50 55 0 0 0
SMALL
GASTEIGER

@<TRIPOS>ATOM
      1 O         -63.7548  -55.6067  -21.8912 O.2     1  UNL1       -0.2701
      2 C         -64.6290  -54.7655  -22.2378 C.2     1  UNL1        0.2484
      3 N         -66.0141  -55.0190  -21.9531 N.am    1  UNL1       -0.2945
      4 H         -66.6938  -54.2276  -22.0181 H       1  UNL1        0.1501
      5 C         -64.2056  -53.5121  -22.9021 C.ar    1  UNL1        0.0817
      6 C         -63.1195  -52.7857  -22.3839 C.ar    1  UNL1        0.0194
      7 C         -62.7016  -51.5958  -22.9896 C.ar    1  UNL1        0.0712
      8 CL        -61.3659  -50.6996  -22.2792 Cl      1  UNL1       -0.0810
      9 C         -63.3634  -51.1220  -24.1344 C.ar    1  UNL1        0.0609
     10 C         -64.4372  -51.8493  -24.6626 C.ar    1  UNL1        0.0451
     11 C         -64.8560  -53.0379  -24.0581 C.ar    1  UNL1        0.1457
     12 F         -65.8609  -53.7438  -24.6357 F       1  UNL1       -0.2040
     13 N         -62.9440  -49.9088  -24.7734 N.pl3   1  UNL1       -0.3033
     14 C         -63.9468  -48.9482  -25.2379 C.3     1  UNL1        0.1123
     15 C         -63.4949  -48.3212  -26.5597 C.3     1  UNL1        0.1136
     16 N         -62.0974  -47.8550  -26.4984 N.pl3   1  UNL1       -0.2897
     17 C         -61.2796  -48.1477  -25.3098 C.3     1  UNL1        0.1136
     18 C         -61.5145  -49.5834  -24.8251 C.3     1  UNL1        0.1123
     19 C         -61.5840  -46.9649  -27.5166 C.ar    1  UNL1        0.1318
     20 C         -60.2022  -46.8163  -27.7319 C.ar    1  UNL1        0.0343
     21 C         -59.7465  -45.9492  -28.7262 C.ar    1  UNL1        0.0083
     22 C         -60.6596  -45.2415  -29.5211 C.ar    1  UNL1        0.0906
     23 C         -62.0289  -45.3936  -29.2573 C.ar    1  UNL1        0.1041
     24 N         -62.4493  -46.2424  -28.2828 N.ar    1  UNL1       -0.2292
     25 C         -60.1789  -44.2643  -30.5633 C.3     1  UNL1        0.4200
     26 F         -60.6176  -42.9843  -30.2716 F       1  UNL1       -0.1658
     27 F         -58.7968  -44.2716  -30.5909 F       1  UNL1       -0.1658
     28 F         -60.6571  -44.6114  -31.8150 F       1  UNL1       -0.1658
     29 C         -66.4699  -56.2944  -21.3929 C.3     1  UNL1        0.1535
     30 C         -67.2037  -56.0528  -20.0983 C.2     1  UNL1        0.2443
     31 O         -66.5552  -55.7043  -19.0741 O.2     1  UNL1       -0.2730
     32 N         -68.6398  -56.1100  -20.0715 N.am    1  UNL1       -0.2825
     33 H         -69.1351  -56.2686  -20.9782 H       1  UNL1        0.1549
     34 C         -69.4330  -55.7006  -18.9463 C.ar    1  UNL1        0.0535
     35 C         -69.3494  -56.3602  -17.7095 C.ar    1  UNL1        0.0353
     36 C         -70.1443  -55.9282  -16.6448 C.ar    1  UNL1        0.1002
     37 N         -70.9999  -54.8849  -16.8109 N.ar    1  UNL1       -0.2422
     38 C         -71.1142  -54.2406  -18.0023 C.ar    1  UNL1        0.1002
     39 C         -70.3412  -54.6436  -19.0932 C.ar    1  UNL1        0.0353
     40 C         -67.3752  -57.0239  -22.4038 C.3     1  UNL1        0.0569
     41 C         -68.0458  -56.0607  -23.3436 C.ar    1  UNL1       -0.0017
     42 C         -68.4827  -54.7766  -23.0325 C.ar    1  UNL1        0.0681
     43 N         -68.9121  -54.1404  -24.1460 N.ar    1  UNL1       -0.3523
     44 C         -68.7369  -55.0056  -25.1598 C.ar    1  UNL1        0.0563
     45 C         -68.9899  -54.7829  -26.5127 C.ar    1  UNL1        0.0170
     46 C         -68.6863  -55.8163  -27.4176 C.ar    1  UNL1        0.0015
     47 C         -68.1404  -57.0343  -26.9559 C.ar    1  UNL1        0.0001
     48 C         -67.8943  -57.2306  -25.5850 C.ar    1  UNL1        0.0012
     49 C         -68.2087  -56.1890  -24.7107 C.ar    1  UNL1        0.0131
     50 H         -69.2761  -53.1634  -24.2063 H       1  UNL1        0.1660
@<TRIPOS>BOND
     1     1     2    2
     2     2     3   am
     3     3    29    1
     4    29    40    1
     5    40    41    1
     6    41    42   ar
     7    42    43   ar
     8    43    44   ar
     9    44    45   ar
    10    45    46   ar
    11    46    47   ar
    12    47    48   ar
    13    48    49   ar
    14    29    30    1
    15    30    31    2
    16    30    32   am
    17    32    34    1
    18    34    35   ar
    19    35    36   ar
    20    36    37   ar
    21    37    38   ar
    22    38    39   ar
    23     2     5    1
    24     5     6   ar
    25     6     7   ar
    26     7     8    1
    27     7     9   ar
    28     9    13    1
    29    13    14    1
    30    14    15    1
    31    15    16    1
    32    16    19    1
    33    19    20   ar
    34    20    21   ar
    35    21    22   ar
    36    22    25    1
    37    25    26    1
    38    25    27    1
    39    25    28    1
    40    22    23   ar
    41    23    24   ar
    42    16    17    1
    43    17    18    1
    44     9    10   ar
    45    10    11   ar
    46    11    12    1
    47    49    41   ar
    48    39    34   ar
    49    11     5   ar
    50    49    44   ar
    51    18    13    1
    52    24    19   ar
    53     3     4    1
    54    43    50    1
    55    32    33    1
