@<TRIPOS>MOLECULE
*****
 45 50 0 0 0
SMALL
GASTEIGER

@<TRIPOS>ATOM
      1 C          60.8884   85.0320   13.1535 C.ar    1  UNL1        0.0702
      2 C          59.6771   84.9976   12.4450 C.ar    1  UNL1        0.0191
      3 C          59.0366   83.7799   12.2107 C.ar    1  UNL1        0.0356
      4 C          59.6210   82.5902   12.6710 C.ar    1  UNL1        0.1318
      5 N          60.8028   82.6473   13.3460 N.ar    1  UNL1       -0.2279
      6 C          61.4449   83.8213   13.5843 C.ar    1  UNL1        0.1149
      7 N          58.9756   81.3193   12.4680 N.pl3   1  UNL1       -0.2932
      8 C          59.1217   80.2562   13.4778 C.3     1  UNL1        0.0923
      9 C          58.5890   78.9062   12.9685 C.3     1  UNL1        0.0252
     10 C          58.7916   78.7569   11.4498 C.3     1  UNL1        0.0472
     11 C          57.9827   79.8469   10.7084 C.3     1  UNL1        0.0252
     12 C          57.9338   81.2060   11.4381 C.3     1  UNL1        0.0923
     13 C          60.2955   78.7385   11.0848 C.3     1  UNL1        0.2054
     14 O          60.5699   79.5481    9.9388 O.3     1  UNL1       -0.4755
     15 C          61.2033   80.8043    9.9392 C.ar    1  UNL1        0.1388
     16 C          60.7441   81.9004    9.1807 C.ar    1  UNL1        0.0369
     17 C          61.4217   83.1200    9.2268 C.ar    1  UNL1        0.0033
     18 C          62.5587   83.2648   10.0235 C.ar    1  UNL1        0.0066
     19 C          63.0350   82.1834   10.7842 C.ar    1  UNL1        0.0785
     20 C          62.3483   80.9575   10.7319 C.ar    1  UNL1        0.0433
     21 C          64.2417   82.3285   11.6283 C.2     1  UNL1        0.3381
     22 O          64.2830   81.8117   12.7777 O.2     1  UNL1       -0.2451
     23 O          65.3447   83.0383   11.1605 O.3     1  UNL1       -0.4771
     24 H          66.1756   83.1436   11.7304 H       1  UNL1        0.2954
     25 C          61.7320   87.3121   12.4239 C.2     1  UNL1        0.2839
     26 O          61.0272   87.3088   11.3789 O.2     1  UNL1       -0.2665
     27 N          61.5893   86.2639   13.3962 N.am    1  UNL1       -0.2766
     28 H          61.9403   86.4418   14.3646 H       1  UNL1        0.1553
     29 C          64.1228   87.3579   14.5580 C.3     1  UNL1        0.0345
     30 C          63.7224   88.4412   13.6024 C.ar    1  UNL1        0.0202
     31 C          62.6781   88.4168   12.6712 C.ar    1  UNL1        0.1946
     32 O          62.6360   89.5593   12.0091 O.2     1  UNL1       -0.4492
     33 C          63.5997   90.3233   12.4622 C.ar    1  UNL1        0.1452
     34 C          63.9200   91.6118   12.0494 C.ar    1  UNL1        0.0375
     35 C          65.0006   92.2563   12.6761 C.ar    1  UNL1        0.0031
     36 C          65.7415   91.6070   13.7003 C.ar    1  UNL1        0.0002
     37 C          65.3826   90.2944   14.0906 C.ar    1  UNL1        0.0028
     38 C          64.3046   89.6847   13.4470 C.ar    1  UNL1        0.0337
     39 C          66.8812   92.2979   14.3551 C.ar    1  UNL1        0.0000
     40 C          68.2051   92.0231   13.9640 C.ar    1  UNL1        0.0004
     41 C          69.2764   92.6756   14.5815 C.ar    1  UNL1        0.0058
     42 C          69.0403   93.6079   15.5952 C.ar    1  UNL1        0.0301
     43 I          70.6588   94.5899   16.5248 I       1  UNL1       -0.0425
     44 C          67.7301   93.8887   15.9921 C.ar    1  UNL1        0.0058
     45 C          66.6556   93.2394   15.3771 C.ar    1  UNL1        0.0004
@<TRIPOS>BOND
     1    29    30    1
     2    30    31   ar
     3    31    25    1
     4    25    26    2
     5    25    27   am
     6    27     1    1
     7     1     2   ar
     8     2     3   ar
     9     3     4   ar
    10     4     7    1
    11     7     8    1
    12     8     9    1
    13     9    10    1
    14    10    13    1
    15    13    14    1
    16    14    15    1
    17    15    16   ar
    18    16    17   ar
    19    17    18   ar
    20    18    19   ar
    21    19    21    1
    22    21    22    2
    23    21    23    1
    24    19    20   ar
    25    10    11    1
    26    11    12    1
    27     4     5   ar
    28     5     6   ar
    29    31    32   ar
    30    32    33   ar
    31    33    34   ar
    32    34    35   ar
    33    35    36   ar
    34    36    39    1
    35    39    40   ar
    36    40    41   ar
    37    41    42   ar
    38    42    43    1
    39    42    44   ar
    40    44    45   ar
    41    36    37   ar
    42    37    38   ar
    43    38    30   ar
    44     6     1   ar
    45    38    33   ar
    46    12     7    1
    47    45    39   ar
    48    20    15   ar
    49    27    28    1
    50    23    24    1
@<TRIPOS>MOLECULE
*****
 45 50 0 0 0
SMALL
GASTEIGER

@<TRIPOS>ATOM
      1 C          60.8826   85.1020   13.1192 C.ar    1  UNL1        0.0702
      2 C          59.5188   85.0847   12.7873 C.ar    1  UNL1        0.0191
      3 C          58.8729   83.8724   12.5406 C.ar    1  UNL1        0.0356
      4 C          59.6000   82.6741   12.6074 C.ar    1  UNL1        0.1318
      5 N          60.9252   82.7167   12.9199 N.ar    1  UNL1       -0.2279
      6 C          61.5749   83.8855   13.1626 C.ar    1  UNL1        0.1149
      7 N          58.9601   81.4041   12.3826 N.pl3   1  UNL1       -0.2932
      8 C          59.1354   80.3147   13.3592 C.3     1  UNL1        0.0923
      9 C          58.6024   78.9750   12.8236 C.3     1  UNL1        0.0252
     10 C          58.7741   78.8695   11.2975 C.3     1  UNL1        0.0472
     11 C          57.9416   79.9730   10.6036 C.3     1  UNL1        0.0252
     12 C          57.8977   81.3109   11.3718 C.3     1  UNL1        0.0923
     13 C          60.2702   78.8735   10.9009 C.3     1  UNL1        0.2054
     14 O          60.5425   79.8366    9.8800 O.3     1  UNL1       -0.4755
     15 C          61.4593   80.9005    9.9622 C.ar    1  UNL1        0.1388
     16 C          62.7385   80.7741   10.5413 C.ar    1  UNL1        0.0369
     17 C          63.5991   81.8721   10.5909 C.ar    1  UNL1        0.0033
     18 C          63.2010   83.1036   10.0682 C.ar    1  UNL1        0.0066
     19 C          61.9287   83.2517    9.4902 C.ar    1  UNL1        0.0785
     20 C          61.0665   82.1418    9.4448 C.ar    1  UNL1        0.0433
     21 C          61.4985   84.5550    8.9371 C.2     1  UNL1        0.3381
     22 O          61.9833   84.9804    7.8536 O.2     1  UNL1       -0.2451
     23 O          60.5528   85.3253    9.6091 O.3     1  UNL1       -0.4771
     24 H          60.2515   86.2189    9.2391 H       1  UNL1        0.2954
     25 C          61.7502   87.3696   12.3789 C.2     1  UNL1        0.2839
     26 O          61.0588   87.3608   11.3250 O.2     1  UNL1       -0.2665
     27 N          61.5882   86.3317   13.3591 N.am    1  UNL1       -0.2766
     28 H          61.9279   86.5166   14.3303 H       1  UNL1        0.1553
     29 C          64.1276   87.4121   14.5281 C.3     1  UNL1        0.0345
     30 C          63.7386   88.4936   13.5656 C.ar    1  UNL1        0.0202
     31 C          62.7000   88.4707   12.6279 C.ar    1  UNL1        0.1946
     32 O          62.6678   89.6108   11.9611 O.2     1  UNL1       -0.4492
     33 C          63.6324   90.3718   12.4173 C.ar    1  UNL1        0.1452
     34 C          63.9616   91.6571   12.0016 C.ar    1  UNL1        0.0375
     35 C          65.0414   92.2987   12.6326 C.ar    1  UNL1        0.0031
     36 C          65.7726   91.6499   13.6641 C.ar    1  UNL1        0.0002
     37 C          65.4048   90.3406   14.0572 C.ar    1  UNL1        0.0028
     38 C          64.3278   89.7337   13.4092 C.ar    1  UNL1        0.0337
     39 C          66.9114   92.3377   14.3234 C.ar    1  UNL1        0.0000
     40 C          66.6830   93.3143   15.3110 C.ar    1  UNL1        0.0004
     41 C          67.7571   93.9600   15.9310 C.ar    1  UNL1        0.0058
     42 C          69.0695   93.6401   15.5733 C.ar    1  UNL1        0.0301
     43 I          70.6872   94.6165   16.5103 I       1  UNL1       -0.0425
     44 C          69.3085   92.6724   14.5940 C.ar    1  UNL1        0.0058
     45 C          68.2378   92.0235   13.9718 C.ar    1  UNL1        0.0004
@<TRIPOS>BOND
     1    29    30    1
     2    30    31   ar
     3    31    25    1
     4    25    26    2
     5    25    27   am
     6    27     1    1
     7     1     2   ar
     8     2     3   ar
     9     3     4   ar
    10     4     7    1
    11     7     8    1
    12     8     9    1
    13     9    10    1
    14    10    13    1
    15    13    14    1
    16    14    15    1
    17    15    16   ar
    18    16    17   ar
    19    17    18   ar
    20    18    19   ar
    21    19    21    1
    22    21    22    2
    23    21    23    1
    24    19    20   ar
    25    10    11    1
    26    11    12    1
    27     4     5   ar
    28     5     6   ar
    29    31    32   ar
    30    32    33   ar
    31    33    34   ar
    32    34    35   ar
    33    35    36   ar
    34    36    39    1
    35    39    40   ar
    36    40    41   ar
    37    41    42   ar
    38    42    43    1
    39    42    44   ar
    40    44    45   ar
    41    36    37   ar
    42    37    38   ar
    43    38    30   ar
    44     6     1   ar
    45    38    33   ar
    46    12     7    1
    47    45    39   ar
    48    20    15   ar
    49    27    28    1
    50    23    24    1
@<TRIPOS>MOLECULE
*****
 45 50 0 0 0
SMALL
GASTEIGER

@<TRIPOS>ATOM
      1 C          60.0279   91.0006    5.3241 C.ar    1  UNL1        0.0702
      2 C          58.7445   91.4941    5.0418 C.ar    1  UNL1        0.0191
      3 C          58.5183   92.2358    3.8814 C.ar    1  UNL1        0.0356
      4 C          59.5856   92.5009    3.0099 C.ar    1  UNL1        0.1318
      5 N          60.8247   92.0215    3.3107 N.ar    1  UNL1       -0.2279
      6 C          61.0683   91.2985    4.4353 C.ar    1  UNL1        0.1149
      7 N          59.3830   93.2419    1.7922 N.pl3   1  UNL1       -0.2932
      8 C          58.3631   92.7958    0.8268 C.3     1  UNL1        0.0923
      9 C          58.4742   93.5471   -0.5108 C.3     1  UNL1        0.0252
     10 C          59.9340   93.9168   -0.8302 C.3     1  UNL1        0.0472
     11 C          60.4742   94.8809    0.2518 C.3     1  UNL1        0.0252
     12 C          59.9544   94.5905    1.6757 C.3     1  UNL1        0.0923
     13 C          60.8017   92.6505   -1.0280 C.3     1  UNL1        0.2054
     14 O          62.0468   92.9579   -1.6597 O.3     1  UNL1       -0.4755
     15 C          63.1571   93.5753   -1.0552 C.ar    1  UNL1        0.1388
     16 C          64.1240   94.3033   -1.7783 C.ar    1  UNL1        0.0369
     17 C          65.2028   94.8904   -1.1149 C.ar    1  UNL1        0.0033
     18 C          65.3334   94.7621    0.2689 C.ar    1  UNL1        0.0066
     19 C          64.3826   94.0375    1.0077 C.ar    1  UNL1        0.0785
     20 C          63.2993   93.4476    0.3327 C.ar    1  UNL1        0.0433
     21 C          64.5165   93.8944    2.4743 C.2     1  UNL1        0.3381
     22 O          64.9289   94.8581    3.1751 O.2     1  UNL1       -0.2451
     23 O          64.1878   92.6922    3.0955 O.3     1  UNL1       -0.4771
     24 H          64.2758   92.5837    4.0989 H       1  UNL1        0.2954
     25 C          59.5865   89.0709    6.9129 C.2     1  UNL1        0.2839
     26 O          58.8316   88.4842    6.0914 O.2     1  UNL1       -0.2665
     27 N          60.3053   90.2512    6.5195 N.am    1  UNL1       -0.2766
     28 H          61.1349   90.5332    7.0895 H       1  UNL1        0.1553
     29 C          61.3750   90.3072    9.2678 C.3     1  UNL1        0.0345
     30 C          60.5464   89.0583    9.3011 C.ar    1  UNL1        0.0202
     31 C          59.7660   88.5223    8.2706 C.ar    1  UNL1        0.1946
     32 O          59.1825   87.4091    8.6776 O.2     1  UNL1       -0.4492
     33 C          59.5435   87.1957    9.9193 C.ar    1  UNL1        0.1452
     34 C          59.1659   86.1372   10.7380 C.ar    1  UNL1        0.0375
     35 C          59.6758   86.1008   12.0474 C.ar    1  UNL1        0.0031
     36 C          60.5508   87.1174   12.5169 C.ar    1  UNL1        0.0002
     37 C          60.9102   88.1781   11.6510 C.ar    1  UNL1        0.0028
     38 C          60.3852   88.1826   10.3578 C.ar    1  UNL1        0.0337
     39 C          61.0833   87.0682   13.9022 C.ar    1  UNL1        0.0000
     40 C          62.0189   88.0227   14.3436 C.ar    1  UNL1        0.0004
     41 C          62.5181   87.9748   15.6487 C.ar    1  UNL1        0.0058
     42 C          62.0911   86.9756   16.5274 C.ar    1  UNL1        0.0301
     43 I          62.8466   86.9062   18.4952 I       1  UNL1       -0.0425
     44 C          61.1627   86.0225   16.1002 C.ar    1  UNL1        0.0058
     45 C          60.6601   86.0667   14.7964 C.ar    1  UNL1        0.0004
@<TRIPOS>BOND
     1    29    30    1
     2    30    31   ar
     3    31    25    1
     4    25    26    2
     5    25    27   am
     6    27     1    1
     7     1     2   ar
     8     2     3   ar
     9     3     4   ar
    10     4     7    1
    11     7     8    1
    12     8     9    1
    13     9    10    1
    14    10    13    1
    15    13    14    1
    16    14    15    1
    17    15    16   ar
    18    16    17   ar
    19    17    18   ar
    20    18    19   ar
    21    19    21    1
    22    21    22    2
    23    21    23    1
    24    19    20   ar
    25    10    11    1
    26    11    12    1
    27     4     5   ar
    28     5     6   ar
    29    31    32   ar
    30    32    33   ar
    31    33    34   ar
    32    34    35   ar
    33    35    36   ar
    34    36    39    1
    35    39    40   ar
    36    40    41   ar
    37    41    42   ar
    38    42    43    1
    39    42    44   ar
    40    44    45   ar
    41    36    37   ar
    42    37    38   ar
    43    38    30   ar
    44     6     1   ar
    45    38    33   ar
    46    12     7    1
    47    45    39   ar
    48    20    15   ar
    49    27    28    1
    50    23    24    1
@<TRIPOS>MOLECULE
*****
 45 50 0 0 0
SMALL
GASTEIGER

@<TRIPOS>ATOM
      1 C          61.0393   85.2375   12.7618 C.ar    1  UNL1        0.0702
      2 C          60.4362   85.0566   11.5073 C.ar    1  UNL1        0.0191
      3 C          59.7403   83.8796   11.2274 C.ar    1  UNL1        0.0356
      4 C          59.6645   82.8717   12.2007 C.ar    1  UNL1        0.1318
      5 N          60.2676   83.0650   13.4067 N.ar    1  UNL1       -0.2279
      6 C          60.9516   84.2021   13.7006 C.ar    1  UNL1        0.1149
      7 N          58.9344   81.6555   11.9544 N.pl3   1  UNL1       -0.2932
      8 C          58.9260   80.5898   12.9720 C.3     1  UNL1        0.0923
      9 C          58.3225   79.2838   12.4277 C.3     1  UNL1        0.0252
     10 C          58.6150   79.1105   10.9263 C.3     1  UNL1        0.0472
     11 C          57.9483   80.2575   10.1314 C.3     1  UNL1        0.0252
     12 C          57.9592   81.6202   10.8560 C.3     1  UNL1        0.0923
     13 C          60.1339   78.9698   10.6645 C.3     1  UNL1        0.2054
     14 O          60.8961   79.1828   11.8551 O.3     1  UNL1       -0.4755
     15 C          61.8825   80.1674   12.0473 C.ar    1  UNL1        0.1388
     16 C          62.4382   80.9195   10.9921 C.ar    1  UNL1        0.0369
     17 C          63.4154   81.8815   11.2534 C.ar    1  UNL1        0.0033
     18 C          63.8505   82.1070   12.5604 C.ar    1  UNL1        0.0066
     19 C          63.3121   81.3655   13.6258 C.ar    1  UNL1        0.0785
     20 C          62.3291   80.3972   13.3552 C.ar    1  UNL1        0.0433
     21 C          63.7710   81.5967   15.0135 C.2     1  UNL1        0.3381
     22 O          64.0755   82.7575   15.4005 O.2     1  UNL1       -0.2451
     23 O          63.8709   80.5329   15.9065 O.3     1  UNL1       -0.4771
     24 H          64.1840   80.6803   16.8586 H       1  UNL1        0.2954
     25 C          61.7486   87.6298   12.2963 C.2     1  UNL1        0.2839
     26 O          60.8599   87.7891   11.4167 O.2     1  UNL1       -0.2665
     27 N          61.7829   86.4263   13.0804 N.am    1  UNL1       -0.2766
     28 H          62.3110   86.4432   13.9823 H       1  UNL1        0.1553
     29 C          64.0801   87.6149   14.4955 C.3     1  UNL1        0.0345
     30 C          63.7514   88.6966   13.5112 C.ar    1  UNL1        0.0202
     31 C          62.7328   88.6987   12.5516 C.ar    1  UNL1        0.1946
     32 O          62.7565   89.8301   11.8697 O.2     1  UNL1       -0.4492
     33 C          63.7385   90.5616   12.3368 C.ar    1  UNL1        0.1452
     34 C          64.1235   91.8283   11.9119 C.ar    1  UNL1        0.0375
     35 C          65.2126   92.4386   12.5577 C.ar    1  UNL1        0.0031
     36 C          65.8975   91.7776   13.6130 C.ar    1  UNL1        0.0002
     37 C          65.4736   90.4881   14.0148 C.ar    1  UNL1        0.0028
     38 C          64.3890   89.9121   13.3515 C.ar    1  UNL1        0.0337
     39 C          67.0467   92.4325   14.2879 C.ar    1  UNL1        0.0000
     40 C          66.8331   93.4035   15.2842 C.ar    1  UNL1        0.0004
     41 C          67.9168   94.0180   15.9188 C.ar    1  UNL1        0.0058
     42 C          69.2243   93.6722   15.5672 C.ar    1  UNL1        0.0301
     43 I          70.8567   94.6016   16.5263 I       1  UNL1       -0.0425
     44 C          69.4486   92.7097   14.5793 C.ar    1  UNL1        0.0058
     45 C          68.3682   92.0919   13.9425 C.ar    1  UNL1        0.0004
@<TRIPOS>BOND
     1    29    30    1
     2    30    31   ar
     3    31    25    1
     4    25    26    2
     5    25    27   am
     6    27     1    1
     7     1     2   ar
     8     2     3   ar
     9     3     4   ar
    10     4     7    1
    11     7     8    1
    12     8     9    1
    13     9    10    1
    14    10    13    1
    15    13    14    1
    16    14    15    1
    17    15    16   ar
    18    16    17   ar
    19    17    18   ar
    20    18    19   ar
    21    19    21    1
    22    21    22    2
    23    21    23    1
    24    19    20   ar
    25    10    11    1
    26    11    12    1
    27     4     5   ar
    28     5     6   ar
    29    31    32   ar
    30    32    33   ar
    31    33    34   ar
    32    34    35   ar
    33    35    36   ar
    34    36    39    1
    35    39    40   ar
    36    40    41   ar
    37    41    42   ar
    38    42    43    1
    39    42    44   ar
    40    44    45   ar
    41    36    37   ar
    42    37    38   ar
    43    38    30   ar
    44     6     1   ar
    45    38    33   ar
    46    12     7    1
    47    45    39   ar
    48    20    15   ar
    49    27    28    1
    50    23    24    1
