@<TRIPOS>MOLECULE
*****
 44 50 0 0 0
SMALL
GASTEIGER

@<TRIPOS>ATOM
      1 C         -30.4071   48.9791   -6.8974 C.3     1  UNL1        0.1158
      2 N         -31.3766   49.5149   -6.1114 N.3     1  UNL1       -0.2851
      3 C         -30.9397   49.2686   -4.8683 C.3     1  UNL1        0.0910
      4 C         -31.5839   49.5820   -3.6823 C.3     1  UNL1        0.1018
      5 C         -30.9635   49.1881   -2.4886 C.3     1  UNL1        0.3136
      6 N         -29.7652   48.5075   -2.5008 N.am    1  UNL1       -0.1293
      7 C         -29.1437   48.2003   -3.6938 C.2     1  UNL1        0.4047
      8 O         -28.0653   47.5500   -3.7012 O.2     1  UNL1       -0.2174
      9 C         -29.7477   48.6133   -4.8939 C.3     1  UNL1        0.2038
     10 N         -29.3665   48.4447   -6.1825 N.3     1  UNL1       -0.2473
     11 H         -32.2747   49.0614   -6.2793 H       1  UNL1        0.1244
     12 C         -28.1527   47.7631   -6.6819 C.3     1  UNL1        0.0817
     13 C         -28.4610   46.8626   -7.8990 C.3     1  UNL1        0.0252
     14 C         -27.4620   47.2420   -9.0101 C.3     1  UNL1        0.0278
     15 C         -26.7398   48.4153   -8.4633 C.ar    1  UNL1       -0.0248
     16 C         -25.7790   49.1825   -9.1231 C.ar    1  UNL1       -0.0045
     17 C         -25.1977   50.2768   -8.4506 C.ar    1  UNL1       -0.0002
     18 C         -25.5667   50.5474   -7.1141 C.ar    1  UNL1       -0.0003
     19 C         -26.5314   49.7582   -6.4714 C.ar    1  UNL1       -0.0033
     20 C         -27.1222   48.7090   -7.1794 C.ar    1  UNL1       -0.0117
     21 C         -24.1968   51.1269   -9.1349 C.ar    1  UNL1        0.0030
     22 C         -22.9614   51.3463   -8.5013 C.ar    1  UNL1        0.0006
     23 C         -21.9479   52.0573   -9.1453 C.ar    1  UNL1        0.0067
     24 C         -22.1512   52.5545  -10.4325 C.ar    1  UNL1        0.0347
     25 BR        -20.7566   53.5160  -11.3150 Br      1  UNL1       -0.0490
     26 C         -23.3774   52.3580  -11.0722 C.ar    1  UNL1        0.0098
     27 C         -24.4187   51.6653  -10.4304 C.ar    1  UNL1        0.0376
     28 C         -25.7218   51.5563  -11.1265 C.ar    1  UNL1        0.1806
     29 N         -25.8626   51.2571  -12.4320 N.ar    1  UNL1       -0.1084
     30 N         -27.1682   51.3074  -12.6572 N.ar    1  UNL1       -0.0229
     31 N         -27.8069   51.6358  -11.5443 N.ar    1  UNL1       -0.0464
     32 N         -26.9238   51.7999  -10.5766 N.ar    1  UNL1       -0.2388
     33 H         -27.1480   52.1016   -9.6034 H       1  UNL1        0.1923
     34 C         -30.1668   50.3969   -8.9760 C.3     1  UNL1        0.0029
     35 C         -30.4898   49.0180   -8.4048 C.3     1  UNL1        0.0326
     36 C         -29.1791   48.0769   -1.2195 C.3     1  UNL1        0.3404
     37 C         -30.0323   47.0009   -0.5802 C.ar    1  UNL1        0.0640
     38 C         -30.4163   45.8964   -1.3619 C.ar    1  UNL1        0.0031
     39 C         -31.1854   44.8679   -0.8133 C.ar    1  UNL1       -0.0001
     40 C         -31.5834   44.9278    0.5218 C.ar    1  UNL1        0.0007
     41 C         -31.2165   46.0180    1.3127 C.ar    1  UNL1        0.0102
     42 C         -30.4444   47.0580    0.7748 C.ar    1  UNL1        0.0710
     43 C         -30.1028   48.1681    1.6316 C.1     1  UNL1        0.1003
     44 N         -29.8293   49.0575    2.3196 N.1     1  UNL1       -0.1908
@<TRIPOS>BOND
     1    34    35    1
     2    35     1    1
     3     1     2    1
     4     2     3    1
     5     3     4    1
     6     4     5    1
     7     5     6    1
     8     6    36    1
     9    36    37    1
    10    37    38   ar
    11    38    39   ar
    12    39    40   ar
    13    40    41   ar
    14    41    42   ar
    15    42    43    1
    16    43    44    3
    17     6     7    1
    18     7     8    2
    19     7     9    1
    20     9    10    1
    21    10    12    1
    22    12    13    1
    23    13    14    1
    24    14    15    1
    25    15    16   ar
    26    16    17   ar
    27    17    21    1
    28    21    22   ar
    29    22    23   ar
    30    23    24   ar
    31    24    25    1
    32    24    26   ar
    33    26    27   ar
    34    27    28    1
    35    28    29   ar
    36    29    30   ar
    37    30    31   ar
    38    31    32   ar
    39    17    18   ar
    40    18    19   ar
    41    19    20   ar
    42    10     1    1
    43    20    12    1
    44     9     3    1
    45    20    15   ar
    46    42    37   ar
    47    27    21   ar
    48    32    28   ar
    49    32    33    1
    50     2    11    1
@<TRIPOS>MOLECULE
*****
 44 50 0 0 0
SMALL
GASTEIGER

@<TRIPOS>ATOM
      1 C         -27.8355   51.3564   -9.4877 C.3     1  UNL1        0.1158
      2 N         -28.5034   52.3038  -10.1956 N.3     1  UNL1       -0.2851
      3 C         -29.3342   51.5873  -10.9660 C.3     1  UNL1        0.0910
      4 C         -30.2216   52.0757  -11.9114 C.3     1  UNL1        0.1018
      5 C         -30.9661   51.1383  -12.6408 C.3     1  UNL1        0.3136
      6 N         -30.8100   49.7856  -12.4286 N.am    1  UNL1       -0.1293
      7 C         -29.9159   49.3208  -11.4859 C.2     1  UNL1        0.4047
      8 O         -29.7532   48.0833  -11.3182 O.2     1  UNL1       -0.2174
      9 C         -29.1836   50.2553  -10.7337 C.3     1  UNL1        0.2038
     10 N         -28.2526   50.0804   -9.7657 N.3     1  UNL1       -0.2473
     11 H         -27.8610   52.8544  -10.7652 H       1  UNL1        0.1244
     12 C         -27.7536   48.8017   -9.2151 C.3     1  UNL1        0.0817
     13 C         -26.2133   48.7923   -9.0938 C.3     1  UNL1        0.0252
     14 C         -25.8732   48.3660   -7.6520 C.3     1  UNL1        0.0278
     15 C         -27.1895   48.2976   -6.9739 C.ar    1  UNL1       -0.0248
     16 C         -27.4170   48.0297   -5.6236 C.ar    1  UNL1       -0.0045
     17 C         -28.7424   48.0134   -5.1432 C.ar    1  UNL1       -0.0002
     18 C         -29.8107   48.2256   -6.0429 C.ar    1  UNL1       -0.0003
     19 C         -29.5559   48.4881   -7.3966 C.ar    1  UNL1       -0.0033
     20 C         -28.2301   48.5425   -7.8331 C.ar    1  UNL1       -0.0117
     21 C         -29.0134   47.7608   -3.7095 C.ar    1  UNL1        0.0030
     22 C         -29.9846   48.5460   -3.0646 C.ar    1  UNL1        0.0006
     23 C         -30.3479   48.2846   -1.7429 C.ar    1  UNL1        0.0067
     24 C         -29.7511   47.2326   -1.0481 C.ar    1  UNL1        0.0347
     25 BR        -30.2608   46.8705    0.7567 Br      1  UNL1       -0.0490
     26 C         -28.7740   46.4504   -1.6686 C.ar    1  UNL1        0.0098
     27 C         -28.3774   46.7134   -2.9912 C.ar    1  UNL1        0.0376
     28 C         -27.2818   45.9011   -3.5694 C.ar    1  UNL1        0.1806
     29 N         -27.4666   44.8644   -4.4089 N.ar    1  UNL1       -0.1084
     30 N         -26.2503   44.3929   -4.6459 N.ar    1  UNL1       -0.0229
     31 N         -25.3531   45.0976   -3.9731 N.ar    1  UNL1       -0.0464
     32 N         -25.9744   46.0420   -3.2910 N.ar    1  UNL1       -0.2388
     33 H         -25.5136   46.7163   -2.6419 H       1  UNL1        0.1923
     34 C         -27.3492   52.0876   -7.1176 C.3     1  UNL1        0.0029
     35 C         -26.7693   51.7166   -8.4806 C.3     1  UNL1        0.0326
     36 C         -31.5840   48.8423  -13.2544 C.3     1  UNL1        0.3404
     37 C         -31.0631   48.8306  -14.6767 C.ar    1  UNL1        0.0640
     38 C         -31.3754   49.9164  -15.5146 C.ar    1  UNL1        0.0031
     39 C         -30.9019   49.9627  -16.8275 C.ar    1  UNL1       -0.0001
     40 C         -30.1118   48.9259  -17.3232 C.ar    1  UNL1        0.0007
     41 C         -29.7949   47.8373  -16.5088 C.ar    1  UNL1        0.0102
     42 C         -30.2637   47.7779  -15.1883 C.ar    1  UNL1        0.0710
     43 C         -29.9179   46.6245  -14.3925 C.1     1  UNL1        0.1003
     44 N         -29.6415   45.6991  -13.7549 N.1     1  UNL1       -0.1908
@<TRIPOS>BOND
     1    34    35    1
     2    35     1    1
     3     1     2    1
     4     2     3    1
     5     3     4    1
     6     4     5    1
     7     5     6    1
     8     6    36    1
     9    36    37    1
    10    37    38   ar
    11    38    39   ar
    12    39    40   ar
    13    40    41   ar
    14    41    42   ar
    15    42    43    1
    16    43    44    3
    17     6     7    1
    18     7     8    2
    19     7     9    1
    20     9    10    1
    21    10    12    1
    22    12    13    1
    23    13    14    1
    24    14    15    1
    25    15    16   ar
    26    16    17   ar
    27    17    21    1
    28    21    22   ar
    29    22    23   ar
    30    23    24   ar
    31    24    25    1
    32    24    26   ar
    33    26    27   ar
    34    27    28    1
    35    28    29   ar
    36    29    30   ar
    37    30    31   ar
    38    31    32   ar
    39    17    18   ar
    40    18    19   ar
    41    19    20   ar
    42    10     1    1
    43    20    12    1
    44     9     3    1
    45    20    15   ar
    46    42    37   ar
    47    27    21   ar
    48    32    28   ar
    49    32    33    1
    50     2    11    1
@<TRIPOS>MOLECULE
*****
 44 50 0 0 0
SMALL
GASTEIGER

@<TRIPOS>ATOM
      1 C         -31.2072   46.9670  -11.8355 C.3     1  UNL1        0.1158
      2 N         -31.4549   46.2659  -12.9720 N.3     1  UNL1       -0.2851
      3 C         -30.9895   47.0686  -13.9395 C.3     1  UNL1        0.0910
      4 C         -31.0315   46.8372  -15.3050 C.3     1  UNL1        0.1018
      5 C         -30.5247   47.8392  -16.1441 C.3     1  UNL1        0.3136
      6 N         -30.0154   49.0104  -15.6261 N.am    1  UNL1       -0.1293
      7 C         -29.9887   49.2227  -14.2629 C.2     1  UNL1        0.4047
      8 O         -29.5522   50.3077  -13.7957 O.2     1  UNL1       -0.2174
      9 C         -30.4728   48.2123  -13.4142 C.3     1  UNL1        0.2038
     10 N         -30.5689   48.1585  -12.0643 N.3     1  UNL1       -0.2473
     11 H         -32.4544   46.0976  -13.0867 H       1  UNL1        0.1244
     12 C         -30.1571   49.1913  -11.0892 C.3     1  UNL1        0.0817
     13 C         -31.3728   49.9442  -10.5041 C.3     1  UNL1        0.0252
     14 C         -31.2383   49.9020   -8.9690 C.3     1  UNL1        0.0278
     15 C         -30.0695   49.0218   -8.7315 C.ar    1  UNL1       -0.0248
     16 C         -29.5832   48.6006   -7.4933 C.ar    1  UNL1       -0.0045
     17 C         -28.4592   47.7504   -7.4532 C.ar    1  UNL1       -0.0002
     18 C         -27.8255   47.3782   -8.6596 C.ar    1  UNL1       -0.0003
     19 C         -28.3309   47.8189   -9.8911 C.ar    1  UNL1       -0.0033
     20 C         -29.4728   48.6234   -9.9003 C.ar    1  UNL1       -0.0117
     21 C         -27.9379   47.2635   -6.1555 C.ar    1  UNL1        0.0030
     22 C         -28.1617   45.9202   -5.8071 C.ar    1  UNL1        0.0006
     23 C         -27.6084   45.3855   -4.6430 C.ar    1  UNL1        0.0067
     24 C         -26.8196   46.1822   -3.8131 C.ar    1  UNL1        0.0347
     25 BR        -26.0539   45.4425   -2.2274 Br      1  UNL1       -0.0490
     26 C         -26.5979   47.5231   -4.1364 C.ar    1  UNL1        0.0098
     27 C         -27.1666   48.0862   -5.2920 C.ar    1  UNL1        0.0376
     28 C         -26.9615   49.5320   -5.5414 C.ar    1  UNL1        0.1806
     29 N         -26.2171   50.0311   -6.5465 N.ar    1  UNL1       -0.1084
     30 N         -26.2570   51.3462   -6.3834 N.ar    1  UNL1       -0.0229
     31 N         -26.9827   51.6480   -5.3174 N.ar    1  UNL1       -0.0464
     32 N         -27.4295   50.5310   -4.7735 N.ar    1  UNL1       -0.2388
     33 H         -27.9936   50.4727   -3.8979 H       1  UNL1        0.1923
     34 C         -30.9742   45.0662  -10.1858 C.3     1  UNL1        0.0029
     35 C         -31.5839   46.4365  -10.4727 C.3     1  UNL1        0.0326
     36 C         -29.5374   50.0498  -16.5544 C.3     1  UNL1        0.3404
     37 C         -28.2356   49.6253  -17.2022 C.ar    1  UNL1        0.0640
     38 C         -28.2838   48.7052  -18.2651 C.ar    1  UNL1        0.0031
     39 C         -27.1134   48.2981  -18.9089 C.ar    1  UNL1       -0.0001
     40 C         -25.8788   48.8017  -18.5003 C.ar    1  UNL1        0.0007
     41 C         -25.8096   49.7120  -17.4443 C.ar    1  UNL1        0.0102
     42 C         -26.9771   50.1295  -16.7887 C.ar    1  UNL1        0.0710
     43 C         -26.8493   51.0624  -15.6949 C.1     1  UNL1        0.1003
     44 N         -26.7476   51.8098  -14.8172 N.1     1  UNL1       -0.1908
@<TRIPOS>BOND
     1    34    35    1
     2    35     1    1
     3     1     2    1
     4     2     3    1
     5     3     4    1
     6     4     5    1
     7     5     6    1
     8     6    36    1
     9    36    37    1
    10    37    38   ar
    11    38    39   ar
    12    39    40   ar
    13    40    41   ar
    14    41    42   ar
    15    42    43    1
    16    43    44    3
    17     6     7    1
    18     7     8    2
    19     7     9    1
    20     9    10    1
    21    10    12    1
    22    12    13    1
    23    13    14    1
    24    14    15    1
    25    15    16   ar
    26    16    17   ar
    27    17    21    1
    28    21    22   ar
    29    22    23   ar
    30    23    24   ar
    31    24    25    1
    32    24    26   ar
    33    26    27   ar
    34    27    28    1
    35    28    29   ar
    36    29    30   ar
    37    30    31   ar
    38    31    32   ar
    39    17    18   ar
    40    18    19   ar
    41    19    20   ar
    42    10     1    1
    43    20    12    1
    44     9     3    1
    45    20    15   ar
    46    42    37   ar
    47    27    21   ar
    48    32    28   ar
    49    32    33    1
    50     2    11    1
@<TRIPOS>MOLECULE
*****
 44 50 0 0 0
SMALL
GASTEIGER

@<TRIPOS>ATOM
      1 C         -30.6238   48.7762   -7.2051 C.3     1  UNL1        0.1158
      2 N         -31.5548   49.3290   -6.3852 N.3     1  UNL1       -0.2851
      3 C         -31.0155   49.1912   -5.1657 C.3     1  UNL1        0.0910
      4 C         -31.5826   49.5642   -3.9578 C.3     1  UNL1        0.1018
      5 C         -30.8576   49.2830   -2.7915 C.3     1  UNL1        0.3136
      6 N         -29.6341   48.6512   -2.8497 N.am    1  UNL1       -0.1293
      7 C         -29.0905   48.2829   -4.0633 C.2     1  UNL1        0.4047
      8 O         -27.9875   47.6769   -4.1094 O.2     1  UNL1       -0.2174
      9 C         -29.8005   48.5834   -5.2384 C.3     1  UNL1        0.2038
     10 N         -29.5096   48.3367   -6.5380 N.3     1  UNL1       -0.2473
     11 H         -32.4417   48.8293   -6.4507 H       1  UNL1        0.1244
     12 C         -28.3072   47.6691   -7.0818 C.3     1  UNL1        0.0817
     13 C         -28.6209   46.8921   -8.3800 C.3     1  UNL1        0.0252
     14 C         -27.5950   47.3424   -9.4387 C.3     1  UNL1        0.0278
     15 C         -26.8497   48.4402   -8.7778 C.ar    1  UNL1       -0.0248
     16 C         -25.8585   49.2366   -9.3523 C.ar    1  UNL1       -0.0045
     17 C         -25.2582   50.2483   -8.5753 C.ar    1  UNL1       -0.0002
     18 C         -25.6403   50.4067   -7.2246 C.ar    1  UNL1       -0.0003
     19 C         -26.6358   49.5900   -6.6691 C.ar    1  UNL1       -0.0033
     20 C         -27.2438   48.6267   -7.4775 C.ar    1  UNL1       -0.0117
     21 C         -24.2241   51.1283   -9.1662 C.ar    1  UNL1        0.0030
     22 C         -23.0303   51.3297   -8.4518 C.ar    1  UNL1        0.0006
     23 C         -21.9852   52.0692   -9.0069 C.ar    1  UNL1        0.0067
     24 C         -22.1146   52.6135  -10.2846 C.ar    1  UNL1        0.0347
     25 BR        -20.6766   53.6141  -11.0453 Br      1  UNL1       -0.0490
     26 C         -23.2990   52.4353  -11.0036 C.ar    1  UNL1        0.0098
     27 C         -24.3719   51.7140  -10.4517 C.ar    1  UNL1        0.0376
     28 C         -25.6303   51.6250  -11.2284 C.ar    1  UNL1        0.1806
     29 N         -26.8563   51.8418  -10.7152 N.ar    1  UNL1       -0.1084
     30 N         -27.6935   51.6169  -11.7184 N.ar    1  UNL1       -0.0229
     31 N         -27.0174   51.2638  -12.8012 N.ar    1  UNL1       -0.0464
     32 N         -25.7279   51.2583  -12.5178 N.ar    1  UNL1       -0.2388
     33 H         -24.9692   50.9773  -13.1764 H       1  UNL1        0.1923
     34 C         -30.8858   50.0807   -9.3541 C.3     1  UNL1        0.0029
     35 C         -30.8207   48.7021   -8.7005 C.3     1  UNL1        0.0326
     36 C         -28.9349   48.3384   -1.5911 C.3     1  UNL1        0.3404
     37 C         -29.8337   47.5415   -0.6683 C.ar    1  UNL1        0.0640
     38 C         -30.5463   48.2278    0.3317 C.ar    1  UNL1        0.0031
     39 C         -31.4036   47.5415    1.1943 C.ar    1  UNL1       -0.0001
     40 C         -31.5608   46.1613    1.0725 C.ar    1  UNL1        0.0007
     41 C         -30.8587   45.4615    0.0896 C.ar    1  UNL1        0.0102
     42 C         -29.9942   46.1380   -0.7834 C.ar    1  UNL1        0.0710
     43 C         -29.2825   45.3658   -1.7735 C.1     1  UNL1        0.1003
     44 N         -28.7118   44.7457   -2.5667 N.1     1  UNL1       -0.1908
@<TRIPOS>BOND
     1    34    35    1
     2    35     1    1
     3     1     2    1
     4     2     3    1
     5     3     4    1
     6     4     5    1
     7     5     6    1
     8     6    36    1
     9    36    37    1
    10    37    38   ar
    11    38    39   ar
    12    39    40   ar
    13    40    41   ar
    14    41    42   ar
    15    42    43    1
    16    43    44    3
    17     6     7    1
    18     7     8    2
    19     7     9    1
    20     9    10    1
    21    10    12    1
    22    12    13    1
    23    13    14    1
    24    14    15    1
    25    15    16   ar
    26    16    17   ar
    27    17    21    1
    28    21    22   ar
    29    22    23   ar
    30    23    24   ar
    31    24    25    1
    32    24    26   ar
    33    26    27   ar
    34    27    28    1
    35    28    29   ar
    36    29    30   ar
    37    30    31   ar
    38    31    32   ar
    39    17    18   ar
    40    18    19   ar
    41    19    20   ar
    42    10     1    1
    43    20    12    1
    44     9     3    1
    45    20    15   ar
    46    42    37   ar
    47    27    21   ar
    48    32    28   ar
    49    32    33    1
    50     2    11    1
@<TRIPOS>MOLECULE
*****
 44 50 0 0 0
SMALL
GASTEIGER

@<TRIPOS>ATOM
      1 C         -30.7852   48.0300  -11.7382 C.3     1  UNL1        0.1158
      2 N         -30.9873   49.2548  -12.2893 N.3     1  UNL1       -0.2851
      3 C         -30.1072   50.0341  -11.6450 C.3     1  UNL1        0.0910
      4 C         -29.9276   51.3982  -11.8085 C.3     1  UNL1        0.1018
      5 C         -28.9759   52.0251  -10.9922 C.3     1  UNL1        0.3136
      6 N         -28.2575   51.3095  -10.0588 N.am    1  UNL1       -0.1293
      7 C         -28.4567   49.9523   -9.9085 C.2     1  UNL1        0.4047
      8 O         -27.8214   49.3086   -9.0322 O.2     1  UNL1       -0.2174
      9 C         -29.3919   49.3126  -10.7402 C.3     1  UNL1        0.2038
     10 N         -29.7829   48.0174  -10.8030 N.3     1  UNL1       -0.2473
     11 H         -31.9428   49.5738  -12.1294 H       1  UNL1        0.1244
     12 C         -29.2936   46.8871   -9.9842 C.3     1  UNL1        0.0817
     13 C         -27.7729   46.6727  -10.1539 C.3     1  UNL1        0.0252
     14 C         -27.1595   46.6273   -8.7404 C.3     1  UNL1        0.0278
     15 C         -28.2911   46.9611   -7.8430 C.ar    1  UNL1       -0.0248
     16 C         -28.2341   47.1280   -6.4589 C.ar    1  UNL1       -0.0045
     17 C         -29.4139   47.4561   -5.7603 C.ar    1  UNL1       -0.0002
     18 C         -30.6322   47.5669   -6.4667 C.ar    1  UNL1       -0.0003
     19 C         -30.6640   47.3897   -7.8574 C.ar    1  UNL1       -0.0033
     20 C         -29.4704   47.1101   -8.5270 C.ar    1  UNL1       -0.0117
     21 C         -29.3791   47.6680   -4.2952 C.ar    1  UNL1        0.0030
     22 C         -30.2955   48.5708   -3.7286 C.ar    1  UNL1        0.0006
     23 C         -30.3708   48.7336   -2.3447 C.ar    1  UNL1        0.0067
     24 C         -29.5365   47.9938   -1.5067 C.ar    1  UNL1        0.0347
     25 BR        -29.6521   48.2106    0.3874 Br      1  UNL1       -0.0490
     26 C         -28.6102   47.1021   -2.0527 C.ar    1  UNL1        0.0098
     27 C         -28.5027   46.9421   -3.4452 C.ar    1  UNL1        0.0376
     28 C         -27.4493   46.0415   -3.9683 C.ar    1  UNL1        0.1806
     29 N         -27.6156   44.7224   -4.1824 N.ar    1  UNL1       -0.1084
     30 N         -26.4339   44.2904   -4.6005 N.ar    1  UNL1       -0.0229
     31 N         -25.5705   45.2943   -4.6317 N.ar    1  UNL1       -0.0464
     32 N         -26.1811   46.3964   -4.2373 N.ar    1  UNL1       -0.2388
     33 H         -25.7263   47.3288   -4.1271 H       1  UNL1        0.1923
     34 C         -31.1070   46.2404  -13.4940 C.3     1  UNL1        0.0029
     35 C         -31.5840   46.8214  -12.1648 C.3     1  UNL1        0.0326
     36 C         -27.3024   52.0254   -9.1952 C.3     1  UNL1        0.3404
     37 C         -27.4618   51.5910   -7.7529 C.ar    1  UNL1        0.0640
     38 C         -28.7005   51.8034   -7.1212 C.ar    1  UNL1        0.0031
     39 C         -28.9044   51.4022   -5.7992 C.ar    1  UNL1       -0.0001
     40 C         -27.8752   50.7852   -5.0888 C.ar    1  UNL1        0.0007
     41 C         -26.6371   50.5699   -5.6966 C.ar    1  UNL1        0.0102
     42 C         -26.4184   50.9679   -7.0235 C.ar    1  UNL1        0.0710
     43 C         -25.1164   50.7336   -7.6006 C.1     1  UNL1        0.1003
     44 N         -24.0723   50.5469   -8.0634 N.1     1  UNL1       -0.1908
@<TRIPOS>BOND
     1    34    35    1
     2    35     1    1
     3     1     2    1
     4     2     3    1
     5     3     4    1
     6     4     5    1
     7     5     6    1
     8     6    36    1
     9    36    37    1
    10    37    38   ar
    11    38    39   ar
    12    39    40   ar
    13    40    41   ar
    14    41    42   ar
    15    42    43    1
    16    43    44    3
    17     6     7    1
    18     7     8    2
    19     7     9    1
    20     9    10    1
    21    10    12    1
    22    12    13    1
    23    13    14    1
    24    14    15    1
    25    15    16   ar
    26    16    17   ar
    27    17    21    1
    28    21    22   ar
    29    22    23   ar
    30    23    24   ar
    31    24    25    1
    32    24    26   ar
    33    26    27   ar
    34    27    28    1
    35    28    29   ar
    36    29    30   ar
    37    30    31   ar
    38    31    32   ar
    39    17    18   ar
    40    18    19   ar
    41    19    20   ar
    42    10     1    1
    43    20    12    1
    44     9     3    1
    45    20    15   ar
    46    42    37   ar
    47    27    21   ar
    48    32    28   ar
    49    32    33    1
    50     2    11    1
@<TRIPOS>MOLECULE
*****
 44 50 0 0 0
SMALL
GASTEIGER

@<TRIPOS>ATOM
      1 C         -30.5137   48.0160  -12.0019 C.3     1  UNL1        0.1158
      2 N         -30.6023   49.2585  -12.5430 N.3     1  UNL1       -0.2851
      3 C         -29.9082   50.0205  -11.6859 C.3     1  UNL1        0.0910
      4 C         -29.7176   51.3911  -11.7569 C.3     1  UNL1        0.1018
      5 C         -28.9912   51.9950  -10.7212 C.3     1  UNL1        0.3136
      6 N         -28.4973   51.2512   -9.6714 N.am    1  UNL1       -0.1293
      7 C         -28.7040   49.8880   -9.6175 C.2     1  UNL1        0.4047
      8 O         -28.2787   49.2175   -8.6399 O.2     1  UNL1       -0.2174
      9 C         -29.4105   49.2719  -10.6647 C.3     1  UNL1        0.2038
     10 N         -29.7554   47.9769  -10.8605 N.3     1  UNL1       -0.2473
     11 H         -31.5739   49.5640  -12.5987 H       1  UNL1        0.1244
     12 C         -29.4510   46.8212   -9.9893 C.3     1  UNL1        0.0817
     13 C         -27.9367   46.5172   -9.9488 C.3     1  UNL1        0.0252
     14 C         -27.5281   46.4382   -8.4645 C.3     1  UNL1        0.0278
     15 C         -28.7513   46.8397   -7.7298 C.ar    1  UNL1       -0.0248
     16 C         -28.8765   47.0054   -6.3500 C.ar    1  UNL1       -0.0045
     17 C         -30.1203   47.4037   -5.8188 C.ar    1  UNL1       -0.0002
     18 C         -31.2207   47.5849   -6.6860 C.ar    1  UNL1       -0.0003
     19 C         -31.0703   47.4074   -8.0688 C.ar    1  UNL1       -0.0033
     20 C         -29.8141   47.0568   -8.5691 C.ar    1  UNL1       -0.0117
     21 C         -30.2759   47.6157   -4.3616 C.ar    1  UNL1        0.0030
     22 C         -30.3500   46.4876   -3.5263 C.ar    1  UNL1        0.0006
     23 C         -30.3981   46.6314   -2.1392 C.ar    1  UNL1        0.0067
     24 C         -30.3673   47.9026   -1.5659 C.ar    1  UNL1        0.0347
     25 BR        -30.4204   48.0939    0.3337 Br      1  UNL1       -0.0490
     26 C         -30.3077   49.0356   -2.3809 C.ar    1  UNL1        0.0098
     27 C         -30.2829   48.9120   -3.7810 C.ar    1  UNL1        0.0376
     28 C         -30.2991   50.1498   -4.5946 C.ar    1  UNL1        0.1806
     29 N         -31.4057   50.6786   -5.1508 N.ar    1  UNL1       -0.1084
     30 N         -30.9796   51.7393   -5.8224 N.ar    1  UNL1       -0.0229
     31 N         -29.6660   51.8552   -5.6988 N.ar    1  UNL1       -0.0464
     32 N         -29.2191   50.8717   -4.9398 N.ar    1  UNL1       -0.2388
     33 H         -28.2162   50.6969   -4.7117 H       1  UNL1        0.1923
     34 C         -30.3226   46.2035  -13.7532 C.3     1  UNL1        0.0029
     35 C         -31.1723   46.8177  -12.6430 C.3     1  UNL1        0.0326
     36 C         -27.7799   51.9425   -8.5858 C.3     1  UNL1        0.3404
     37 C         -26.2886   51.7018   -8.6974 C.ar    1  UNL1        0.0640
     38 C         -25.5941   52.2815   -9.7745 C.ar    1  UNL1        0.0031
     39 C         -24.2153   52.1064   -9.9104 C.ar    1  UNL1       -0.0001
     40 C         -23.5107   51.3495   -8.9749 C.ar    1  UNL1        0.0007
     41 C         -24.1827   50.7620   -7.9015 C.ar    1  UNL1        0.0102
     42 C         -25.5672   50.9295   -7.7529 C.ar    1  UNL1        0.0710
     43 C         -26.2156   50.2907   -6.6328 C.1     1  UNL1        0.1003
     44 N         -26.7365   49.7783   -5.7353 N.1     1  UNL1       -0.1908
@<TRIPOS>BOND
     1    34    35    1
     2    35     1    1
     3     1     2    1
     4     2     3    1
     5     3     4    1
     6     4     5    1
     7     5     6    1
     8     6    36    1
     9    36    37    1
    10    37    38   ar
    11    38    39   ar
    12    39    40   ar
    13    40    41   ar
    14    41    42   ar
    15    42    43    1
    16    43    44    3
    17     6     7    1
    18     7     8    2
    19     7     9    1
    20     9    10    1
    21    10    12    1
    22    12    13    1
    23    13    14    1
    24    14    15    1
    25    15    16   ar
    26    16    17   ar
    27    17    21    1
    28    21    22   ar
    29    22    23   ar
    30    23    24   ar
    31    24    25    1
    32    24    26   ar
    33    26    27   ar
    34    27    28    1
    35    28    29   ar
    36    29    30   ar
    37    30    31   ar
    38    31    32   ar
    39    17    18   ar
    40    18    19   ar
    41    19    20   ar
    42    10     1    1
    43    20    12    1
    44     9     3    1
    45    20    15   ar
    46    42    37   ar
    47    27    21   ar
    48    32    28   ar
    49    32    33    1
    50     2    11    1
@<TRIPOS>MOLECULE
*****
 44 50 0 0 0
SMALL
GASTEIGER

@<TRIPOS>ATOM
      1 C         -30.3016   49.2705   -3.2859 C.3     1  UNL1        0.1158
      2 N         -29.6837   48.2747   -2.5994 N.3     1  UNL1       -0.2851
      3 C         -28.6823   47.9117   -3.4132 C.3     1  UNL1        0.0910
      4 C         -27.7608   46.8994   -3.1987 C.3     1  UNL1        0.1018
      5 C         -26.8204   46.6594   -4.2101 C.3     1  UNL1        0.3136
      6 N         -26.8234   47.3977   -5.3738 N.am    1  UNL1       -0.1293
      7 C         -27.7541   48.3975   -5.5692 C.2     1  UNL1        0.4047
      8 O         -27.7734   49.0478   -6.6476 O.2     1  UNL1       -0.2174
      9 C         -28.6848   48.6601   -4.5493 C.3     1  UNL1        0.2038
     10 N         -29.6925   49.5623   -4.4790 N.3     1  UNL1       -0.2473
     11 H         -30.3208   47.4954   -2.4344 H       1  UNL1        0.1244
     12 C         -30.0825   50.5597   -5.4989 C.3     1  UNL1        0.0817
     13 C         -29.0059   51.6545   -5.6709 C.3     1  UNL1        0.0252
     14 C         -28.6911   51.7502   -7.1769 C.3     1  UNL1        0.0278
     15 C         -29.4606   50.6360   -7.7799 C.ar    1  UNL1       -0.0248
     16 C         -29.4488   50.2459   -9.1195 C.ar    1  UNL1       -0.0045
     17 C         -30.2403   49.1500   -9.5198 C.ar    1  UNL1       -0.0002
     18 C         -31.0579   48.4989   -8.5695 C.ar    1  UNL1       -0.0003
     19 C         -31.0557   48.9133   -7.2299 C.ar    1  UNL1       -0.0033
     20 C         -30.2266   49.9732   -6.8552 C.ar    1  UNL1       -0.0117
     21 C         -30.2261   48.6945  -10.9287 C.ar    1  UNL1        0.0030
     22 C         -30.0978   47.3183  -11.1848 C.ar    1  UNL1        0.0006
     23 C         -30.1772   46.8269  -12.4884 C.ar    1  UNL1        0.0067
     24 C         -30.3912   47.7011  -13.5541 C.ar    1  UNL1        0.0347
     25 BR        -30.5119   47.0224  -15.3353 Br      1  UNL1       -0.0490
     26 C         -30.5071   49.0734  -13.3198 C.ar    1  UNL1        0.0098
     27 C         -30.4058   49.5900  -12.0165 C.ar    1  UNL1        0.0376
     28 C         -30.4582   51.0598  -11.8387 C.ar    1  UNL1        0.1806
     29 N         -31.5503   51.7377  -11.4374 N.ar    1  UNL1       -0.1084
     30 N         -31.1889   53.0132  -11.4551 N.ar    1  UNL1       -0.0229
     31 N         -29.9330   53.1218  -11.8617 N.ar    1  UNL1       -0.0464
     32 N         -29.4579   51.9155  -12.1106 N.ar    1  UNL1       -0.2388
     33 H         -28.5058   51.7100  -12.4844 H       1  UNL1        0.1923
     34 C         -31.5837   49.9436   -1.2143 C.3     1  UNL1        0.0029
     35 C         -31.5164   49.9819   -2.7393 C.3     1  UNL1        0.0326
     36 C         -25.8418   47.0740   -6.4238 C.3     1  UNL1        0.3404
     37 C         -25.8647   48.1250   -7.5144 C.ar    1  UNL1        0.0640
     38 C         -25.2415   49.3616   -7.2676 C.ar    1  UNL1        0.0031
     39 C         -25.2173   50.3557   -8.2480 C.ar    1  UNL1       -0.0001
     40 C         -25.8158   50.1307   -9.4873 C.ar    1  UNL1        0.0007
     41 C         -26.4436   48.9118   -9.7498 C.ar    1  UNL1        0.0102
     42 C         -26.4754   47.9046   -8.7743 C.ar    1  UNL1        0.0710
     43 C         -27.1481   46.6678   -9.0919 C.1     1  UNL1        0.1003
     44 N         -27.6867   45.6755   -9.3459 N.1     1  UNL1       -0.1908
@<TRIPOS>BOND
     1    34    35    1
     2    35     1    1
     3     1     2    1
     4     2     3    1
     5     3     4    1
     6     4     5    1
     7     5     6    1
     8     6    36    1
     9    36    37    1
    10    37    38   ar
    11    38    39   ar
    12    39    40   ar
    13    40    41   ar
    14    41    42   ar
    15    42    43    1
    16    43    44    3
    17     6     7    1
    18     7     8    2
    19     7     9    1
    20     9    10    1
    21    10    12    1
    22    12    13    1
    23    13    14    1
    24    14    15    1
    25    15    16   ar
    26    16    17   ar
    27    17    21    1
    28    21    22   ar
    29    22    23   ar
    30    23    24   ar
    31    24    25    1
    32    24    26   ar
    33    26    27   ar
    34    27    28    1
    35    28    29   ar
    36    29    30   ar
    37    30    31   ar
    38    31    32   ar
    39    17    18   ar
    40    18    19   ar
    41    19    20   ar
    42    10     1    1
    43    20    12    1
    44     9     3    1
    45    20    15   ar
    46    42    37   ar
    47    27    21   ar
    48    32    28   ar
    49    32    33    1
    50     2    11    1
@<TRIPOS>MOLECULE
*****
 44 50 0 0 0
SMALL
GASTEIGER

@<TRIPOS>ATOM
      1 C         -30.7036   47.8006   -7.1393 C.3     1  UNL1        0.1158
      2 N         -31.5841   48.0089   -6.1264 N.3     1  UNL1       -0.2851
      3 C         -30.9992   47.4109   -5.0789 C.3     1  UNL1        0.0910
      4 C         -31.5053   47.3013   -3.7937 C.3     1  UNL1        0.1018
      5 C         -30.7411   46.5891   -2.8590 C.3     1  UNL1        0.3136
      6 N         -29.5395   46.0143   -3.2127 N.am    1  UNL1       -0.1293
      7 C         -29.0569   46.1307   -4.5001 C.2     1  UNL1        0.4047
      8 O         -27.9744   45.5765   -4.8271 O.2     1  UNL1       -0.2174
      9 C         -29.8059   46.8640   -5.4365 C.3     1  UNL1        0.2038
     10 N         -29.5758   47.1284   -6.7448 N.3     1  UNL1       -0.2473
     11 H         -32.4866   47.5813   -6.3336 H       1  UNL1        0.1244
     12 C         -28.4161   46.7059   -7.5596 C.3     1  UNL1        0.0817
     13 C         -28.8409   46.2775   -8.9821 C.3     1  UNL1        0.0252
     14 C         -27.9543   47.0549   -9.9750 C.3     1  UNL1        0.0278
     15 C         -27.1824   47.9870   -9.1190 C.ar    1  UNL1       -0.0248
     16 C         -26.2901   48.9686   -9.5517 C.ar    1  UNL1       -0.0045
     17 C         -25.6463   49.7781   -8.5936 C.ar    1  UNL1       -0.0002
     18 C         -25.8841   49.5519   -7.2196 C.ar    1  UNL1       -0.0003
     19 C         -26.7819   48.5556   -6.8102 C.ar    1  UNL1       -0.0033
     20 C         -27.4386   47.8004   -7.7847 C.ar    1  UNL1       -0.0117
     21 C         -24.7164   50.8472   -9.0237 C.ar    1  UNL1        0.0030
     22 C         -23.4207   50.8648   -8.4791 C.ar    1  UNL1        0.0006
     23 C         -22.4750   51.7900   -8.9228 C.ar    1  UNL1        0.0067
     24 C         -22.8073   52.7069   -9.9200 C.ar    1  UNL1        0.0347
     25 BR        -21.5056   53.9630  -10.5331 Br      1  UNL1       -0.0490
     26 C         -24.0944   52.7131  -10.4630 C.ar    1  UNL1        0.0098
     27 C         -25.0679   51.8049  -10.0120 C.ar    1  UNL1        0.0376
     28 C         -26.4367   51.9105  -10.5686 C.ar    1  UNL1        0.1806
     29 N         -27.4987   52.3824   -9.8882 N.ar    1  UNL1       -0.1084
     30 N         -28.5222   52.2628  -10.7225 N.ar    1  UNL1       -0.0229
     31 N         -28.1150   51.7287  -11.8641 N.ar    1  UNL1       -0.0464
     32 N         -26.8175   51.4968  -11.7895 N.ar    1  UNL1       -0.2388
     33 H         -26.2446   51.0416  -12.5331 H       1  UNL1        0.1923
     34 C         -30.5872   49.7738   -8.7147 C.3     1  UNL1        0.0029
     35 C         -30.9638   48.3044   -8.5390 C.3     1  UNL1        0.0326
     36 C         -28.7983   45.2379   -2.2034 C.3     1  UNL1        0.3404
     37 C         -27.3056   45.4238   -2.3816 C.ar    1  UNL1        0.0640
     38 C         -26.4971   44.2795   -2.5057 C.ar    1  UNL1        0.0031
     39 C         -25.1182   44.3979   -2.6924 C.ar    1  UNL1       -0.0001
     40 C         -24.5267   45.6591   -2.7561 C.ar    1  UNL1        0.0007
     41 C         -25.3114   46.8068   -2.6303 C.ar    1  UNL1        0.0102
     42 C         -26.6973   46.7025   -2.4423 C.ar    1  UNL1        0.0710
     43 C         -27.4610   47.9196   -2.3054 C.1     1  UNL1        0.1003
     44 N         -28.0733   48.8956   -2.1968 N.1     1  UNL1       -0.1908
@<TRIPOS>BOND
     1    34    35    1
     2    35     1    1
     3     1     2    1
     4     2     3    1
     5     3     4    1
     6     4     5    1
     7     5     6    1
     8     6    36    1
     9    36    37    1
    10    37    38   ar
    11    38    39   ar
    12    39    40   ar
    13    40    41   ar
    14    41    42   ar
    15    42    43    1
    16    43    44    3
    17     6     7    1
    18     7     8    2
    19     7     9    1
    20     9    10    1
    21    10    12    1
    22    12    13    1
    23    13    14    1
    24    14    15    1
    25    15    16   ar
    26    16    17   ar
    27    17    21    1
    28    21    22   ar
    29    22    23   ar
    30    23    24   ar
    31    24    25    1
    32    24    26   ar
    33    26    27   ar
    34    27    28    1
    35    28    29   ar
    36    29    30   ar
    37    30    31   ar
    38    31    32   ar
    39    17    18   ar
    40    18    19   ar
    41    19    20   ar
    42    10     1    1
    43    20    12    1
    44     9     3    1
    45    20    15   ar
    46    42    37   ar
    47    27    21   ar
    48    32    28   ar
    49    32    33    1
    50     2    11    1
@<TRIPOS>MOLECULE
*****
 44 50 0 0 0
SMALL
GASTEIGER

@<TRIPOS>ATOM
      1 C         -30.4846   47.7192  -12.0874 C.3     1  UNL1        0.1158
      2 N         -30.7098   48.9447  -12.6279 N.3     1  UNL1       -0.2851
      3 C         -30.0553   49.7732  -11.8020 C.3     1  UNL1        0.0910
      4 C         -29.9956   51.1551  -11.8846 C.3     1  UNL1        0.1018
      5 C         -29.2871   51.8304  -10.8812 C.3     1  UNL1        0.3136
      6 N         -28.6844   51.1425   -9.8503 N.am    1  UNL1       -0.1293
      7 C         -28.7614   49.7664   -9.7841 C.2     1  UNL1        0.4047
      8 O         -28.2367   49.1446   -8.8229 O.2     1  UNL1       -0.2174
      9 C         -29.4495   49.0807  -10.7999 C.3     1  UNL1        0.2038
     10 N         -29.6804   47.7580  -10.9778 N.3     1  UNL1       -0.2473
     11 H         -31.7070   49.1586  -12.6447 H       1  UNL1        0.1244
     12 C         -29.2353   46.6412  -10.1164 C.3     1  UNL1        0.0817
     13 C         -27.7174   46.3850  -10.2492 C.3     1  UNL1        0.0252
     14 C         -27.1327   46.3670   -8.8230 C.3     1  UNL1        0.0278
     15 C         -28.2728   46.7549   -7.9587 C.ar    1  UNL1       -0.0248
     16 C         -28.2384   46.9616   -6.5792 C.ar    1  UNL1       -0.0045
     17 C         -29.4231   47.3390   -5.9144 C.ar    1  UNL1       -0.0002
     18 C         -30.6244   47.4582   -6.6480 C.ar    1  UNL1       -0.0003
     19 C         -30.6336   47.2403   -8.0332 C.ar    1  UNL1       -0.0033
     20 C         -29.4347   46.9119   -8.6703 C.ar    1  UNL1       -0.0117
     21 C         -29.4113   47.5937   -4.4557 C.ar    1  UNL1        0.0030
     22 C         -30.3249   48.5252   -3.9326 C.ar    1  UNL1        0.0006
     23 C         -30.4224   48.7299   -2.5557 C.ar    1  UNL1        0.0067
     24 C         -29.6137   48.0040   -1.6813 C.ar    1  UNL1        0.0347
     25 BR        -29.7598   48.2784    0.2032 Br      1  UNL1       -0.0490
     26 C         -28.6904   47.0841   -2.1840 C.ar    1  UNL1        0.0098
     27 C         -28.5605   46.8815   -3.5689 C.ar    1  UNL1        0.0376
     28 C         -27.5107   45.9516   -4.0462 C.ar    1  UNL1        0.1806
     29 N         -27.7022   44.6361   -4.2614 N.ar    1  UNL1       -0.1084
     30 N         -26.5164   44.1720   -4.6305 N.ar    1  UNL1       -0.0229
     31 N         -25.6269   45.1534   -4.6313 N.ar    1  UNL1       -0.0464
     32 N         -26.2241   46.2727   -4.2660 N.ar    1  UNL1       -0.2388
     33 H         -25.7501   47.1937   -4.1416 H       1  UNL1        0.1923
     34 C         -30.4630   46.1534  -14.0714 C.3     1  UNL1        0.0029
     35 C         -31.0546   46.4610  -12.6977 C.3     1  UNL1        0.0326
     36 C         -27.9910   51.9043   -8.7969 C.3     1  UNL1        0.3404
     37 C         -26.5039   51.6176   -8.8258 C.ar    1  UNL1        0.0640
     38 C         -25.7645   52.0213   -9.9523 C.ar    1  UNL1        0.0031
     39 C         -24.3875   51.7985  -10.0182 C.ar    1  UNL1       -0.0001
     40 C         -23.7294   51.1687   -8.9624 C.ar    1  UNL1        0.0007
     41 C         -24.4464   50.7563   -7.8378 C.ar    1  UNL1        0.0102
     42 C         -25.8296   50.9736   -7.7583 C.ar    1  UNL1        0.0710
     43 C         -26.5256   50.5166   -6.5794 C.1     1  UNL1        0.1003
     44 N         -27.0836   50.1514   -5.6335 N.1     1  UNL1       -0.1908
@<TRIPOS>BOND
     1    34    35    1
     2    35     1    1
     3     1     2    1
     4     2     3    1
     5     3     4    1
     6     4     5    1
     7     5     6    1
     8     6    36    1
     9    36    37    1
    10    37    38   ar
    11    38    39   ar
    12    39    40   ar
    13    40    41   ar
    14    41    42   ar
    15    42    43    1
    16    43    44    3
    17     6     7    1
    18     7     8    2
    19     7     9    1
    20     9    10    1
    21    10    12    1
    22    12    13    1
    23    13    14    1
    24    14    15    1
    25    15    16   ar
    26    16    17   ar
    27    17    21    1
    28    21    22   ar
    29    22    23   ar
    30    23    24   ar
    31    24    25    1
    32    24    26   ar
    33    26    27   ar
    34    27    28    1
    35    28    29   ar
    36    29    30   ar
    37    30    31   ar
    38    31    32   ar
    39    17    18   ar
    40    18    19   ar
    41    19    20   ar
    42    10     1    1
    43    20    12    1
    44     9     3    1
    45    20    15   ar
    46    42    37   ar
    47    27    21   ar
    48    32    28   ar
    49    32    33    1
    50     2    11    1
