@<TRIPOS>MOLECULE
*****
 38 40 0 0 0
SMALL
GASTEIGER

@<TRIPOS>ATOM
      1 C          44.9145   12.7141  -24.3634 C.3     1  UNL1        0.2320
      2 C          45.6173   13.6351  -25.3170 C.ar    1  UNL1        0.0209
      3 C          45.7799   13.2704  -26.6618 C.ar    1  UNL1       -0.0007
      4 C          46.4771   14.1057  -27.5369 C.ar    1  UNL1       -0.0005
      5 C          47.0202   15.3075  -27.0775 C.ar    1  UNL1       -0.0029
      6 C          46.8602   15.6926  -25.7358 C.ar    1  UNL1       -0.0063
      7 C          46.1810   14.8346  -24.8538 C.ar    1  UNL1       -0.0036
      8 C          47.4873   16.9658  -25.2252 C.3     1  UNL1        0.0996
      9 N          48.9714   16.8812  -25.2749 N.3     1  UNL1       -0.2579
     10 C          49.5076   16.2837  -24.0303 C.3     1  UNL1        0.1001
     11 C          49.9850   14.8826  -24.2857 C.ar    1  UNL1        0.0009
     12 C          50.0605   13.9075  -23.2790 C.ar    1  UNL1        0.0046
     13 C          50.5567   12.6901  -23.7223 C.ar    1  UNL1        0.0352
     14 S          50.8994   12.8330  -25.3611 S.2     1  UNL1       -0.0862
     15 C          50.4222   14.4351  -25.5281 C.ar    1  UNL1        0.0325
     16 C          49.6007   18.2033  -25.5159 C.3     1  UNL1        0.1772
     17 C          50.6680   18.1541  -26.6169 C.3     1  UNL1        0.4121
     18 F          50.6243   16.9209  -27.2421 F       1  UNL1       -0.1685
     19 F          50.4323   19.1387  -27.5601 F       1  UNL1       -0.1685
     20 F          51.9299   18.3209  -26.0789 F       1  UNL1       -0.1685
     21 O          45.8056   11.6706  -23.9801 O.3     1  UNL1       -0.4707
     22 C          48.4202   11.7390  -20.6548 C.ar    1  UNL1       -0.0137
     23 C          47.4711   12.7649  -20.8394 C.ar    1  UNL1       -0.0005
     24 C          46.6023   12.7577  -21.9268 C.ar    1  UNL1        0.0366
     25 C          46.6550   11.7192  -22.8646 C.ar    1  UNL1        0.1387
     26 C          47.5819   10.6887  -22.6936 C.ar    1  UNL1        0.0324
     27 C          48.4680   10.6646  -21.5917 C.ar    1  UNL1       -0.0222
     28 C          49.4720    9.5300  -21.4130 C.3     1  UNL1        0.0262
     29 C          50.0124    8.8953  -22.6962 C.3     1  UNL1        0.0050
     30 C          49.3359   11.8093  -19.4328 C.3     1  UNL1        0.0970
     31 C          52.6581   14.1315  -20.2793 C.3     1  UNL1        0.0900
     32 C          51.4853   13.3099  -19.9817 C.1     1  UNL1       -0.0897
     33 C          50.5182   12.6335  -19.7351 C.1     1  UNL1       -0.0870
     34 C          48.6035   12.3763  -18.2021 C.3     1  UNL1        0.1267
     35 C          48.8750   11.5558  -16.9750 C.2     1  UNL1        0.3152
     36 O          47.9207   11.0150  -16.3565 O.2     1  UNL1       -0.2502
     37 O          50.1791   11.3529  -16.5338 O.3     1  UNL1       -0.4801
     38 H          50.9668   11.7571  -17.0259 H       1  UNL1        0.2951
@<TRIPOS>BOND
     1    31    32    1
     2    32    33    3
     3    33    30    1
     4    30    34    1
     5    34    35    1
     6    35    36    2
     7    35    37    1
     8    30    22    1
     9    22    23   ar
    10    23    24   ar
    11    24    25   ar
    12    25    21    1
    13    21     1    1
    14     1     2    1
    15     2     3   ar
    16     3     4   ar
    17     4     5   ar
    18     5     6   ar
    19     6     8    1
    20     8     9    1
    21     9    10    1
    22    10    11    1
    23    11    12   ar
    24    12    13   ar
    25    13    14   ar
    26    14    15   ar
    27     9    16    1
    28    16    17    1
    29    17    18    1
    30    17    19    1
    31    17    20    1
    32     6     7   ar
    33    25    26   ar
    34    26    27   ar
    35    27    28    1
    36    28    29    1
    37    27    22   ar
    38     7     2   ar
    39    15    11   ar
    40    37    38    1
@<TRIPOS>MOLECULE
*****
 38 40 0 0 0
SMALL
GASTEIGER

@<TRIPOS>ATOM
      1 C          45.0976   12.5260  -24.9304 C.3     1  UNL1        0.2320
      2 C          45.5208   13.5960  -25.8935 C.ar    1  UNL1        0.0209
      3 C          45.7394   13.2854  -27.2440 C.ar    1  UNL1       -0.0007
      4 C          46.1809   14.2711  -28.1291 C.ar    1  UNL1       -0.0005
      5 C          46.4113   15.5712  -27.6740 C.ar    1  UNL1       -0.0029
      6 C          46.1900   15.9021  -26.3267 C.ar    1  UNL1       -0.0063
      7 C          45.7719   14.8991  -25.4352 C.ar    1  UNL1       -0.0036
      8 C          46.4847   17.2926  -25.8220 C.3     1  UNL1        0.0996
      9 N          47.8903   17.3958  -25.3467 N.3     1  UNL1       -0.2579
     10 C          47.9678   17.1957  -23.8813 C.3     1  UNL1        0.1001
     11 C          48.8878   16.0537  -23.5568 C.ar    1  UNL1        0.0009
     12 C          50.0274   15.7524  -24.3188 C.ar    1  UNL1        0.0046
     13 C          50.7201   14.6397  -23.8643 C.ar    1  UNL1        0.0352
     14 S          49.9124   14.0365  -22.5198 S.2     1  UNL1       -0.0862
     15 C          48.6792   15.1771  -22.4969 C.ar    1  UNL1        0.0325
     16 C          48.5135   18.6908  -25.7164 C.3     1  UNL1        0.1772
     17 C          49.6673   18.5242  -26.7139 C.3     1  UNL1        0.4121
     18 F          50.8720   18.6492  -26.0454 F       1  UNL1       -0.1685
     19 F          49.6154   17.2745  -27.3055 F       1  UNL1       -0.1685
     20 F          49.6116   19.5011  -27.6897 F       1  UNL1       -0.1685
     21 O          46.1572   12.2807  -24.0102 O.3     1  UNL1       -0.4707
     22 C          50.0468   10.9722  -25.0386 C.ar    1  UNL1       -0.0137
     23 C          49.3906   11.9464  -25.8182 C.ar    1  UNL1       -0.0005
     24 C          48.1117   12.3894  -25.4937 C.ar    1  UNL1        0.0366
     25 C          47.4488   11.8714  -24.3745 C.ar    1  UNL1        0.1387
     26 C          48.0862   10.9125  -23.5842 C.ar    1  UNL1        0.0324
     27 C          49.3900   10.4536  -23.8836 C.ar    1  UNL1       -0.0222
     28 C          50.0779    9.4101  -23.0089 C.3     1  UNL1        0.0262
     29 C          49.6172    9.3376  -21.5515 C.3     1  UNL1        0.0050
     30 C          51.4539   10.5400  -25.4513 C.3     1  UNL1        0.0970
     31 C          51.3400    8.6664  -29.1421 C.3     1  UNL1        0.0900
     32 C          51.3788    9.3268  -27.8377 C.1     1  UNL1       -0.0897
     33 C          51.4120    9.8721  -26.7630 C.1     1  UNL1       -0.0870
     34 C          52.4260   11.7337  -25.5025 C.3     1  UNL1        0.1267
     35 C          53.4235   11.6782  -24.3824 C.2     1  UNL1        0.3152
     36 O          53.8262   12.7439  -23.8459 O.2     1  UNL1       -0.2502
     37 O          53.8806   10.4547  -23.9020 O.3     1  UNL1       -0.4801
     38 H          53.5554    9.5819  -24.3000 H       1  UNL1        0.2951
@<TRIPOS>BOND
     1    31    32    1
     2    32    33    3
     3    33    30    1
     4    30    34    1
     5    34    35    1
     6    35    36    2
     7    35    37    1
     8    30    22    1
     9    22    23   ar
    10    23    24   ar
    11    24    25   ar
    12    25    21    1
    13    21     1    1
    14     1     2    1
    15     2     3   ar
    16     3     4   ar
    17     4     5   ar
    18     5     6   ar
    19     6     8    1
    20     8     9    1
    21     9    10    1
    22    10    11    1
    23    11    12   ar
    24    12    13   ar
    25    13    14   ar
    26    14    15   ar
    27     9    16    1
    28    16    17    1
    29    17    18    1
    30    17    19    1
    31    17    20    1
    32     6     7   ar
    33    25    26   ar
    34    26    27   ar
    35    27    28    1
    36    28    29    1
    37    27    22   ar
    38     7     2   ar
    39    15    11   ar
    40    37    38    1
@<TRIPOS>MOLECULE
*****
 38 40 0 0 0
SMALL
GASTEIGER

@<TRIPOS>ATOM
      1 C          49.7535    9.7536  -24.7925 C.3     1  UNL1        0.2320
      2 C          49.9601   11.1939  -25.1591 C.ar    1  UNL1        0.0209
      3 C          51.2575   11.7109  -25.2906 C.ar    1  UNL1       -0.0007
      4 C          51.4489   13.0628  -25.5831 C.ar    1  UNL1       -0.0005
      5 C          50.3495   13.9092  -25.7426 C.ar    1  UNL1       -0.0029
      6 C          49.0429   13.4070  -25.6223 C.ar    1  UNL1       -0.0063
      7 C          48.8574   12.0514  -25.3009 C.ar    1  UNL1       -0.0036
      8 C          47.8549   14.3282  -25.7454 C.3     1  UNL1        0.0996
      9 N          46.6525   13.5821  -26.2036 N.3     1  UNL1       -0.2579
     10 C          46.2939   13.9599  -27.5900 C.3     1  UNL1        0.1001
     11 C          46.3726   12.7640  -28.4954 C.ar    1  UNL1        0.0009
     12 C          46.7593   11.4917  -28.0462 C.ar    1  UNL1        0.0046
     13 C          46.7947   10.5359  -29.0511 C.ar    1  UNL1        0.0352
     14 S          46.3465   11.2772  -30.4910 S.2     1  UNL1       -0.0862
     15 C          46.1011   12.8142  -29.8588 C.ar    1  UNL1        0.0325
     16 C          45.4897   13.7861  -25.3045 C.3     1  UNL1        0.1772
     17 C          44.9672   12.4708  -24.7120 C.3     1  UNL1        0.4121
     18 F          45.9390   11.9176  -23.8976 F       1  UNL1       -0.1685
     19 F          43.8322   12.7012  -23.9550 F       1  UNL1       -0.1685
     20 F          44.6786   11.5659  -25.7157 F       1  UNL1       -0.1685
     21 O          50.1139    9.5631  -23.4273 O.3     1  UNL1       -0.4707
     22 C          48.2627   11.5563  -20.1871 C.ar    1  UNL1       -0.0137
     23 C          47.9344   10.2181  -20.4851 C.ar    1  UNL1       -0.0005
     24 C          48.5345    9.5466  -21.5463 C.ar    1  UNL1        0.0366
     25 C          49.4862   10.1947  -22.3431 C.ar    1  UNL1        0.1387
     26 C          49.8319   11.5173  -22.0577 C.ar    1  UNL1        0.0324
     27 C          49.2470   12.2194  -20.9783 C.ar    1  UNL1       -0.0222
     28 C          49.6374   13.6622  -20.6732 C.3     1  UNL1        0.0262
     29 C          49.3975   14.6797  -21.7906 C.3     1  UNL1        0.0050
     30 C          47.5688   12.2266  -19.0013 C.3     1  UNL1        0.0970
     31 C          43.4617   11.8430  -19.3630 C.3     1  UNL1        0.0900
     32 C          44.9122   11.9806  -19.2356 C.1     1  UNL1       -0.0897
     33 C          46.1080   12.0924  -19.1301 C.1     1  UNL1       -0.0870
     34 C          48.0326   11.6328  -17.6579 C.3     1  UNL1        0.1267
     35 C          48.7908   12.6408  -16.8443 C.2     1  UNL1        0.3152
     36 O          48.1669   13.4767  -16.1390 O.2     1  UNL1       -0.2502
     37 O          50.1823   12.6364  -16.8303 O.3     1  UNL1       -0.4801
     38 H          50.7088   11.9601  -17.3702 H       1  UNL1        0.2951
@<TRIPOS>BOND
     1    31    32    1
     2    32    33    3
     3    33    30    1
     4    30    34    1
     5    34    35    1
     6    35    36    2
     7    35    37    1
     8    30    22    1
     9    22    23   ar
    10    23    24   ar
    11    24    25   ar
    12    25    21    1
    13    21     1    1
    14     1     2    1
    15     2     3   ar
    16     3     4   ar
    17     4     5   ar
    18     5     6   ar
    19     6     8    1
    20     8     9    1
    21     9    10    1
    22    10    11    1
    23    11    12   ar
    24    12    13   ar
    25    13    14   ar
    26    14    15   ar
    27     9    16    1
    28    16    17    1
    29    17    18    1
    30    17    19    1
    31    17    20    1
    32     6     7   ar
    33    25    26   ar
    34    26    27   ar
    35    27    28    1
    36    28    29    1
    37    27    22   ar
    38     7     2   ar
    39    15    11   ar
    40    37    38    1
@<TRIPOS>MOLECULE
*****
 38 40 0 0 0
SMALL
GASTEIGER

@<TRIPOS>ATOM
      1 C          50.9861   15.7307  -23.6945 C.3     1  UNL1        0.2320
      2 C          50.6286   16.5817  -24.8775 C.ar    1  UNL1        0.0209
      3 C          51.5095   17.5782  -25.3235 C.ar    1  UNL1       -0.0007
      4 C          51.1544   18.4023  -26.3934 C.ar    1  UNL1       -0.0005
      5 C          49.9183   18.2418  -27.0232 C.ar    1  UNL1       -0.0029
      6 C          49.0269   17.2438  -26.5950 C.ar    1  UNL1       -0.0063
      7 C          49.3788   16.4356  -25.5002 C.ar    1  UNL1       -0.0036
      8 C          47.6715   17.1001  -27.2410 C.3     1  UNL1        0.0996
      9 N          46.6618   16.6339  -26.2533 N.3     1  UNL1       -0.2579
     10 C          45.6242   15.8062  -26.9104 C.3     1  UNL1        0.1001
     11 C          45.6482   14.4067  -26.3654 C.ar    1  UNL1        0.0009
     12 C          45.1188   14.0681  -25.1104 C.ar    1  UNL1        0.0046
     13 C          45.2720   12.7276  -24.7874 C.ar    1  UNL1        0.0352
     14 S          46.0648   11.9720  -26.0618 S.2     1  UNL1       -0.0862
     15 C          46.2211   13.3313  -27.0365 C.ar    1  UNL1        0.0325
     16 C          46.0273   17.7608  -25.5257 C.3     1  UNL1        0.1772
     17 C          46.4485   17.8199  -24.0516 C.3     1  UNL1        0.4121
     18 F          47.5374   18.6628  -23.9201 F       1  UNL1       -0.1685
     19 F          45.4130   18.3080  -23.2743 F       1  UNL1       -0.1685
     20 F          46.8155   16.5666  -23.5999 F       1  UNL1       -0.1685
     21 O          49.9557   15.8351  -22.7160 O.3     1  UNL1       -0.4707
     22 C          48.4090   12.5893  -20.4864 C.ar    1  UNL1       -0.0137
     23 C          47.8258   12.9540  -21.7170 C.ar    1  UNL1       -0.0005
     24 C          48.3225   14.0180  -22.4643 C.ar    1  UNL1        0.0366
     25 C          49.4228   14.7508  -22.0029 C.ar    1  UNL1        0.1387
     26 C          50.0204   14.3986  -20.7907 C.ar    1  UNL1        0.0324
     27 C          49.5441   13.3146  -20.0174 C.ar    1  UNL1       -0.0222
     28 C          50.2093   12.9362  -18.6977 C.3     1  UNL1        0.0262
     29 C          51.6926   12.5671  -18.7681 C.3     1  UNL1        0.0050
     30 C          47.8146   11.4046  -19.7249 C.3     1  UNL1        0.0970
     31 C          43.7893   12.0557  -19.0045 C.3     1  UNL1        0.0900
     32 C          45.2106   11.8249  -19.2608 C.1     1  UNL1       -0.0897
     33 C          46.3826   11.6355  -19.4708 C.1     1  UNL1       -0.0870
     34 C          48.0038   10.0811  -20.4898 C.3     1  UNL1        0.1267
     35 C          49.3627    9.4935  -20.2431 C.2     1  UNL1        0.3152
     36 O          50.0470    9.0649  -21.2094 O.2     1  UNL1       -0.2502
     37 O          49.8933    9.4528  -18.9573 O.3     1  UNL1       -0.4801
     38 H          49.3737    9.8118  -18.1653 H       1  UNL1        0.2951
@<TRIPOS>BOND
     1    31    32    1
     2    32    33    3
     3    33    30    1
     4    30    34    1
     5    34    35    1
     6    35    36    2
     7    35    37    1
     8    30    22    1
     9    22    23   ar
    10    23    24   ar
    11    24    25   ar
    12    25    21    1
    13    21     1    1
    14     1     2    1
    15     2     3   ar
    16     3     4   ar
    17     4     5   ar
    18     5     6   ar
    19     6     8    1
    20     8     9    1
    21     9    10    1
    22    10    11    1
    23    11    12   ar
    24    12    13   ar
    25    13    14   ar
    26    14    15   ar
    27     9    16    1
    28    16    17    1
    29    17    18    1
    30    17    19    1
    31    17    20    1
    32     6     7   ar
    33    25    26   ar
    34    26    27   ar
    35    27    28    1
    36    28    29    1
    37    27    22   ar
    38     7     2   ar
    39    15    11   ar
    40    37    38    1
@<TRIPOS>MOLECULE
*****
 38 40 0 0 0
SMALL
GASTEIGER

@<TRIPOS>ATOM
      1 C          50.2657   16.0612  -24.2422 C.3     1  UNL1        0.2320
      2 C          49.3379   16.1292  -25.4195 C.ar    1  UNL1        0.0209
      3 C          49.1427   17.3422  -26.0966 C.ar    1  UNL1       -0.0007
      4 C          48.2417   17.4157  -27.1608 C.ar    1  UNL1       -0.0005
      5 C          47.5264   16.2827  -27.5548 C.ar    1  UNL1       -0.0029
      6 C          47.7151   15.0577  -26.8933 C.ar    1  UNL1       -0.0063
      7 C          48.6031   14.9968  -25.8055 C.ar    1  UNL1       -0.0036
      8 C          46.9085   13.8447  -27.2844 C.3     1  UNL1        0.0996
      9 N          46.9532   12.8124  -26.2145 N.3     1  UNL1       -0.2579
     10 C          47.9300   11.7500  -26.5470 C.3     1  UNL1        0.1001
     11 C          49.0501   11.7369  -25.5464 C.ar    1  UNL1        0.0009
     12 C          50.3269   12.2492  -25.8244 C.ar    1  UNL1        0.0046
     13 C          51.2213   12.1100  -24.7730 C.ar    1  UNL1        0.0352
     14 S          50.4210   11.3507  -23.5054 S.2     1  UNL1       -0.0862
     15 C          48.9345   11.1916  -24.2718 C.ar    1  UNL1        0.0325
     16 C          45.6200   12.2142  -25.9565 C.3     1  UNL1        0.1772
     17 C          44.9646   12.7660  -24.6837 C.3     1  UNL1        0.4121
     18 F          45.4299   12.0626  -23.5873 F       1  UNL1       -0.1685
     19 F          45.2810   14.1031  -24.5203 F       1  UNL1       -0.1685
     20 F          43.5918   12.6187  -24.7404 F       1  UNL1       -0.1685
     21 O          49.5035   16.1474  -23.0416 O.3     1  UNL1       -0.4707
     22 C          48.3104   12.8403  -20.6883 C.ar    1  UNL1       -0.0137
     23 C          47.5494   13.2326  -21.8083 C.ar    1  UNL1       -0.0005
     24 C          47.9279   14.3171  -22.5944 C.ar    1  UNL1        0.0366
     25 C          49.0842   15.0433  -22.2843 C.ar    1  UNL1        0.1387
     26 C          49.8565   14.6640  -21.1843 C.ar    1  UNL1        0.0324
     27 C          49.5022   13.5590  -20.3760 C.ar    1  UNL1       -0.0222
     28 C          50.3575   13.1512  -19.1805 C.3     1  UNL1        0.0262
     29 C          51.8641   13.0498  -19.4285 C.3     1  UNL1        0.0050
     30 C          47.8376   11.6343  -19.8765 C.3     1  UNL1        0.0970
     31 C          43.8181   12.0325  -18.9650 C.3     1  UNL1        0.0900
     32 C          45.2381   11.8908  -19.2851 C.1     1  UNL1       -0.0897
     33 C          46.4084   11.7746  -19.5505 C.1     1  UNL1       -0.0870
     34 C          48.0755   10.3111  -20.6281 C.3     1  UNL1        0.1267
     35 C          49.3374    9.6390  -20.1711 C.2     1  UNL1        0.3152
     36 O          50.0466    9.0055  -20.9964 O.2     1  UNL1       -0.2502
     37 O          49.7543    9.7418  -18.8473 O.3     1  UNL1       -0.4801
     38 H          49.2148   10.2647  -18.1680 H       1  UNL1        0.2951
@<TRIPOS>BOND
     1    31    32    1
     2    32    33    3
     3    33    30    1
     4    30    34    1
     5    34    35    1
     6    35    36    2
     7    35    37    1
     8    30    22    1
     9    22    23   ar
    10    23    24   ar
    11    24    25   ar
    12    25    21    1
    13    21     1    1
    14     1     2    1
    15     2     3   ar
    16     3     4   ar
    17     4     5   ar
    18     5     6   ar
    19     6     8    1
    20     8     9    1
    21     9    10    1
    22    10    11    1
    23    11    12   ar
    24    12    13   ar
    25    13    14   ar
    26    14    15   ar
    27     9    16    1
    28    16    17    1
    29    17    18    1
    30    17    19    1
    31    17    20    1
    32     6     7   ar
    33    25    26   ar
    34    26    27   ar
    35    27    28    1
    36    28    29    1
    37    27    22   ar
    38     7     2   ar
    39    15    11   ar
    40    37    38    1
@<TRIPOS>MOLECULE
*****
 38 40 0 0 0
SMALL
GASTEIGER

@<TRIPOS>ATOM
      1 C          46.3593   12.1530  -26.7025 C.3     1  UNL1        0.2320
      2 C          46.4131   13.6440  -26.8613 C.ar    1  UNL1        0.0209
      3 C          45.9449   14.2469  -28.0383 C.ar    1  UNL1       -0.0007
      4 C          46.0407   15.6300  -28.2054 C.ar    1  UNL1       -0.0005
      5 C          46.6072   16.4207  -27.2033 C.ar    1  UNL1       -0.0029
      6 C          47.0742   15.8349  -26.0147 C.ar    1  UNL1       -0.0063
      7 C          46.9996   14.4395  -25.8641 C.ar    1  UNL1       -0.0036
      8 C          47.7308   16.6799  -24.9517 C.3     1  UNL1        0.0996
      9 N          49.2125   16.5917  -25.0466 N.3     1  UNL1       -0.2579
     10 C          49.7826   15.9663  -23.8311 C.3     1  UNL1        0.1001
     11 C          50.5377   14.7183  -24.1896 C.ar    1  UNL1        0.0009
     12 C          50.5549   14.1838  -25.4873 C.ar    1  UNL1        0.0046
     13 C          51.2876   13.0106  -25.5940 C.ar    1  UNL1        0.0352
     14 S          51.9083   12.6441  -24.0761 S.2     1  UNL1       -0.0862
     15 C          51.2589   13.9661  -23.2681 C.ar    1  UNL1        0.0325
     16 C          49.8394   17.9166  -25.2780 C.3     1  UNL1        0.1772
     17 C          50.6518   17.9632  -26.5787 C.3     1  UNL1        0.4121
     18 F          51.9890   18.1490  -26.2768 F       1  UNL1       -0.1685
     19 F          50.5148   16.7751  -27.2746 F       1  UNL1       -0.1685
     20 F          50.2383   19.0155  -27.3732 F       1  UNL1       -0.1685
     21 O          46.2313   11.5510  -27.9874 O.3     1  UNL1       -0.4707
     22 C          49.0044    8.7453  -29.5159 C.ar    1  UNL1       -0.0137
     23 C          47.8288    9.0513  -30.2313 C.ar    1  UNL1       -0.0005
     24 C          46.9064    9.9727  -29.7441 C.ar    1  UNL1        0.0366
     25 C          47.1336   10.6200  -28.5235 C.ar    1  UNL1        0.1387
     26 C          48.2972   10.3373  -27.8048 C.ar    1  UNL1        0.0324
     27 C          49.2571    9.4149  -28.2821 C.ar    1  UNL1       -0.0222
     28 C          50.5271    9.1192  -27.4904 C.3     1  UNL1        0.0262
     29 C          50.4976    9.4788  -26.0034 C.3     1  UNL1        0.0050
     30 C          49.9755    7.7290  -30.1169 C.3     1  UNL1        0.0970
     31 C          48.1736    5.7519  -33.2776 C.3     1  UNL1        0.0900
     32 C          48.8117    6.4490  -32.1614 C.1     1  UNL1       -0.0897
     33 C          49.3366    7.0247  -31.2413 C.1     1  UNL1       -0.0870
     34 C          51.2800    8.3968  -30.5910 C.3     1  UNL1        0.1267
     35 C          52.3699    7.3863  -30.8000 C.2     1  UNL1        0.3152
     36 O          52.4743    6.7939  -31.9062 O.2     1  UNL1       -0.2502
     37 O          53.2944    7.1243  -29.7934 O.3     1  UNL1       -0.4801
     38 H          53.2475    7.6035  -28.9022 H       1  UNL1        0.2951
@<TRIPOS>BOND
     1    31    32    1
     2    32    33    3
     3    33    30    1
     4    30    34    1
     5    34    35    1
     6    35    36    2
     7    35    37    1
     8    30    22    1
     9    22    23   ar
    10    23    24   ar
    11    24    25   ar
    12    25    21    1
    13    21     1    1
    14     1     2    1
    15     2     3   ar
    16     3     4   ar
    17     4     5   ar
    18     5     6   ar
    19     6     8    1
    20     8     9    1
    21     9    10    1
    22    10    11    1
    23    11    12   ar
    24    12    13   ar
    25    13    14   ar
    26    14    15   ar
    27     9    16    1
    28    16    17    1
    29    17    18    1
    30    17    19    1
    31    17    20    1
    32     6     7   ar
    33    25    26   ar
    34    26    27   ar
    35    27    28    1
    36    28    29    1
    37    27    22   ar
    38     7     2   ar
    39    15    11   ar
    40    37    38    1
@<TRIPOS>MOLECULE
*****
 38 40 0 0 0
SMALL
GASTEIGER

@<TRIPOS>ATOM
      1 C          51.8515   11.5087  -24.3955 C.3     1  UNL1        0.2320
      2 C          51.0168   10.4870  -23.6808 C.ar    1  UNL1        0.0209
      3 C          50.9504    9.1694  -24.1579 C.ar    1  UNL1       -0.0007
      4 C          50.1346    8.2319  -23.5210 C.ar    1  UNL1       -0.0005
      5 C          49.3769    8.6017  -22.4077 C.ar    1  UNL1       -0.0029
      6 C          49.4372    9.9147  -21.9114 C.ar    1  UNL1       -0.0063
      7 C          50.2391   10.8604  -22.5732 C.ar    1  UNL1       -0.0036
      8 C          48.5831   10.3297  -20.7396 C.3     1  UNL1        0.0996
      9 N          48.1719   11.7537  -20.8630 N.3     1  UNL1       -0.2579
     10 C          48.4220   12.4864  -19.6004 C.3     1  UNL1        0.1001
     11 C          49.8849   12.7944  -19.4549 C.ar    1  UNL1        0.0009
     12 C          50.5644   13.6847  -20.3010 C.ar    1  UNL1        0.0046
     13 C          51.9163   13.8016  -20.0121 C.ar    1  UNL1        0.0352
     14 S          52.2592   12.7979  -18.7088 S.2     1  UNL1       -0.0862
     15 C          50.7015   12.2063  -18.4945 C.ar    1  UNL1        0.0325
     16 C          46.7485   11.8941  -21.2584 C.3     1  UNL1        0.1772
     17 C          46.5848   12.3169  -22.7242 C.3     1  UNL1        0.4121
     18 F          47.3234   13.4636  -22.9550 F       1  UNL1       -0.1685
     19 F          47.0401   11.3184  -23.5669 F       1  UNL1       -0.1685
     20 F          45.2603   12.5924  -23.0059 F       1  UNL1       -0.1685
     21 O          51.2098   11.8641  -25.6169 O.3     1  UNL1       -0.4707
     22 C          47.8769   14.4508  -25.9321 C.ar    1  UNL1       -0.0137
     23 C          49.1431   14.9564  -25.5733 C.ar    1  UNL1       -0.0005
     24 C          50.2505   14.1202  -25.4662 C.ar    1  UNL1        0.0366
     25 C          50.1254   12.7485  -25.7179 C.ar    1  UNL1        0.1387
     26 C          48.8813   12.2303  -26.0842 C.ar    1  UNL1        0.0324
     27 C          47.7424   13.0588  -26.2124 C.ar    1  UNL1       -0.0222
     28 C          46.3901   12.4814  -26.6189 C.3     1  UNL1        0.0262
     29 C          46.3260   11.8083  -27.9917 C.3     1  UNL1        0.0050
     30 C          46.7081   15.4304  -26.0379 C.3     1  UNL1        0.0970
     31 C          46.6412   17.9194  -22.7294 C.3     1  UNL1        0.0900
     32 C          46.6655   17.0419  -23.8991 C.1     1  UNL1       -0.0897
     33 C          46.6853   16.3172  -24.8625 C.1     1  UNL1       -0.0870
     34 C          46.7822   16.2710  -27.3264 C.3     1  UNL1        0.1267
     35 C          45.6580   15.9394  -28.2640 C.2     1  UNL1        0.3152
     36 O          44.5363   16.4933  -28.1213 O.2     1  UNL1       -0.2502
     37 O          45.8541   15.0519  -29.3179 O.3     1  UNL1       -0.4801
     38 H          46.7529   14.6101  -29.4695 H       1  UNL1        0.2951
@<TRIPOS>BOND
     1    31    32    1
     2    32    33    3
     3    33    30    1
     4    30    34    1
     5    34    35    1
     6    35    36    2
     7    35    37    1
     8    30    22    1
     9    22    23   ar
    10    23    24   ar
    11    24    25   ar
    12    25    21    1
    13    21     1    1
    14     1     2    1
    15     2     3   ar
    16     3     4   ar
    17     4     5   ar
    18     5     6   ar
    19     6     8    1
    20     8     9    1
    21     9    10    1
    22    10    11    1
    23    11    12   ar
    24    12    13   ar
    25    13    14   ar
    26    14    15   ar
    27     9    16    1
    28    16    17    1
    29    17    18    1
    30    17    19    1
    31    17    20    1
    32     6     7   ar
    33    25    26   ar
    34    26    27   ar
    35    27    28    1
    36    28    29    1
    37    27    22   ar
    38     7     2   ar
    39    15    11   ar
    40    37    38    1
@<TRIPOS>MOLECULE
*****
 38 40 0 0 0
SMALL
GASTEIGER

@<TRIPOS>ATOM
      1 C          48.8239   11.4008  -21.2579 C.3     1  UNL1        0.2320
      2 C          49.4580   10.4410  -22.2214 C.ar    1  UNL1        0.0209
      3 C          49.0582    9.0966  -22.2462 C.ar    1  UNL1       -0.0007
      4 C          49.6833    8.1936  -23.1085 C.ar    1  UNL1       -0.0005
      5 C          50.7130    8.6228  -23.9486 C.ar    1  UNL1       -0.0029
      6 C          51.1210    9.9672  -23.9428 C.ar    1  UNL1       -0.0063
      7 C          50.5065   10.8652  -23.0532 C.ar    1  UNL1       -0.0036
      8 C          52.2653   10.4233  -24.8131 C.3     1  UNL1        0.0996
      9 N          51.7648   11.1856  -25.9881 N.3     1  UNL1       -0.2579
     10 C          52.3815   10.6900  -27.2401 C.3     1  UNL1        0.1001
     11 C          51.4559    9.7339  -27.9368 C.ar    1  UNL1        0.0009
     12 C          51.8771    8.8794  -28.9675 C.ar    1  UNL1        0.0046
     13 C          50.8567    8.1008  -29.4941 C.ar    1  UNL1        0.0352
     14 S          49.4380    8.4796  -28.6772 S.2     1  UNL1       -0.0862
     15 C          50.0992    9.6306  -27.6475 C.ar    1  UNL1        0.0325
     16 C          51.9973   12.6447  -25.8503 C.3     1  UNL1        0.1772
     17 C          50.7094   13.4181  -25.5387 C.3     1  UNL1        0.4121
     18 F          49.6173   12.6020  -25.7730 F       1  UNL1       -0.1685
     19 F          50.6931   13.8114  -24.2122 F       1  UNL1       -0.1685
     20 F          50.6003   14.5295  -26.3525 F       1  UNL1       -0.1685
     21 O          47.5321   11.7606  -21.7395 O.3     1  UNL1       -0.4707
     22 C          46.8426   13.6869  -25.4425 C.ar    1  UNL1       -0.0137
     23 C          46.5148   12.3263  -25.2723 C.ar    1  UNL1       -0.0005
     24 C          46.7335   11.6771  -24.0607 C.ar    1  UNL1        0.0366
     25 C          47.2866   12.3720  -22.9781 C.ar    1  UNL1        0.1387
     26 C          47.6089   13.7229  -23.1243 C.ar    1  UNL1        0.0324
     27 C          47.3859   14.4104  -24.3399 C.ar    1  UNL1       -0.0222
     28 C          47.7368   15.8879  -24.4851 C.3     1  UNL1        0.0262
     29 C          47.0968   16.8389  -23.4715 C.3     1  UNL1        0.0050
     30 C          46.5666   14.3352  -26.7992 C.3     1  UNL1        0.0970
     31 C          46.3750   11.4279  -29.7414 C.3     1  UNL1        0.0900
     32 C          46.4419   12.4562  -28.7036 C.1     1  UNL1       -0.0897
     33 C          46.4975   13.3027  -27.8469 C.1     1  UNL1       -0.0870
     34 C          45.2628   15.1553  -26.7856 C.3     1  UNL1        0.1267
     35 C          45.2562   16.1945  -27.8685 C.2     1  UNL1        0.3152
     36 O          44.2170   16.8725  -28.0828 O.2     1  UNL1       -0.2502
     37 O          46.4033   16.4452  -28.6156 O.3     1  UNL1       -0.4801
     38 H          47.2595   15.9304  -28.4483 H       1  UNL1        0.2951
@<TRIPOS>BOND
     1    31    32    1
     2    32    33    3
     3    33    30    1
     4    30    34    1
     5    34    35    1
     6    35    36    2
     7    35    37    1
     8    30    22    1
     9    22    23   ar
    10    23    24   ar
    11    24    25   ar
    12    25    21    1
    13    21     1    1
    14     1     2    1
    15     2     3   ar
    16     3     4   ar
    17     4     5   ar
    18     5     6   ar
    19     6     8    1
    20     8     9    1
    21     9    10    1
    22    10    11    1
    23    11    12   ar
    24    12    13   ar
    25    13    14   ar
    26    14    15   ar
    27     9    16    1
    28    16    17    1
    29    17    18    1
    30    17    19    1
    31    17    20    1
    32     6     7   ar
    33    25    26   ar
    34    26    27   ar
    35    27    28    1
    36    28    29    1
    37    27    22   ar
    38     7     2   ar
    39    15    11   ar
    40    37    38    1
@<TRIPOS>MOLECULE
*****
 38 40 0 0 0
SMALL
GASTEIGER

@<TRIPOS>ATOM
      1 C          51.5780   11.6947  -25.0455 C.3     1  UNL1        0.2320
      2 C          50.8847   10.6921  -24.1705 C.ar    1  UNL1        0.0209
      3 C          51.0877    9.3186  -24.3711 C.ar    1  UNL1       -0.0007
      4 C          50.4042    8.3856  -23.5887 C.ar    1  UNL1       -0.0005
      5 C          49.5112    8.8146  -22.6043 C.ar    1  UNL1       -0.0029
      6 C          49.3015   10.1862  -22.3842 C.ar    1  UNL1       -0.0063
      7 C          49.9719   11.1197  -23.1932 C.ar    1  UNL1       -0.0036
      8 C          48.3015   10.6520  -21.3555 C.3     1  UNL1        0.0996
      9 N          48.2242   12.1370  -21.3277 N.3     1  UNL1       -0.2579
     10 C          48.5173   12.6552  -19.9715 C.3     1  UNL1        0.1001
     11 C          49.9803   12.9666  -19.8350 C.ar    1  UNL1        0.0009
     12 C          50.8228   12.2925  -18.9374 C.ar    1  UNL1        0.0046
     13 C          52.1302   12.7564  -18.9491 C.ar    1  UNL1        0.0352
     14 S          52.2312   14.0013  -20.0732 S.2     1  UNL1       -0.0862
     15 C          50.6233   13.9658  -20.5585 C.ar    1  UNL1        0.0325
     16 C          46.9061   12.6387  -21.7893 C.3     1  UNL1        0.1772
     17 C          47.0092   13.4577  -23.0826 C.3     1  UNL1        0.4121
     18 F          47.8147   14.5606  -22.8630 F       1  UNL1       -0.1685
     19 F          47.5676   12.6942  -24.0925 F       1  UNL1       -0.1685
     20 F          45.7623   13.9050  -23.4758 F       1  UNL1       -0.1685
     21 O          51.6757   12.9336  -24.3489 O.3     1  UNL1       -0.4707
     22 C          49.2676   16.2931  -25.2504 C.ar    1  UNL1       -0.0137
     23 C          50.2088   16.3486  -24.2023 C.ar    1  UNL1       -0.0005
     24 C          51.0102   15.2535  -23.8929 C.ar    1  UNL1        0.0366
     25 C          50.8957   14.0663  -24.6264 C.ar    1  UNL1        0.1387
     26 C          49.9758   13.9951  -25.6747 C.ar    1  UNL1        0.0324
     27 C          49.1579   15.0964  -26.0186 C.ar    1  UNL1       -0.0222
     28 C          48.1609   15.0079  -27.1699 C.3     1  UNL1        0.0262
     29 C          46.8018   14.3855  -26.8428 C.3     1  UNL1        0.0050
     30 C          48.4278   17.5378  -25.5378 C.3     1  UNL1        0.0970
     31 C          45.6002   18.0669  -22.5594 C.3     1  UNL1        0.0900
     32 C          46.6001   17.8788  -23.6101 C.1     1  UNL1       -0.0897
     33 C          47.4233   17.7245  -24.4773 C.1     1  UNL1       -0.0870
     34 C          49.3014   18.8006  -25.6595 C.3     1  UNL1        0.1267
     35 C          49.9890   18.8665  -26.9920 C.2     1  UNL1        0.3152
     36 O          51.0698   18.2462  -27.1730 O.2     1  UNL1       -0.2502
     37 O          49.4226   19.5768  -28.0462 O.3     1  UNL1       -0.4801
     38 H          48.5425   20.0656  -27.9346 H       1  UNL1        0.2951
@<TRIPOS>BOND
     1    31    32    1
     2    32    33    3
     3    33    30    1
     4    30    34    1
     5    34    35    1
     6    35    36    2
     7    35    37    1
     8    30    22    1
     9    22    23   ar
    10    23    24   ar
    11    24    25   ar
    12    25    21    1
    13    21     1    1
    14     1     2    1
    15     2     3   ar
    16     3     4   ar
    17     4     5   ar
    18     5     6   ar
    19     6     8    1
    20     8     9    1
    21     9    10    1
    22    10    11    1
    23    11    12   ar
    24    12    13   ar
    25    13    14   ar
    26    14    15   ar
    27     9    16    1
    28    16    17    1
    29    17    18    1
    30    17    19    1
    31    17    20    1
    32     6     7   ar
    33    25    26   ar
    34    26    27   ar
    35    27    28    1
    36    28    29    1
    37    27    22   ar
    38     7     2   ar
    39    15    11   ar
    40    37    38    1
