@<TRIPOS>MOLECULE
*****
 36 39 0 0 0
SMALL
GASTEIGER

@<TRIPOS>ATOM
      1 N         -28.5045   48.7020   -6.2905 N.am    1  UNL1       -0.2684
      2 C         -27.0730   48.8094   -6.3959 C.2     1  UNL1        0.2672
      3 O         -26.3529   48.4204   -5.4367 O.2     1  UNL1       -0.2682
      4 C         -26.4393   49.3279   -7.6261 C.ar    1  UNL1        0.1347
      5 C         -25.3848   50.2527   -7.5605 C.ar    1  UNL1        0.0238
      6 C         -24.7954   50.7138   -8.7451 C.ar    1  UNL1        0.0031
      7 C         -23.7441   51.6434   -8.7122 C.ar    1  UNL1        0.0001
      8 C         -23.1683   52.0928   -9.9046 C.ar    1  UNL1        0.0000
      9 C         -23.6356   51.6192  -11.1342 C.ar    1  UNL1        0.0000
     10 C         -24.6819   50.6930  -11.1796 C.ar    1  UNL1        0.0015
     11 C         -25.2665   50.2362   -9.9888 C.ar    1  UNL1        0.0192
     12 C         -26.3144   49.3081  -10.0067 C.ar    1  UNL1        0.0989
     13 N         -26.8648   48.8811   -8.8402 N.ar    1  UNL1       -0.2393
     14 C         -30.7119   49.7256   -5.8037 C.3     1  UNL1        0.0265
     15 C         -29.3267   49.9298   -6.4385 C.3     1  UNL1        0.1007
     16 C         -29.3914   50.4415   -7.8770 C.ar    1  UNL1        0.0234
     17 C         -30.1560   49.7923   -8.8711 C.ar    1  UNL1        0.0019
     18 C         -30.1490   50.2554  -10.1896 C.ar    1  UNL1        0.0295
     19 C         -29.3818   51.3673  -10.5383 C.ar    1  UNL1        0.1424
     20 F         -29.3705   51.8083  -11.8202 F       1  UNL1       -0.2041
     21 C         -28.6201   52.0205   -9.5680 C.ar    1  UNL1        0.0590
     22 C         -28.6208   51.5639   -8.2462 C.ar    1  UNL1        0.1399
     23 F         -27.8513   52.2052   -7.3300 F       1  UNL1       -0.2044
     24 C         -29.0788   47.3502   -6.1444 C.3     1  UNL1        0.1237
     25 C         -29.5661   46.7898   -7.4674 C.ar    1  UNL1        0.0316
     26 C         -30.9506   46.7034   -7.6895 C.ar    1  UNL1        0.0004
     27 C         -31.4509   46.2718   -8.9136 C.ar    1  UNL1        0.0001
     28 C         -30.5810   45.9098   -9.9372 C.ar    1  UNL1        0.0095
     29 C         -29.1898   45.9377   -9.7400 C.ar    1  UNL1        0.1088
     30 C         -28.6769   46.3329   -8.4801 C.ar    1  UNL1        0.1374
     31 O         -27.2976   46.2459   -8.2621 O.3     1  UNL1       -0.5056
     32 H         -26.8562   46.3121   -7.3565 H       1  UNL1        0.2922
     33 C         -28.2930   45.5462  -10.8589 C.2     1  UNL1        0.3410
     34 O         -28.5721   45.8816  -12.0421 O.2     1  UNL1       -0.2450
     35 O         -27.1258   44.8253  -10.6214 O.3     1  UNL1       -0.4770
     36 H         -26.5095   44.5660  -11.3824 H       1  UNL1        0.2954
@<TRIPOS>BOND
     1    14    15    1
     2    15    16    1
     3    16    17   ar
     4    17    18   ar
     5    18    19   ar
     6    19    20    1
     7    19    21   ar
     8    21    22   ar
     9    22    23    1
    10    15     1    1
    11     1    24    1
    12    24    25    1
    13    25    26   ar
    14    26    27   ar
    15    27    28   ar
    16    28    29   ar
    17    29    33    1
    18    33    34    2
    19    33    35    1
    20    29    30   ar
    21    30    31    1
    22     1     2   am
    23     2     3    2
    24     2     4    1
    25     4     5   ar
    26     5     6   ar
    27     6     7   ar
    28     7     8   ar
    29     8     9   ar
    30     9    10   ar
    31    10    11   ar
    32    11    12   ar
    33    12    13   ar
    34    22    16   ar
    35    30    25   ar
    36    13     4   ar
    37    11     6   ar
    38    35    36    1
    39    31    32    1
@<TRIPOS>MOLECULE
*****
 36 39 0 0 0
SMALL
GASTEIGER

@<TRIPOS>ATOM
      1 N         -27.8074   48.0827   -5.9422 N.am    1  UNL1       -0.2684
      2 C         -26.6508   47.7555   -6.7341 C.2     1  UNL1        0.2672
      3 O         -26.2755   46.5543   -6.8110 O.2     1  UNL1       -0.2682
      4 C         -25.9274   48.8001   -7.4886 C.ar    1  UNL1        0.1347
      5 C         -26.2140   49.0428   -8.8416 C.ar    1  UNL1        0.0238
      6 C         -25.5206   50.0505   -9.5249 C.ar    1  UNL1        0.0031
      7 C         -25.7801   50.3122  -10.8794 C.ar    1  UNL1        0.0001
      8 C         -25.0780   51.3216  -11.5452 C.ar    1  UNL1        0.0000
      9 C         -24.1153   52.0748  -10.8665 C.ar    1  UNL1        0.0000
     10 C         -23.8483   51.8235   -9.5174 C.ar    1  UNL1        0.0015
     11 C         -24.5473   50.8128   -8.8404 C.ar    1  UNL1        0.0192
     12 C         -24.3000   50.5421   -7.4894 C.ar    1  UNL1        0.0989
     13 N         -24.9893   49.5577   -6.8556 N.ar    1  UNL1       -0.2393
     14 C         -27.6093   48.3427   -3.4824 C.3     1  UNL1        0.0265
     15 C         -27.6637   49.0655   -4.8382 C.3     1  UNL1        0.1007
     16 C         -28.7065   50.1815   -4.8859 C.ar    1  UNL1        0.0234
     17 C         -29.8852   50.1413   -4.1092 C.ar    1  UNL1        0.0019
     18 C         -30.8439   51.1521   -4.2184 C.ar    1  UNL1        0.0295
     19 C         -30.6456   52.2145   -5.1007 C.ar    1  UNL1        0.1424
     20 F         -31.5821   53.1887   -5.2104 F       1  UNL1       -0.2041
     21 C         -29.4862   52.2694   -5.8760 C.ar    1  UNL1        0.0590
     22 C         -28.5215   51.2621   -5.7736 C.ar    1  UNL1        0.1399
     23 F         -27.4156   51.3304   -6.5578 F       1  UNL1       -0.2044
     24 C         -29.0997   47.4946   -6.3458 C.3     1  UNL1        0.1237
     25 C         -29.3663   47.6635   -7.8297 C.ar    1  UNL1        0.0316
     26 C         -30.0287   48.8238   -8.2640 C.ar    1  UNL1        0.0004
     27 C         -30.2280   49.0662   -9.6191 C.ar    1  UNL1        0.0001
     28 C         -29.7786   48.1527  -10.5674 C.ar    1  UNL1        0.0095
     29 C         -29.1529   46.9580  -10.1726 C.ar    1  UNL1        0.1088
     30 C         -28.9887   46.6857   -8.7922 C.ar    1  UNL1        0.1374
     31 O         -28.4692   45.4433   -8.4125 O.3     1  UNL1       -0.5056
     32 H         -28.4943   45.0757   -7.4725 H       1  UNL1        0.2922
     33 C         -28.6840   46.0084  -11.2157 C.2     1  UNL1        0.3410
     34 O         -29.3726   45.8176  -12.2549 O.2     1  UNL1       -0.2450
     35 O         -27.4747   45.3326  -11.0763 O.3     1  UNL1       -0.4770
     36 H         -27.1502   44.6922  -11.7909 H       1  UNL1        0.2954
@<TRIPOS>BOND
     1    14    15    1
     2    15    16    1
     3    16    17   ar
     4    17    18   ar
     5    18    19   ar
     6    19    20    1
     7    19    21   ar
     8    21    22   ar
     9    22    23    1
    10    15     1    1
    11     1    24    1
    12    24    25    1
    13    25    26   ar
    14    26    27   ar
    15    27    28   ar
    16    28    29   ar
    17    29    33    1
    18    33    34    2
    19    33    35    1
    20    29    30   ar
    21    30    31    1
    22     1     2   am
    23     2     3    2
    24     2     4    1
    25     4     5   ar
    26     5     6   ar
    27     6     7   ar
    28     7     8   ar
    29     8     9   ar
    30     9    10   ar
    31    10    11   ar
    32    11    12   ar
    33    12    13   ar
    34    22    16   ar
    35    30    25   ar
    36    13     4   ar
    37    11     6   ar
    38    35    36    1
    39    31    32    1
@<TRIPOS>MOLECULE
*****
 36 39 0 0 0
SMALL
GASTEIGER

@<TRIPOS>ATOM
      1 N         -30.0820   47.0370   -6.9875 N.am    1  UNL1       -0.2684
      2 C         -28.8060   46.6306   -7.5153 C.2     1  UNL1        0.2672
      3 O         -28.6001   45.4111   -7.7609 O.2     1  UNL1       -0.2682
      4 C         -27.7552   47.6264   -7.8115 C.ar    1  UNL1        0.1347
      5 C         -27.9809   48.6624   -8.7320 C.ar    1  UNL1        0.0238
      6 C         -26.9691   49.5995   -8.9796 C.ar    1  UNL1        0.0031
      7 C         -27.1624   50.6423   -9.8991 C.ar    1  UNL1        0.0001
      8 C         -26.1411   51.5681  -10.1339 C.ar    1  UNL1        0.0000
      9 C         -24.9238   51.4605   -9.4549 C.ar    1  UNL1        0.0000
     10 C         -24.7196   50.4262   -8.5365 C.ar    1  UNL1        0.0015
     11 C         -25.7380   49.4922   -8.2942 C.ar    1  UNL1        0.0192
     12 C         -25.5596   48.4482   -7.3788 C.ar    1  UNL1        0.0989
     13 N         -26.5605   47.5555   -7.1615 N.ar    1  UNL1       -0.2393
     14 C         -31.5599   47.8117   -5.1510 C.3     1  UNL1        0.0265
     15 C         -30.1220   47.7631   -5.6927 C.3     1  UNL1        0.1007
     16 C         -29.4521   49.1353   -5.7508 C.ar    1  UNL1        0.0234
     17 C         -29.9567   50.1838   -6.5511 C.ar    1  UNL1        0.0019
     18 C         -29.2879   51.4087   -6.6234 C.ar    1  UNL1        0.0295
     19 C         -28.1093   51.6078   -5.9037 C.ar    1  UNL1        0.1424
     20 F         -27.4585   52.7944   -5.9833 F       1  UNL1       -0.2041
     21 C         -27.5968   50.5819   -5.1081 C.ar    1  UNL1        0.0590
     22 C         -28.2591   49.3527   -5.0300 C.ar    1  UNL1        0.1399
     23 F         -27.7236   48.3660   -4.2669 F       1  UNL1       -0.2044
     24 C         -31.2745   46.7970   -7.8236 C.3     1  UNL1        0.1237
     25 C         -31.1057   47.3406   -9.2299 C.ar    1  UNL1        0.0316
     26 C         -31.4747   48.6724   -9.4825 C.ar    1  UNL1        0.0004
     27 C         -31.2674   49.2449  -10.7331 C.ar    1  UNL1        0.0001
     28 C         -30.6962   48.4984  -11.7589 C.ar    1  UNL1        0.0095
     29 C         -30.3559   47.1494  -11.5609 C.ar    1  UNL1        0.1088
     30 C         -30.6073   46.5494  -10.3026 C.ar    1  UNL1        0.1374
     31 O         -30.3703   45.1784  -10.1558 O.3     1  UNL1       -0.5056
     32 H         -30.6951   44.6215   -9.3788 H       1  UNL1        0.2922
     33 C         -29.7450   46.3860  -12.6806 C.2     1  UNL1        0.3410
     34 O         -30.2300   46.4668  -13.8419 O.2     1  UNL1       -0.2450
     35 O         -28.6216   45.5898  -12.4744 O.3     1  UNL1       -0.4770
     36 H         -28.1994   45.0764  -13.2387 H       1  UNL1        0.2954
@<TRIPOS>BOND
     1    14    15    1
     2    15    16    1
     3    16    17   ar
     4    17    18   ar
     5    18    19   ar
     6    19    20    1
     7    19    21   ar
     8    21    22   ar
     9    22    23    1
    10    15     1    1
    11     1    24    1
    12    24    25    1
    13    25    26   ar
    14    26    27   ar
    15    27    28   ar
    16    28    29   ar
    17    29    33    1
    18    33    34    2
    19    33    35    1
    20    29    30   ar
    21    30    31    1
    22     1     2   am
    23     2     3    2
    24     2     4    1
    25     4     5   ar
    26     5     6   ar
    27     6     7   ar
    28     7     8   ar
    29     8     9   ar
    30     9    10   ar
    31    10    11   ar
    32    11    12   ar
    33    12    13   ar
    34    22    16   ar
    35    30    25   ar
    36    13     4   ar
    37    11     6   ar
    38    35    36    1
    39    31    32    1
@<TRIPOS>MOLECULE
*****
 36 39 0 0 0
SMALL
GASTEIGER

@<TRIPOS>ATOM
      1 N         -26.4547   50.9823   -6.8460 N.am    1  UNL1       -0.2684
      2 C         -26.7398   50.6687   -5.4703 C.2     1  UNL1        0.2672
      3 O         -26.5576   51.5492   -4.5864 O.2     1  UNL1       -0.2682
      4 C         -27.2813   49.3476   -5.0895 C.ar    1  UNL1        0.1347
      5 C         -26.7092   48.6071   -4.0427 C.ar    1  UNL1        0.0238
      6 C         -27.2554   47.3642   -3.6964 C.ar    1  UNL1        0.0031
      7 C         -26.7015   46.5976   -2.6591 C.ar    1  UNL1        0.0001
      8 C         -27.2597   45.3592   -2.3277 C.ar    1  UNL1        0.0000
      9 C         -28.3711   44.8784   -3.0264 C.ar    1  UNL1        0.0000
     10 C         -28.9317   45.6329   -4.0614 C.ar    1  UNL1        0.0015
     11 C         -28.3788   46.8767   -4.4016 C.ar    1  UNL1        0.0192
     12 C         -28.9219   47.6523   -5.4327 C.ar    1  UNL1        0.0989
     13 N         -28.3685   48.8534   -5.7442 N.ar    1  UNL1       -0.2393
     14 C         -24.6787   51.0015   -8.5787 C.3     1  UNL1        0.0265
     15 C         -25.4757   50.1434   -7.5827 C.3     1  UNL1        0.1007
     16 C         -26.1035   48.9048   -8.2206 C.ar    1  UNL1        0.0234
     17 C         -26.9498   48.9881   -9.3480 C.ar    1  UNL1        0.0019
     18 C         -27.5513   47.8409   -9.8724 C.ar    1  UNL1        0.0295
     19 C         -27.3217   46.5970   -9.2836 C.ar    1  UNL1        0.1424
     20 F         -27.9140   45.4876   -9.7897 F       1  UNL1       -0.2041
     21 C         -26.4881   46.4971   -8.1685 C.ar    1  UNL1        0.0590
     22 C         -25.8823   47.6398   -7.6367 C.ar    1  UNL1        0.1399
     23 F         -25.0959   47.5144   -6.5373 F       1  UNL1       -0.2044
     24 C         -27.2375   52.0636   -7.4760 C.3     1  UNL1        0.1237
     25 C         -28.3447   51.5259   -8.3628 C.ar    1  UNL1        0.0316
     26 C         -29.4039   50.8250   -7.7623 C.ar    1  UNL1        0.0004
     27 C         -30.4836   50.3798   -8.5178 C.ar    1  UNL1        0.0001
     28 C         -30.5245   50.6169   -9.8881 C.ar    1  UNL1        0.0095
     29 C         -29.4635   51.2734  -10.5347 C.ar    1  UNL1        0.1088
     30 C         -28.3410   51.6881   -9.7766 C.ar    1  UNL1        0.1374
     31 O         -27.2442   52.2362  -10.4504 O.3     1  UNL1       -0.5056
     32 H         -26.3332   52.3792  -10.0392 H       1  UNL1        0.2922
     33 C         -29.5456   51.5106  -11.9999 C.2     1  UNL1        0.3410
     34 O         -30.1117   50.6678  -12.7478 O.2     1  UNL1       -0.2450
     35 O         -29.0215   52.6690  -12.5673 O.3     1  UNL1       -0.4770
     36 H         -29.0851   52.8356  -13.5645 H       1  UNL1        0.2954
@<TRIPOS>BOND
     1    14    15    1
     2    15    16    1
     3    16    17   ar
     4    17    18   ar
     5    18    19   ar
     6    19    20    1
     7    19    21   ar
     8    21    22   ar
     9    22    23    1
    10    15     1    1
    11     1    24    1
    12    24    25    1
    13    25    26   ar
    14    26    27   ar
    15    27    28   ar
    16    28    29   ar
    17    29    33    1
    18    33    34    2
    19    33    35    1
    20    29    30   ar
    21    30    31    1
    22     1     2   am
    23     2     3    2
    24     2     4    1
    25     4     5   ar
    26     5     6   ar
    27     6     7   ar
    28     7     8   ar
    29     8     9   ar
    30     9    10   ar
    31    10    11   ar
    32    11    12   ar
    33    12    13   ar
    34    22    16   ar
    35    30    25   ar
    36    13     4   ar
    37    11     6   ar
    38    35    36    1
    39    31    32    1
@<TRIPOS>MOLECULE
*****
 36 39 0 0 0
SMALL
GASTEIGER

@<TRIPOS>ATOM
      1 N         -30.0204   49.6449   -5.0537 N.am    1  UNL1       -0.2684
      2 C         -29.2867   50.8597   -5.2947 C.2     1  UNL1        0.2672
      3 O         -29.7077   51.9422   -4.8041 O.2     1  UNL1       -0.2682
      4 C         -28.0291   50.8455   -6.0704 C.ar    1  UNL1        0.1347
      5 C         -27.8908   51.6163   -7.2359 C.ar    1  UNL1        0.0238
      6 C         -26.6802   51.5923   -7.9407 C.ar    1  UNL1        0.0031
      7 C         -26.5138   52.3467   -9.1128 C.ar    1  UNL1        0.0001
      8 C         -25.2985   52.3100   -9.8034 C.ar    1  UNL1        0.0000
      9 C         -24.2439   51.5232   -9.3309 C.ar    1  UNL1        0.0000
     10 C         -24.3976   50.7677   -8.1646 C.ar    1  UNL1        0.0015
     11 C         -25.6131   50.7975   -7.4646 C.ar    1  UNL1        0.0192
     12 C         -25.7923   50.0516   -6.2937 C.ar    1  UNL1        0.0989
     13 N         -26.9790   50.0963   -5.6336 N.ar    1  UNL1       -0.2393
     14 C         -31.5835   47.8561   -5.7710 C.3     1  UNL1        0.0265
     15 C         -30.5102   48.8625   -6.2170 C.3     1  UNL1        0.1007
     16 C         -29.3848   48.2240   -7.0301 C.ar    1  UNL1        0.0234
     17 C         -28.5232   47.2483   -6.4825 C.ar    1  UNL1        0.0019
     18 C         -27.4697   46.7253   -7.2372 C.ar    1  UNL1        0.0295
     19 C         -27.2572   47.1653   -8.5441 C.ar    1  UNL1        0.1424
     20 F         -26.2288   46.6621   -9.2701 F       1  UNL1       -0.2041
     21 C         -28.0994   48.1293   -9.1005 C.ar    1  UNL1        0.0590
     22 C         -29.1559   48.6585   -8.3526 C.ar    1  UNL1        0.1399
     23 F         -29.9433   49.6121   -8.9124 F       1  UNL1       -0.2044
     24 C         -30.1522   49.1930   -3.6548 C.3     1  UNL1        0.1237
     25 C         -29.2904   47.9791   -3.3624 C.ar    1  UNL1        0.0316
     26 C         -29.9112   46.7219   -3.2740 C.ar    1  UNL1        0.0004
     27 C         -29.1591   45.5668   -3.0867 C.ar    1  UNL1        0.0001
     28 C         -27.7745   45.6432   -2.9752 C.ar    1  UNL1        0.0095
     29 C         -27.1192   46.8858   -3.0118 C.ar    1  UNL1        0.1088
     30 C         -27.8852   48.0686   -3.1566 C.ar    1  UNL1        0.1374
     31 O         -27.2316   49.3030   -3.0760 O.3     1  UNL1       -0.5056
     32 H         -27.6986   50.1918   -2.9697 H       1  UNL1        0.2922
     33 C         -25.6380   46.9259   -2.8921 C.2     1  UNL1        0.3410
     34 O         -24.9320   46.0515   -3.4640 O.2     1  UNL1       -0.2450
     35 O         -25.0058   47.9340   -2.1693 O.3     1  UNL1       -0.4770
     36 H         -23.9962   47.9672   -2.0949 H       1  UNL1        0.2954
@<TRIPOS>BOND
     1    14    15    1
     2    15    16    1
     3    16    17   ar
     4    17    18   ar
     5    18    19   ar
     6    19    20    1
     7    19    21   ar
     8    21    22   ar
     9    22    23    1
    10    15     1    1
    11     1    24    1
    12    24    25    1
    13    25    26   ar
    14    26    27   ar
    15    27    28   ar
    16    28    29   ar
    17    29    33    1
    18    33    34    2
    19    33    35    1
    20    29    30   ar
    21    30    31    1
    22     1     2   am
    23     2     3    2
    24     2     4    1
    25     4     5   ar
    26     5     6   ar
    27     6     7   ar
    28     7     8   ar
    29     8     9   ar
    30     9    10   ar
    31    10    11   ar
    32    11    12   ar
    33    12    13   ar
    34    22    16   ar
    35    30    25   ar
    36    13     4   ar
    37    11     6   ar
    38    35    36    1
    39    31    32    1
@<TRIPOS>MOLECULE
*****
 36 39 0 0 0
SMALL
GASTEIGER

@<TRIPOS>ATOM
      1 N         -30.0072   49.4369   -6.1747 N.am    1  UNL1       -0.2684
      2 C         -30.1269   48.2557   -5.3608 C.2     1  UNL1        0.2672
      3 O         -31.2730   47.8518   -5.0246 O.2     1  UNL1       -0.2682
      4 C         -28.9302   47.4907   -4.9528 C.ar    1  UNL1        0.1347
      5 C         -28.8607   46.8771   -3.6918 C.ar    1  UNL1        0.0238
      6 C         -27.7179   46.1463   -3.3409 C.ar    1  UNL1        0.0031
      7 C         -27.6160   45.5273   -2.0852 C.ar    1  UNL1        0.0001
      8 C         -26.4677   44.8024   -1.7521 C.ar    1  UNL1        0.0000
      9 C         -25.4163   44.6901   -2.6667 C.ar    1  UNL1        0.0000
     10 C         -25.5062   45.3020   -3.9205 C.ar    1  UNL1        0.0015
     11 C         -26.6542   46.0318   -4.2641 C.ar    1  UNL1        0.0192
     12 C         -26.7699   46.6528   -5.5133 C.ar    1  UNL1        0.0989
     13 N         -27.8913   47.3547   -5.8229 N.ar    1  UNL1       -0.2393
     14 C         -30.1107   51.7818   -5.3697 C.3     1  UNL1        0.0265
     15 C         -29.2028   50.5771   -5.6665 C.3     1  UNL1        0.1007
     16 C         -28.0148   50.9230   -6.5632 C.ar    1  UNL1        0.0234
     17 C         -28.1742   51.5968   -7.7940 C.ar    1  UNL1        0.0019
     18 C         -27.0719   51.8485   -8.6152 C.ar    1  UNL1        0.0295
     19 C         -25.7980   51.4333   -8.2261 C.ar    1  UNL1        0.1424
     20 F         -24.7323   51.6714   -9.0296 F       1  UNL1       -0.2041
     21 C         -25.6229   50.7658   -7.0128 C.ar    1  UNL1        0.0590
     22 C         -26.7203   50.5093   -6.1847 C.ar    1  UNL1        0.1399
     23 F         -26.5222   49.8370   -5.0222 F       1  UNL1       -0.2044
     24 C         -30.6103   49.4020   -7.5214 C.3     1  UNL1        0.1237
     25 C         -30.4247   48.0561   -8.1965 C.ar    1  UNL1        0.0316
     26 C         -31.5499   47.2334   -8.3722 C.ar    1  UNL1        0.0004
     27 C         -31.4505   46.0255   -9.0548 C.ar    1  UNL1        0.0001
     28 C         -30.2260   45.6099   -9.5680 C.ar    1  UNL1        0.0095
     29 C         -29.0675   46.3813   -9.3735 C.ar    1  UNL1        0.1088
     30 C         -29.1554   47.5898   -8.6396 C.ar    1  UNL1        0.1374
     31 O         -27.9763   48.2875   -8.3561 O.3     1  UNL1       -0.5056
     32 H         -27.9033   49.0388   -7.6856 H       1  UNL1        0.2922
     33 C         -27.7782   45.9050   -9.9397 C.2     1  UNL1        0.3410
     34 O         -26.7377   45.8959   -9.2272 O.2     1  UNL1       -0.2450
     35 O         -27.6999   45.4435  -11.2509 O.3     1  UNL1       -0.4770
     36 H         -26.8236   45.1103  -11.6346 H       1  UNL1        0.2954
@<TRIPOS>BOND
     1    14    15    1
     2    15    16    1
     3    16    17   ar
     4    17    18   ar
     5    18    19   ar
     6    19    20    1
     7    19    21   ar
     8    21    22   ar
     9    22    23    1
    10    15     1    1
    11     1    24    1
    12    24    25    1
    13    25    26   ar
    14    26    27   ar
    15    27    28   ar
    16    28    29   ar
    17    29    33    1
    18    33    34    2
    19    33    35    1
    20    29    30   ar
    21    30    31    1
    22     1     2   am
    23     2     3    2
    24     2     4    1
    25     4     5   ar
    26     5     6   ar
    27     6     7   ar
    28     7     8   ar
    29     8     9   ar
    30     9    10   ar
    31    10    11   ar
    32    11    12   ar
    33    12    13   ar
    34    22    16   ar
    35    30    25   ar
    36    13     4   ar
    37    11     6   ar
    38    35    36    1
    39    31    32    1
@<TRIPOS>MOLECULE
*****
 36 39 0 0 0
SMALL
GASTEIGER

@<TRIPOS>ATOM
      1 N         -28.8953   49.4271   -3.9481 N.am    1  UNL1       -0.2684
      2 C         -27.5206   49.6331   -4.3220 C.2     1  UNL1        0.2672
      3 O         -26.6635   49.8539   -3.4241 O.2     1  UNL1       -0.2682
      4 C         -27.0974   49.5465   -5.7352 C.ar    1  UNL1        0.1347
      5 C         -26.5520   50.6594   -6.3951 C.ar    1  UNL1        0.0238
      6 C         -26.1467   50.5405   -7.7311 C.ar    1  UNL1        0.0031
      7 C         -25.6042   51.6369   -8.4196 C.ar    1  UNL1        0.0001
      8 C         -25.2056   51.4998   -9.7528 C.ar    1  UNL1        0.0000
      9 C         -25.3447   50.2717  -10.4063 C.ar    1  UNL1        0.0000
     10 C         -25.8834   49.1725   -9.7309 C.ar    1  UNL1        0.0015
     11 C         -26.2866   49.3000   -8.3932 C.ar    1  UNL1        0.0192
     12 C         -26.8276   48.2146   -7.6939 C.ar    1  UNL1        0.0989
     13 N         -27.2114   48.3628   -6.3990 N.ar    1  UNL1       -0.2393
     14 C         -31.2380   50.2116   -3.7163 C.3     1  UNL1        0.0265
     15 C         -29.9344   50.3178   -4.5244 C.3     1  UNL1        0.1007
     16 C         -30.1365   50.1148   -6.0255 C.ar    1  UNL1        0.0234
     17 C         -30.6350   48.9061   -6.5593 C.ar    1  UNL1        0.0019
     18 C         -30.7554   48.7347   -7.9409 C.ar    1  UNL1        0.0295
     19 C         -30.3812   49.7599   -8.8101 C.ar    1  UNL1        0.1424
     20 F         -30.4911   49.5867  -10.1501 F       1  UNL1       -0.2041
     21 C         -29.8864   50.9609   -8.2991 C.ar    1  UNL1        0.0590
     22 C         -29.7620   51.1411   -6.9179 C.ar    1  UNL1        0.1399
     23 F         -29.2551   52.3109   -6.4517 F       1  UNL1       -0.2044
     24 C         -29.2025   48.2673   -3.0884 C.3     1  UNL1        0.1237
     25 C         -28.3698   47.0515   -3.4491 C.ar    1  UNL1        0.0316
     26 C         -28.8512   46.1792   -4.4396 C.ar    1  UNL1        0.0004
     27 C         -28.0917   45.0940   -4.8644 C.ar    1  UNL1        0.0001
     28 C         -26.8414   44.8522   -4.3043 C.ar    1  UNL1        0.0095
     29 C         -26.3437   45.6738   -3.2785 C.ar    1  UNL1        0.1088
     30 C         -27.1334   46.7529   -2.8110 C.ar    1  UNL1        0.1374
     31 O         -26.6759   47.4905   -1.7137 O.3     1  UNL1       -0.5056
     32 H         -27.2402   48.1402   -1.1857 H       1  UNL1        0.2922
     33 C         -25.0021   45.3846   -2.7073 C.2     1  UNL1        0.3410
     34 O         -24.8064   44.3237   -2.0542 O.2     1  UNL1       -0.2450
     35 O         -23.9388   46.2627   -2.8990 O.3     1  UNL1       -0.4770
     36 H         -23.0220   46.0620   -2.5177 H       1  UNL1        0.2954
@<TRIPOS>BOND
     1    14    15    1
     2    15    16    1
     3    16    17   ar
     4    17    18   ar
     5    18    19   ar
     6    19    20    1
     7    19    21   ar
     8    21    22   ar
     9    22    23    1
    10    15     1    1
    11     1    24    1
    12    24    25    1
    13    25    26   ar
    14    26    27   ar
    15    27    28   ar
    16    28    29   ar
    17    29    33    1
    18    33    34    2
    19    33    35    1
    20    29    30   ar
    21    30    31    1
    22     1     2   am
    23     2     3    2
    24     2     4    1
    25     4     5   ar
    26     5     6   ar
    27     6     7   ar
    28     7     8   ar
    29     8     9   ar
    30     9    10   ar
    31    10    11   ar
    32    11    12   ar
    33    12    13   ar
    34    22    16   ar
    35    30    25   ar
    36    13     4   ar
    37    11     6   ar
    38    35    36    1
    39    31    32    1
@<TRIPOS>MOLECULE
*****
 36 39 0 0 0
SMALL
GASTEIGER

@<TRIPOS>ATOM
      1 N         -29.6891   48.3947   -6.7049 N.am    1  UNL1       -0.2684
      2 C         -29.9711   47.0694   -6.2190 C.2     1  UNL1        0.2672
      3 O         -30.8301   46.3640   -6.8142 O.2     1  UNL1       -0.2682
      4 C         -29.2383   46.5131   -5.0627 C.ar    1  UNL1        0.1347
      5 C         -27.9511   45.9733   -5.2153 C.ar    1  UNL1        0.0238
      6 C         -27.2769   45.4671   -4.0962 C.ar    1  UNL1        0.0031
      7 C         -25.9920   44.9151   -4.2181 C.ar    1  UNL1        0.0001
      8 C         -25.3345   44.4142   -3.0902 C.ar    1  UNL1        0.0000
      9 C         -25.9521   44.4606   -1.8369 C.ar    1  UNL1        0.0000
     10 C         -27.2315   45.0082   -1.7030 C.ar    1  UNL1        0.0015
     11 C         -27.8997   45.5132   -2.8285 C.ar    1  UNL1        0.0192
     12 C         -29.1805   46.0679   -2.7214 C.ar    1  UNL1        0.0989
     13 N         -29.8076   46.5500   -3.8260 N.ar    1  UNL1       -0.2393
     14 C         -30.6986   50.6477   -6.4556 C.3     1  UNL1        0.0265
     15 C         -29.8628   49.5462   -5.7834 C.3     1  UNL1        0.1007
     16 C         -28.5447   50.0577   -5.2036 C.ar    1  UNL1        0.0234
     17 C         -27.7809   49.2976   -4.2907 C.ar    1  UNL1        0.0019
     18 C         -26.6081   49.8187   -3.7376 C.ar    1  UNL1        0.0295
     19 C         -26.1796   51.1010   -4.0822 C.ar    1  UNL1        0.1424
     20 F         -25.0461   51.6065   -3.5367 F       1  UNL1       -0.2041
     21 C         -26.9229   51.8656   -4.9828 C.ar    1  UNL1        0.0590
     22 C         -28.0980   51.3525   -5.5410 C.ar    1  UNL1        0.1399
     23 F         -28.8122   52.1289   -6.3953 F       1  UNL1       -0.2044
     24 C         -29.1399   48.5192   -8.0693 C.3     1  UNL1        0.1237
     25 C         -27.7234   49.0624   -8.0682 C.ar    1  UNL1        0.0316
     26 C         -26.7104   48.2918   -7.4735 C.ar    1  UNL1        0.0004
     27 C         -25.3829   48.7052   -7.5144 C.ar    1  UNL1        0.0001
     28 C         -25.0403   49.8991   -8.1412 C.ar    1  UNL1        0.0095
     29 C         -26.0291   50.7216   -8.7075 C.ar    1  UNL1        0.1088
     30 C         -27.3872   50.3267   -8.6281 C.ar    1  UNL1        0.1374
     31 O         -28.3686   51.2086   -9.0933 O.3     1  UNL1       -0.5056
     32 H         -29.3566   51.1148   -8.9077 H       1  UNL1        0.2922
     33 C         -25.6229   51.9882   -9.3711 C.2     1  UNL1        0.3410
     34 O         -24.4449   52.1308   -9.7980 O.2     1  UNL1       -0.2450
     35 O         -26.5341   53.0254   -9.5513 O.3     1  UNL1       -0.4770
     36 H         -26.2605   53.8854  -10.0114 H       1  UNL1        0.2954
@<TRIPOS>BOND
     1    14    15    1
     2    15    16    1
     3    16    17   ar
     4    17    18   ar
     5    18    19   ar
     6    19    20    1
     7    19    21   ar
     8    21    22   ar
     9    22    23    1
    10    15     1    1
    11     1    24    1
    12    24    25    1
    13    25    26   ar
    14    26    27   ar
    15    27    28   ar
    16    28    29   ar
    17    29    33    1
    18    33    34    2
    19    33    35    1
    20    29    30   ar
    21    30    31    1
    22     1     2   am
    23     2     3    2
    24     2     4    1
    25     4     5   ar
    26     5     6   ar
    27     6     7   ar
    28     7     8   ar
    29     8     9   ar
    30     9    10   ar
    31    10    11   ar
    32    11    12   ar
    33    12    13   ar
    34    22    16   ar
    35    30    25   ar
    36    13     4   ar
    37    11     6   ar
    38    35    36    1
    39    31    32    1
@<TRIPOS>MOLECULE
*****
 36 39 0 0 0
SMALL
GASTEIGER

@<TRIPOS>ATOM
      1 N         -29.4149   46.6491   -6.6643 N.am    1  UNL1       -0.2684
      2 C         -29.8664   47.7229   -5.8186 C.2     1  UNL1        0.2672
      3 O         -31.0417   47.6968   -5.3630 O.2     1  UNL1       -0.2682
      4 C         -28.9589   48.8278   -5.4454 C.ar    1  UNL1        0.1347
      5 C         -27.9819   48.6556   -4.4517 C.ar    1  UNL1        0.0238
      6 C         -27.1272   49.7185   -4.1314 C.ar    1  UNL1        0.0031
      7 C         -26.1452   49.5791   -3.1381 C.ar    1  UNL1        0.0001
      8 C         -25.3012   50.6509   -2.8314 C.ar    1  UNL1        0.0000
      9 C         -25.4305   51.8655   -3.5115 C.ar    1  UNL1        0.0000
     10 C         -26.4046   52.0164   -4.5029 C.ar    1  UNL1        0.0015
     11 C         -27.2564   50.9469   -4.8178 C.ar    1  UNL1        0.0192
     12 C         -28.2389   51.0715   -5.8072 C.ar    1  UNL1        0.0989
     13 N         -29.0524   50.0217   -6.0940 N.ar    1  UNL1       -0.2393
     14 C         -28.7899   45.6900   -8.8658 C.3     1  UNL1        0.0265
     15 C         -28.9193   46.9716   -8.0265 C.3     1  UNL1        0.1007
     16 C         -27.6481   47.8196   -8.0198 C.ar    1  UNL1        0.0234
     17 C         -26.5004   47.4464   -7.2864 C.ar    1  UNL1        0.0019
     18 C         -25.3741   48.2731   -7.2582 C.ar    1  UNL1        0.0295
     19 C         -25.3733   49.4813   -7.9560 C.ar    1  UNL1        0.1424
     20 F         -24.2821   50.2849   -7.9191 F       1  UNL1       -0.2041
     21 C         -26.4995   49.8654   -8.6857 C.ar    1  UNL1        0.0590
     22 C         -27.6312   49.0445   -8.7193 C.ar    1  UNL1        0.1399
     23 F         -28.7199   49.4561   -9.4179 F       1  UNL1       -0.2044
     24 C         -29.3743   45.2930   -6.0828 C.3     1  UNL1        0.1237
     25 C         -28.8827   45.3007   -4.6476 C.ar    1  UNL1        0.0316
     26 C         -29.8335   45.2932   -3.6133 C.ar    1  UNL1        0.0004
     27 C         -29.4381   45.2200   -2.2817 C.ar    1  UNL1        0.0001
     28 C         -28.0871   45.1616   -1.9546 C.ar    1  UNL1        0.0095
     29 C         -27.1033   45.2136   -2.9569 C.ar    1  UNL1        0.1088
     30 C         -27.5004   45.3341   -4.3113 C.ar    1  UNL1        0.1374
     31 O         -26.5108   45.5001   -5.2863 O.3     1  UNL1       -0.5056
     32 H         -26.6877   45.7880   -6.2378 H       1  UNL1        0.2922
     33 C         -25.6703   45.1457   -2.5676 C.2     1  UNL1        0.3410
     34 O         -24.7800   45.5788   -3.3486 O.2     1  UNL1       -0.2450
     35 O         -25.2882   44.6258   -1.3338 O.3     1  UNL1       -0.4770
     36 H         -24.3125   44.5875   -1.0640 H       1  UNL1        0.2954
@<TRIPOS>BOND
     1    14    15    1
     2    15    16    1
     3    16    17   ar
     4    17    18   ar
     5    18    19   ar
     6    19    20    1
     7    19    21   ar
     8    21    22   ar
     9    22    23    1
    10    15     1    1
    11     1    24    1
    12    24    25    1
    13    25    26   ar
    14    26    27   ar
    15    27    28   ar
    16    28    29   ar
    17    29    33    1
    18    33    34    2
    19    33    35    1
    20    29    30   ar
    21    30    31    1
    22     1     2   am
    23     2     3    2
    24     2     4    1
    25     4     5   ar
    26     5     6   ar
    27     6     7   ar
    28     7     8   ar
    29     8     9   ar
    30     9    10   ar
    31    10    11   ar
    32    11    12   ar
    33    12    13   ar
    34    22    16   ar
    35    30    25   ar
    36    13     4   ar
    37    11     6   ar
    38    35    36    1
    39    31    32    1
