@<TRIPOS>MOLECULE
*****
 52 58 0 0 0
SMALL
GASTEIGER

@<TRIPOS>ATOM
      1 C          60.5439   86.2918   10.0881 C.ar    1  UNL1        0.0481
      2 C          59.5262   85.6354   10.8074 C.ar    1  UNL1        0.0176
      3 C          59.8360   84.6376   11.7361 C.ar    1  UNL1        0.0382
      4 C          61.1762   84.2844   11.9811 C.ar    1  UNL1        0.1388
      5 C          62.1879   84.9335   11.2691 C.ar    1  UNL1        0.0382
      6 C          61.8803   85.9223   10.3317 C.ar    1  UNL1        0.0176
      7 N          59.8797   89.2609    7.0597 N.pl3   1  UNL1       -0.3041
      8 C          59.5104   87.8563    6.8263 C.3     1  UNL1        0.1122
      9 C          59.1621   87.1418    8.1348 C.3     1  UNL1        0.1122
     10 N          60.2287   87.3330    9.1298 N.pl3   1  UNL1       -0.3041
     11 C          60.9123   88.6353    9.2138 C.3     1  UNL1        0.1122
     12 C          60.1739   89.7214    8.4241 C.3     1  UNL1        0.1122
     13 C          59.7629   92.0561    3.8302 C.ar    1  UNL1        0.0699
     14 C          60.9728   91.4496    4.2053 C.ar    1  UNL1        0.0190
     15 C          61.0125   90.5360    5.2619 C.ar    1  UNL1        0.0160
     16 C          59.8405   90.2019    5.9637 C.ar    1  UNL1        0.0480
     17 C          58.6294   90.8064    5.5838 C.ar    1  UNL1        0.0160
     18 C          58.5905   91.7204    4.5272 C.ar    1  UNL1        0.0190
     19 N          59.4734   93.9282    0.7360 N.ar    1  UNL1       -0.2024
     20 N          59.8567   94.8922    1.5609 N.ar    1  UNL1       -0.1442
     21 C          60.0128   94.3156    2.7726 C.ar    1  UNL1        0.2073
     22 N          59.7283   92.9936    2.7366 N.ar    1  UNL1       -0.2398
     23 C          59.3833   92.7915    1.4493 C.ar    1  UNL1        0.3522
     24 O          58.9843   91.6915    0.9802 O.2     1  UNL1       -0.2444
     25 C          59.1198   94.1290   -0.6728 C.3     1  UNL1        0.1099
     26 C          57.6865   93.6409   -0.9215 C.3     1  UNL1        0.0265
     27 C          61.5402   94.0262   -1.4947 C.3     1  UNL1        0.0021
     28 C          60.1458   93.4032   -1.5653 C.3     1  UNL1        0.0245
     29 O          61.5537   83.3141   12.9250 O.3     1  UNL1       -0.4727
     30 C          61.7572   83.5367   14.3225 C.3     1  UNL1        0.2374
     31 C          62.4014   84.9057   14.5859 C.3     1  UNL1        0.1909
     32 C          62.4390   85.2606   16.0425 C.3     1  UNL1        0.1783
     33 O          62.2814   86.6406   16.0939 O.3     1  UNL1       -0.3266
     34 C          61.7027   87.0224   14.8586 C.3     1  UNL1        0.2315
     35 O          61.6838   85.9260   13.9686 O.3     1  UNL1       -0.3254
     36 C          62.5170   88.2074   14.3078 C.ar    1  UNL1        0.0415
     37 C          62.6286   88.2990   12.9052 C.ar    1  UNL1        0.0022
     38 C          63.3530   89.3197   12.2992 C.ar    1  UNL1        0.0118
     39 C          63.9908   90.2850   13.0709 C.ar    1  UNL1        0.0647
     40 CL         64.8965   91.5494   12.2475 Cl      1  UNL1       -0.0817
     41 C          63.9023   90.2354   14.4709 C.ar    1  UNL1        0.0555
     42 BR         64.8005   91.5835   15.5168 Br      1  UNL1       -0.0473
     43 C          63.1662   89.2056   15.1012 C.ar    1  UNL1        0.0653
     44 CL         63.1116   89.2159   16.8710 Cl      1  UNL1       -0.0819
     45 C          60.2361   87.4410   15.1409 C.3     1  UNL1        0.1893
     46 N          59.5806   88.1128   14.0118 N.ar    1  UNL1       -0.2313
     47 N          59.9754   89.2479   13.4649 N.ar    1  UNL1       -0.1532
     48 C          59.0289   89.5728   12.5663 C.ar    1  UNL1        0.1604
     49 C          59.1020   90.7861   11.7037 C.3     1  UNL1        0.0756
     50 N          58.0152   88.6813   12.5263 N.ar    1  UNL1       -0.2146
     51 C          58.4003   87.7791   13.4507 C.ar    1  UNL1        0.1381
     52 C          57.5572   86.6126   13.8570 C.3     1  UNL1        0.0734
@<TRIPOS>BOND
     1    27    28    1
     2    28    25    1
     3    25    26    1
     4    25    19    1
     5    19    20   ar
     6    20    21   ar
     7    21    22   ar
     8    22    13    1
     9    13    14   ar
    10    14    15   ar
    11    15    16   ar
    12    16     7    1
    13     7     8    1
    14     8     9    1
    15     9    10    1
    16    10     1    1
    17     1     2   ar
    18     2     3   ar
    19     3     4   ar
    20     4    29    1
    21    29    30    1
    22    30    31    1
    23    31    32    1
    24    32    33    1
    25    33    34    1
    26    34    45    1
    27    45    46    1
    28    46    47   ar
    29    47    48   ar
    30    48    49    1
    31    48    50   ar
    32    50    51   ar
    33    51    52    1
    34    34    36    1
    35    36    37   ar
    36    37    38   ar
    37    38    39   ar
    38    39    40    1
    39    39    41   ar
    40    41    42    1
    41    41    43   ar
    42    43    44    1
    43    34    35    1
    44     4     5   ar
    45     5     6   ar
    46    10    11    1
    47    11    12    1
    48    16    17   ar
    49    17    18   ar
    50    22    23   ar
    51    23    24    2
    52    23    19   ar
    53    18    13   ar
    54    12     7    1
    55     6     1   ar
    56    35    31    1
    57    51    46   ar
    58    43    36   ar
@<TRIPOS>MOLECULE
*****
 52 58 0 0 0
SMALL
GASTEIGER

@<TRIPOS>ATOM
      1 C          59.6405   85.7591    9.2258 C.ar    1  UNL1        0.0481
      2 C          58.2807   85.6572    9.5786 C.ar    1  UNL1        0.0176
      3 C          57.5179   84.5567    9.1773 C.ar    1  UNL1        0.0382
      4 C          58.1036   83.5203    8.4266 C.ar    1  UNL1        0.1388
      5 C          59.4520   83.6185    8.0748 C.ar    1  UNL1        0.0382
      6 C          60.2133   84.7229    8.4642 C.ar    1  UNL1        0.0176
      7 N          62.1444   88.9126   10.7135 N.pl3   1  UNL1       -0.3041
      8 C          62.7092   87.8314    9.8913 C.3     1  UNL1        0.1122
      9 C          61.6688   87.2570    8.9263 C.3     1  UNL1        0.1122
     10 N          60.4383   86.8941    9.6464 N.pl3   1  UNL1       -0.3041
     11 C          59.9630   87.7557   10.7428 C.3     1  UNL1        0.1122
     12 C          60.6883   89.1055   10.7657 C.3     1  UNL1        0.1122
     13 C          64.7470   91.6834   12.6643 C.ar    1  UNL1        0.0699
     14 C          64.2423   90.5703   13.3562 C.ar    1  UNL1        0.0190
     15 C          63.3902   89.6640   12.7196 C.ar    1  UNL1        0.0160
     16 C          63.0290   89.8460   11.3727 C.ar    1  UNL1        0.0480
     17 C          63.5390   90.9582   10.6803 C.ar    1  UNL1        0.0160
     18 C          64.3907   91.8645   11.3177 C.ar    1  UNL1        0.0190
     19 N          66.9769   93.5960   14.7933 N.ar    1  UNL1       -0.2024
     20 N          66.9214   94.3907   13.7340 N.ar    1  UNL1       -0.1442
     21 C          66.0981   93.7874   12.8490 C.ar    1  UNL1        0.2073
     22 N          65.6290   92.6115   13.3254 N.ar    1  UNL1       -0.2398
     23 C          66.2103   92.5207   14.5381 C.ar    1  UNL1        0.3522
     24 O          66.0898   91.5367   15.3170 O.2     1  UNL1       -0.2444
     25 C          67.8188   93.8337   15.9700 C.3     1  UNL1        0.1099
     26 C          69.0737   94.6153   15.5594 C.3     1  UNL1        0.0265
     27 C          69.5428   91.9622   16.2339 C.3     1  UNL1        0.0021
     28 C          68.1627   92.4852   16.6327 C.3     1  UNL1        0.0245
     29 O          57.3993   82.3735    8.0218 O.3     1  UNL1       -0.4727
     30 C          57.9177   81.0419    7.9772 C.3     1  UNL1        0.2374
     31 C          58.5906   80.6559    9.3025 C.3     1  UNL1        0.1909
     32 C          57.6375   80.0354   10.2800 C.3     1  UNL1        0.1783
     33 O          58.0745   80.4413   11.5355 O.3     1  UNL1       -0.3266
     34 C          58.8831   81.5854   11.3257 C.3     1  UNL1        0.2315
     35 O          59.1136   81.7741    9.9452 O.3     1  UNL1       -0.3254
     36 C          60.1906   81.3839   12.1136 C.ar    1  UNL1        0.0415
     37 C          60.0660   80.8857   13.4267 C.ar    1  UNL1        0.0022
     38 C          61.1792   80.6795   14.2341 C.ar    1  UNL1        0.0118
     39 C          62.4556   80.9624   13.7599 C.ar    1  UNL1        0.0647
     40 CL         63.8254   80.6856   14.8296 Cl      1  UNL1       -0.0817
     41 C          62.6269   81.4557   12.4569 C.ar    1  UNL1        0.0555
     42 BR         64.4072   81.8444   11.8266 Br      1  UNL1       -0.0473
     43 C          61.5046   81.6669   11.6230 C.ar    1  UNL1        0.0653
     44 CL         61.8113   82.2964    9.9967 Cl      1  UNL1       -0.0819
     45 C          58.0992   82.8137   11.8572 C.3     1  UNL1        0.1893
     46 N          58.9561   83.9159   12.3119 N.ar    1  UNL1       -0.2313
     47 N          60.2718   83.9533   12.2080 N.ar    1  UNL1       -0.1532
     48 C          60.6619   85.0610   12.8636 C.ar    1  UNL1        0.1604
     49 C          62.0851   85.4915   12.9674 C.3     1  UNL1        0.0756
     50 N          59.6290   85.7398   13.4078 N.ar    1  UNL1       -0.2146
     51 C          58.5742   84.9862   13.0384 C.ar    1  UNL1        0.1381
     52 C          57.1726   85.2693   13.4767 C.3     1  UNL1        0.0734
@<TRIPOS>BOND
     1    27    28    1
     2    28    25    1
     3    25    26    1
     4    25    19    1
     5    19    20   ar
     6    20    21   ar
     7    21    22   ar
     8    22    13    1
     9    13    14   ar
    10    14    15   ar
    11    15    16   ar
    12    16     7    1
    13     7     8    1
    14     8     9    1
    15     9    10    1
    16    10     1    1
    17     1     2   ar
    18     2     3   ar
    19     3     4   ar
    20     4    29    1
    21    29    30    1
    22    30    31    1
    23    31    32    1
    24    32    33    1
    25    33    34    1
    26    34    45    1
    27    45    46    1
    28    46    47   ar
    29    47    48   ar
    30    48    49    1
    31    48    50   ar
    32    50    51   ar
    33    51    52    1
    34    34    36    1
    35    36    37   ar
    36    37    38   ar
    37    38    39   ar
    38    39    40    1
    39    39    41   ar
    40    41    42    1
    41    41    43   ar
    42    43    44    1
    43    34    35    1
    44     4     5   ar
    45     5     6   ar
    46    10    11    1
    47    11    12    1
    48    16    17   ar
    49    17    18   ar
    50    22    23   ar
    51    23    24    2
    52    23    19   ar
    53    18    13   ar
    54    12     7    1
    55     6     1   ar
    56    35    31    1
    57    51    46   ar
    58    43    36   ar
@<TRIPOS>MOLECULE
*****
 52 58 0 0 0
SMALL
GASTEIGER

@<TRIPOS>ATOM
      1 C          60.4766   87.2090   10.3953 C.ar    1  UNL1        0.0481
      2 C          59.5322   86.9343   11.4036 C.ar    1  UNL1        0.0176
      3 C          59.8486   86.0851   12.4680 C.ar    1  UNL1        0.0382
      4 C          61.1269   85.5033   12.5588 C.ar    1  UNL1        0.1388
      5 C          62.0657   85.7736   11.5602 C.ar    1  UNL1        0.0382
      6 C          61.7481   86.6120   10.4892 C.ar    1  UNL1        0.0176
      7 N          59.8460   89.7651    7.0047 N.pl3   1  UNL1       -0.3041
      8 C          59.8020   88.3020    6.8591 C.3     1  UNL1        0.1122
      9 C          59.3543   87.6213    8.1553 C.3     1  UNL1        0.1122
     10 N          60.1565   88.0954    9.2937 N.pl3   1  UNL1       -0.3041
     11 C          60.5510   89.5134    9.3578 C.3     1  UNL1        0.1122
     12 C          59.7828   90.3678    8.3438 C.3     1  UNL1        0.1122
     13 C          59.8188   92.2514    3.5299 C.ar    1  UNL1        0.0699
     14 C          61.0090   91.6456    3.9643 C.ar    1  UNL1        0.0190
     15 C          61.0195   90.8330    5.1011 C.ar    1  UNL1        0.0160
     16 C          59.8370   90.6013    5.8262 C.ar    1  UNL1        0.0480
     17 C          58.6455   91.2048    5.3872 C.ar    1  UNL1        0.0160
     18 C          58.6358   92.0177    4.2505 C.ar    1  UNL1        0.0190
     19 N          59.6900   93.8146    0.2584 N.ar    1  UNL1       -0.2024
     20 N          59.8891   94.8795    1.0219 N.ar    1  UNL1       -0.1442
     21 C          59.9670   94.4270    2.2924 C.ar    1  UNL1        0.2073
     22 N          59.8142   93.0843    2.3542 N.ar    1  UNL1       -0.2398
     23 C          59.6311   92.7392    1.0641 C.ar    1  UNL1        0.3522
     24 O          59.3908   91.5679    0.6644 O.2     1  UNL1       -0.2444
     25 C          59.4734   93.8574   -1.1912 C.3     1  UNL1        0.1099
     26 C          60.5885   94.6742   -1.8573 C.3     1  UNL1        0.0265
     27 C          56.9637   93.3918   -1.3614 C.3     1  UNL1        0.0021
     28 C          58.0743   94.4355   -1.4816 C.3     1  UNL1        0.0245
     29 O          61.5164   84.6687   13.6203 O.3     1  UNL1       -0.4727
     30 C          60.8183   83.5066   14.0744 C.3     1  UNL1        0.2374
     31 C          60.0692   82.8159   12.9253 C.3     1  UNL1        0.1909
     32 C          59.6279   81.4250   13.2714 C.3     1  UNL1        0.1783
     33 O          59.7068   80.7033   12.0862 O.3     1  UNL1       -0.3266
     34 C          60.5783   81.4271   11.2357 C.3     1  UNL1        0.2315
     35 O          60.8816   82.6844   11.8029 O.3     1  UNL1       -0.3254
     36 C          59.8912   81.5562    9.8637 C.ar    1  UNL1        0.0415
     37 C          58.7223   80.7923    9.6687 C.ar    1  UNL1        0.0022
     38 C          58.0290   80.8200    8.4637 C.ar    1  UNL1        0.0118
     39 C          58.4769   81.6111    7.4112 C.ar    1  UNL1        0.0647
     40 CL         57.5604   81.6012    5.9088 Cl      1  UNL1       -0.0817
     41 C          59.6337   82.3916    7.5628 C.ar    1  UNL1        0.0555
     42 BR         60.2354   83.4752    6.0858 Br      1  UNL1       -0.0473
     43 C          60.3471   82.3765    8.7836 C.ar    1  UNL1        0.0653
     44 CL         61.7977   83.3866    8.8863 Cl      1  UNL1       -0.0819
     45 C          61.8965   80.6177   11.1217 C.3     1  UNL1        0.1893
     46 N          62.8702   80.9131   12.1802 N.ar    1  UNL1       -0.2313
     47 N          62.8048   80.4718   13.4228 N.ar    1  UNL1       -0.1532
     48 C          63.8039   81.0829   14.0841 C.ar    1  UNL1        0.1604
     49 C          64.0983   80.8426   15.5253 C.3     1  UNL1        0.0756
     50 N          64.5111   81.9273   13.3024 N.ar    1  UNL1       -0.2146
     51 C          63.8914   81.7917   12.1131 C.ar    1  UNL1        0.1381
     52 C          64.2484   82.6011   10.9072 C.3     1  UNL1        0.0734
@<TRIPOS>BOND
     1    27    28    1
     2    28    25    1
     3    25    26    1
     4    25    19    1
     5    19    20   ar
     6    20    21   ar
     7    21    22   ar
     8    22    13    1
     9    13    14   ar
    10    14    15   ar
    11    15    16   ar
    12    16     7    1
    13     7     8    1
    14     8     9    1
    15     9    10    1
    16    10     1    1
    17     1     2   ar
    18     2     3   ar
    19     3     4   ar
    20     4    29    1
    21    29    30    1
    22    30    31    1
    23    31    32    1
    24    32    33    1
    25    33    34    1
    26    34    45    1
    27    45    46    1
    28    46    47   ar
    29    47    48   ar
    30    48    49    1
    31    48    50   ar
    32    50    51   ar
    33    51    52    1
    34    34    36    1
    35    36    37   ar
    36    37    38   ar
    37    38    39   ar
    38    39    40    1
    39    39    41   ar
    40    41    42    1
    41    41    43   ar
    42    43    44    1
    43    34    35    1
    44     4     5   ar
    45     5     6   ar
    46    10    11    1
    47    11    12    1
    48    16    17   ar
    49    17    18   ar
    50    22    23   ar
    51    23    24    2
    52    23    19   ar
    53    18    13   ar
    54    12     7    1
    55     6     1   ar
    56    35    31    1
    57    51    46   ar
    58    43    36   ar
@<TRIPOS>MOLECULE
*****
 52 58 0 0 0
SMALL
GASTEIGER

@<TRIPOS>ATOM
      1 C          59.7333   88.1714   10.9104 C.ar    1  UNL1        0.0481
      2 C          59.2083   86.8828   11.1291 C.ar    1  UNL1        0.0176
      3 C          59.0528   86.3841   12.4257 C.ar    1  UNL1        0.0382
      4 C          59.4031   87.1718   13.5382 C.ar    1  UNL1        0.1388
      5 C          59.9245   88.4503   13.3246 C.ar    1  UNL1        0.0382
      6 C          60.0921   88.9463   12.0297 C.ar    1  UNL1        0.0176
      7 N          60.0138   90.0069    7.0401 N.pl3   1  UNL1       -0.3041
      8 C          60.8330   90.4925    8.1612 C.3     1  UNL1        0.1122
      9 C          61.1302   89.3756    9.1652 C.3     1  UNL1        0.1122
     10 N          59.8889   88.6966    9.5682 N.pl3   1  UNL1       -0.3041
     11 C          58.8361   88.4622    8.5647 C.3     1  UNL1        0.1122
     12 C          59.3409   88.7039    7.1381 C.3     1  UNL1        0.1122
     13 C          59.8790   92.2524    3.4074 C.ar    1  UNL1        0.0699
     14 C          61.0914   91.7143    3.8689 C.ar    1  UNL1        0.0190
     15 C          61.1370   90.9806    5.0573 C.ar    1  UNL1        0.0160
     16 C          59.9685   90.7615    5.8085 C.ar    1  UNL1        0.0480
     17 C          58.7549   91.2969    5.3426 C.ar    1  UNL1        0.0160
     18 C          58.7101   92.0310    4.1542 C.ar    1  UNL1        0.0190
     19 N          59.7598   93.5817    0.0337 N.ar    1  UNL1       -0.2024
     20 N          59.7487   94.7079    0.7324 N.ar    1  UNL1       -0.1442
     21 C          59.8002   94.3484    2.0337 C.ar    1  UNL1        0.2073
     22 N          59.8383   93.0040    2.1787 N.ar    1  UNL1       -0.2398
     23 C          59.7991   92.5594    0.9069 C.ar    1  UNL1        0.3522
     24 O          59.7591   91.3437    0.5752 O.2     1  UNL1       -0.2444
     25 C          59.6431   93.5056   -1.4259 C.3     1  UNL1        0.1099
     26 C          60.5941   94.5199   -2.0749 C.3     1  UNL1        0.0265
     27 C          57.3296   92.4675   -1.7638 C.3     1  UNL1        0.0021
     28 C          58.1751   93.7392   -1.8337 C.3     1  UNL1        0.0245
     29 O          59.2398   86.7406   14.8657 O.3     1  UNL1       -0.4727
     30 C          60.2832   86.3096   15.7429 C.3     1  UNL1        0.2374
     31 C          61.2360   85.3287   15.0440 C.3     1  UNL1        0.1909
     32 C          62.2204   84.7024   15.9862 C.3     1  UNL1        0.1783
     33 O          63.3827   84.5228   15.2455 O.3     1  UNL1       -0.3266
     34 C          63.2892   85.4005   14.1375 C.3     1  UNL1        0.2315
     35 O          62.0000   85.9736   14.0758 O.3     1  UNL1       -0.3254
     36 C          63.6301   84.5926   12.8718 C.ar    1  UNL1        0.0415
     37 C          64.3510   83.3959   13.0618 C.ar    1  UNL1        0.0022
     38 C          64.7255   82.5951   11.9884 C.ar    1  UNL1        0.0118
     39 C          64.3934   82.9596   10.6880 C.ar    1  UNL1        0.0647
     40 CL         64.8988   81.9084    9.3701 Cl      1  UNL1       -0.0817
     41 C          63.6720   84.1405   10.4526 C.ar    1  UNL1        0.0555
     42 BR         63.2293   84.6246    8.6395 Br      1  UNL1       -0.0473
     43 C          63.2812   84.9630   11.5345 C.ar    1  UNL1        0.0653
     44 CL         62.3792   86.4364   11.1467 Cl      1  UNL1       -0.0819
     45 C          64.3155   86.5421   14.3596 C.3     1  UNL1        0.1893
     46 N          63.7878   87.8817   14.0717 N.ar    1  UNL1       -0.2313
     47 N          63.8482   88.4912   12.9021 N.ar    1  UNL1       -0.1532
     48 C          63.3789   89.7344   13.1097 C.ar    1  UNL1        0.1604
     49 C          63.2547   90.7530   12.0287 C.3     1  UNL1        0.0756
     50 N          63.0281   89.9550   14.3950 N.ar    1  UNL1       -0.2146
     51 C          63.3013   88.7654   14.9670 C.ar    1  UNL1        0.1381
     52 C          63.1661   88.5127   16.4349 C.3     1  UNL1        0.0734
@<TRIPOS>BOND
     1    27    28    1
     2    28    25    1
     3    25    26    1
     4    25    19    1
     5    19    20   ar
     6    20    21   ar
     7    21    22   ar
     8    22    13    1
     9    13    14   ar
    10    14    15   ar
    11    15    16   ar
    12    16     7    1
    13     7     8    1
    14     8     9    1
    15     9    10    1
    16    10     1    1
    17     1     2   ar
    18     2     3   ar
    19     3     4   ar
    20     4    29    1
    21    29    30    1
    22    30    31    1
    23    31    32    1
    24    32    33    1
    25    33    34    1
    26    34    45    1
    27    45    46    1
    28    46    47   ar
    29    47    48   ar
    30    48    49    1
    31    48    50   ar
    32    50    51   ar
    33    51    52    1
    34    34    36    1
    35    36    37   ar
    36    37    38   ar
    37    38    39   ar
    38    39    40    1
    39    39    41   ar
    40    41    42    1
    41    41    43   ar
    42    43    44    1
    43    34    35    1
    44     4     5   ar
    45     5     6   ar
    46    10    11    1
    47    11    12    1
    48    16    17   ar
    49    17    18   ar
    50    22    23   ar
    51    23    24    2
    52    23    19   ar
    53    18    13   ar
    54    12     7    1
    55     6     1   ar
    56    35    31    1
    57    51    46   ar
    58    43    36   ar
@<TRIPOS>MOLECULE
*****
 52 58 0 0 0
SMALL
GASTEIGER

@<TRIPOS>ATOM
      1 C          60.2111   82.6594   13.5590 C.ar    1  UNL1        0.0481
      2 C          61.0052   81.5068   13.4018 C.ar    1  UNL1        0.0176
      3 C          60.4613   80.3287   12.8819 C.ar    1  UNL1        0.0382
      4 C          59.1106   80.2809   12.4890 C.ar    1  UNL1        0.1388
      5 C          58.3203   81.4225   12.6440 C.ar    1  UNL1        0.0382
      6 C          58.8583   82.5972   13.1745 C.ar    1  UNL1        0.0176
      7 N          62.0245   86.3402   14.8205 N.pl3   1  UNL1       -0.3041
      8 C          60.8646   86.3473   13.9158 C.3     1  UNL1        0.1122
      9 C          59.9741   85.1212   14.1339 C.3     1  UNL1        0.1122
     10 N          60.7722   83.8862   14.0899 N.pl3   1  UNL1       -0.3041
     11 C          62.1201   83.8764   14.6846 C.3     1  UNL1        0.1122
     12 C          62.3718   85.1139   15.5527 C.3     1  UNL1        0.1122
     13 C          64.1644   89.9625   15.5661 C.ar    1  UNL1        0.0699
     14 C          64.3909   89.2294   14.3898 C.ar    1  UNL1        0.0190
     15 C          63.6924   88.0440   14.1453 C.ar    1  UNL1        0.0160
     16 C          62.7448   87.5680   15.0689 C.ar    1  UNL1        0.0480
     17 C          62.5159   88.3057   16.2437 C.ar    1  UNL1        0.0160
     18 C          63.2152   89.4909   16.4878 C.ar    1  UNL1        0.0190
     19 N          66.2785   92.9100   15.6433 N.ar    1  UNL1       -0.2024
     20 N          65.5473   93.1146   16.7297 N.ar    1  UNL1       -0.1442
     21 C          64.7061   92.0618   16.8255 C.ar    1  UNL1        0.2073
     22 N          64.8847   91.1865   15.8097 N.ar    1  UNL1       -0.2398
     23 C          65.8674   91.7574   15.0851 C.ar    1  UNL1        0.3522
     24 O          66.3156   91.2974   14.0002 O.2     1  UNL1       -0.2444
     25 C          67.2754   93.8498   15.1209 C.3     1  UNL1        0.1099
     26 C          66.8865   94.2806   13.7006 C.3     1  UNL1        0.0265
     27 C          68.8396   92.2475   16.3582 C.3     1  UNL1        0.0021
     28 C          68.6698   93.1947   15.1702 C.3     1  UNL1        0.0245
     29 O          58.5142   79.1381   11.9294 O.3     1  UNL1       -0.4727
     30 C          57.8977   79.0578   10.6420 C.3     1  UNL1        0.2374
     31 C          57.8877   80.4222    9.9373 C.3     1  UNL1        0.1909
     32 C          57.7434   80.3074    8.4490 C.3     1  UNL1        0.1783
     33 O          58.4813   81.3603    7.9208 O.3     1  UNL1       -0.3266
     34 C          59.3853   81.7620    8.9349 C.3     1  UNL1        0.2315
     35 O          59.0817   81.1056   10.1479 O.3     1  UNL1       -0.3254
     36 C          59.2943   83.2939    9.0615 C.ar    1  UNL1        0.0415
     37 C          58.6757   83.7955   10.2249 C.ar    1  UNL1        0.0022
     38 C          58.5256   85.1616   10.4365 C.ar    1  UNL1        0.0118
     39 C          58.9879   86.0753    9.4953 C.ar    1  UNL1        0.0647
     40 CL         58.7653   87.7912    9.8162 Cl      1  UNL1       -0.0817
     41 C          59.6144   85.6204    8.3245 C.ar    1  UNL1        0.0555
     42 BR         60.2413   86.9086    7.0339 Br      1  UNL1       -0.0473
     43 C          59.7774   84.2342    8.0973 C.ar    1  UNL1        0.0653
     44 CL         60.5733   83.7485    6.5921 Cl      1  UNL1       -0.0819
     45 C          60.8063   81.3257    8.4918 C.3     1  UNL1        0.1893
     46 N          61.8366   81.5204    9.5195 N.ar    1  UNL1       -0.2313
     47 N          62.3688   82.6805    9.8574 N.ar    1  UNL1       -0.1532
     48 C          63.3551   82.3946   10.7260 C.ar    1  UNL1        0.1604
     49 C          64.2014   83.4361   11.3743 C.3     1  UNL1        0.0756
     50 N          63.4889   81.0696   10.9504 N.ar    1  UNL1       -0.2146
     51 C          62.5158   80.5551   10.1724 C.ar    1  UNL1        0.1381
     52 C          62.3003   79.0857    9.9956 C.3     1  UNL1        0.0734
@<TRIPOS>BOND
     1    27    28    1
     2    28    25    1
     3    25    26    1
     4    25    19    1
     5    19    20   ar
     6    20    21   ar
     7    21    22   ar
     8    22    13    1
     9    13    14   ar
    10    14    15   ar
    11    15    16   ar
    12    16     7    1
    13     7     8    1
    14     8     9    1
    15     9    10    1
    16    10     1    1
    17     1     2   ar
    18     2     3   ar
    19     3     4   ar
    20     4    29    1
    21    29    30    1
    22    30    31    1
    23    31    32    1
    24    32    33    1
    25    33    34    1
    26    34    45    1
    27    45    46    1
    28    46    47   ar
    29    47    48   ar
    30    48    49    1
    31    48    50   ar
    32    50    51   ar
    33    51    52    1
    34    34    36    1
    35    36    37   ar
    36    37    38   ar
    37    38    39   ar
    38    39    40    1
    39    39    41   ar
    40    41    42    1
    41    41    43   ar
    42    43    44    1
    43    34    35    1
    44     4     5   ar
    45     5     6   ar
    46    10    11    1
    47    11    12    1
    48    16    17   ar
    49    17    18   ar
    50    22    23   ar
    51    23    24    2
    52    23    19   ar
    53    18    13   ar
    54    12     7    1
    55     6     1   ar
    56    35    31    1
    57    51    46   ar
    58    43    36   ar
