@<TRIPOS>MOLECULE
*****
 28 30 0 0 0
SMALL
GASTEIGER

@<TRIPOS>ATOM
      1 C          50.8158   11.0805  -26.1791 C.ar    1  UNL1        0.1386
      2 C          50.3554    9.9926  -26.9293 C.ar    1  UNL1        0.0366
      3 C          51.0888    9.5185  -28.0203 C.ar    1  UNL1       -0.0011
      4 C          52.3022   10.1265  -28.3777 C.ar    1  UNL1       -0.0206
      5 C          52.7667   11.2182  -27.6278 C.ar    1  UNL1       -0.0011
      6 C          52.0338   11.6910  -26.5359 C.ar    1  UNL1        0.0366
      7 O          50.0383   11.5109  -25.0912 O.3     1  UNL1       -0.4736
      8 C          48.6205   11.3832  -24.9831 C.3     1  UNL1        0.2267
      9 C          47.9266   12.6739  -25.4256 C.3     1  UNL1        0.1396
     10 N          46.6257   12.3701  -26.0414 N.pl3   1  UNL1       -0.2879
     11 C          45.4425   12.2463  -25.1809 C.3     1  UNL1        0.1137
     12 C          46.3131   12.0187  -30.2633 C.ar    1  UNL1       -0.0029
     13 C          46.6923   10.9020  -29.5087 C.ar    1  UNL1        0.0001
     14 C          46.8053   10.9977  -28.1206 C.ar    1  UNL1        0.0340
     15 C          46.5249   12.2205  -27.4798 C.ar    1  UNL1        0.1318
     16 N          46.1468   13.2859  -28.2426 N.ar    1  UNL1       -0.2295
     17 C          46.0314   13.2159  -29.5943 C.ar    1  UNL1        0.0960
     18 C          45.5833   13.2124  -32.3266 C.3     1  UNL1        0.0051
     19 C          46.1541   11.9185  -31.7562 C.3     1  UNL1        0.0279
     20 C          53.1127    9.5955  -29.5385 C.3     1  UNL1        0.0468
     21 C          53.1397    8.0562  -29.6139 C.3     1  UNL1        0.1369
     22 S          54.8585    7.4025  -29.4850 S.3     1  UNL1       -0.0482
     23 C          54.7269    6.7328  -31.1362 C.2     1  UNL1        0.2792
     24 O          55.7059    6.2181  -31.7360 O.2     1  UNL1       -0.2625
     25 N          53.4535    6.8379  -31.7390 N.am    1  UNL1       -0.2460
     26 C          52.5589    7.5371  -30.8955 C.2     1  UNL1        0.2392
     27 O          51.3503    7.7035  -31.2088 O.2     1  UNL1       -0.2737
     28 H          53.2104    6.4648  -32.6836 H       1  UNL1        0.1583
@<TRIPOS>BOND
     1    18    19    1
     2    19    12    1
     3    12    13   ar
     4    13    14   ar
     5    14    15   ar
     6    15    10    1
     7    10    11    1
     8    10     9    1
     9     9     8    1
    10     8     7    1
    11     7     1    1
    12     1     2   ar
    13     2     3   ar
    14     3     4   ar
    15     4    20    1
    16    20    21    1
    17    21    22    1
    18    22    23    1
    19    23    24    2
    20    23    25   am
    21    25    26   am
    22    26    27    2
    23     4     5   ar
    24     5     6   ar
    25    15    16   ar
    26    16    17   ar
    27    17    12   ar
    28     6     1   ar
    29    26    21    1
    30    25    28    1
@<TRIPOS>MOLECULE
*****
 28 30 0 0 0
SMALL
GASTEIGER

@<TRIPOS>ATOM
      1 C          47.2066   12.6410  -23.6596 C.ar    1  UNL1        0.1386
      2 C          48.0932   12.3093  -24.6903 C.ar    1  UNL1        0.0366
      3 C          47.6143   11.8819  -25.9316 C.ar    1  UNL1       -0.0011
      4 C          46.2336   11.7822  -26.1634 C.ar    1  UNL1       -0.0206
      5 C          45.3416   12.1136  -25.1317 C.ar    1  UNL1       -0.0011
      6 C          45.8209   12.5425  -23.8910 C.ar    1  UNL1        0.0366
      7 O          47.7456   13.0679  -22.4346 O.3     1  UNL1       -0.4736
      8 C          47.7593   12.3093  -21.2252 C.3     1  UNL1        0.2267
      9 C          49.1952   12.0859  -20.7439 C.3     1  UNL1        0.1396
     10 N          49.6413   10.7250  -21.0796 N.pl3   1  UNL1       -0.2879
     11 C          49.5859    9.6829  -20.0469 C.3     1  UNL1        0.1137
     12 C          51.0529    9.9222  -25.0049 C.ar    1  UNL1       -0.0029
     13 C          50.1572    9.0305  -24.4029 C.ar    1  UNL1        0.0001
     14 C          49.6849    9.2737  -23.1119 C.ar    1  UNL1        0.0340
     15 C          50.1046   10.4271  -22.4205 C.ar    1  UNL1        0.1318
     16 N          50.9685   11.2814  -23.0397 N.ar    1  UNL1       -0.2295
     17 C          51.4416   11.0643  -24.2945 C.ar    1  UNL1        0.0960
     18 C          50.3694    9.5928  -27.3796 C.3     1  UNL1        0.0051
     19 C          51.5416    9.6890  -26.4089 C.3     1  UNL1        0.0279
     20 C          45.7128   11.3499  -27.5155 C.3     1  UNL1        0.0468
     21 C          46.6528   11.7174  -28.6804 C.3     1  UNL1        0.1369
     22 S          46.0228   13.1688  -29.6262 S.3     1  UNL1       -0.0482
     23 C          45.8472   12.1447  -31.0797 C.2     1  UNL1        0.2792
     24 O          45.2983   12.5573  -32.1340 O.2     1  UNL1       -0.2625
     25 N          46.3455   10.8278  -30.9636 N.am    1  UNL1       -0.2460
     26 C          46.8235   10.5894  -29.6539 C.2     1  UNL1        0.2392
     27 O          47.3619    9.4956  -29.3370 O.2     1  UNL1       -0.2737
     28 H          46.3464   10.1226  -31.7339 H       1  UNL1        0.1583
@<TRIPOS>BOND
     1    18    19    1
     2    19    12    1
     3    12    13   ar
     4    13    14   ar
     5    14    15   ar
     6    15    10    1
     7    10    11    1
     8    10     9    1
     9     9     8    1
    10     8     7    1
    11     7     1    1
    12     1     2   ar
    13     2     3   ar
    14     3     4   ar
    15     4    20    1
    16    20    21    1
    17    21    22    1
    18    22    23    1
    19    23    24    2
    20    23    25   am
    21    25    26   am
    22    26    27    2
    23     4     5   ar
    24     5     6   ar
    25    15    16   ar
    26    16    17   ar
    27    17    12   ar
    28     6     1   ar
    29    26    21    1
    30    25    28    1
@<TRIPOS>MOLECULE
*****
 28 30 0 0 0
SMALL
GASTEIGER

@<TRIPOS>ATOM
      1 C          48.0499   15.5740  -24.7310 C.ar    1  UNL1        0.1386
      2 C          47.2715   15.7089  -23.5758 C.ar    1  UNL1        0.0366
      3 C          47.7908   15.3696  -22.3236 C.ar    1  UNL1       -0.0011
      4 C          49.1049   14.8906  -22.2064 C.ar    1  UNL1       -0.0206
      5 C          49.8881   14.7535  -23.3630 C.ar    1  UNL1       -0.0011
      6 C          49.3690   15.0945  -24.6149 C.ar    1  UNL1        0.0366
      7 O          47.4761   15.9340  -25.9616 O.3     1  UNL1       -0.4736
      8 C          47.5872   15.1931  -27.1768 C.3     1  UNL1        0.2267
      9 C          46.2710   14.4797  -27.4968 C.3     1  UNL1        0.1396
     10 N          46.3774   13.0461  -27.1852 N.pl3   1  UNL1       -0.2879
     11 C          46.3245   12.0733  -28.2837 C.3     1  UNL1        0.1137
     12 C          46.9806   11.7678  -23.1793 C.ar    1  UNL1       -0.0029
     13 C          45.7509   12.3306  -23.5414 C.ar    1  UNL1        0.0001
     14 C          45.5341   12.7612  -24.8515 C.ar    1  UNL1        0.0340
     15 C          46.5544   12.6166  -25.8120 C.ar    1  UNL1        0.1318
     16 N          47.7362   12.0538  -25.4297 N.ar    1  UNL1       -0.2295
     17 C          47.9695   11.6288  -24.1606 C.ar    1  UNL1        0.0960
     18 C          46.4490   12.1163  -20.7688 C.3     1  UNL1        0.0051
     19 C          47.2139   11.2681  -21.7792 C.3     1  UNL1        0.0279
     20 C          49.6791   14.5524  -20.8491 C.3     1  UNL1        0.0468
     21 C          50.7559   13.4505  -20.8965 C.3     1  UNL1        0.1369
     22 S          50.4515   12.1518  -19.6242 S.3     1  UNL1       -0.0482
     23 C          51.9910   12.5766  -18.8232 C.2     1  UNL1        0.2792
     24 O          52.3363   12.0824  -17.7187 O.2     1  UNL1       -0.2625
     25 N          52.7911   13.5244  -19.4997 N.am    1  UNL1       -0.2460
     26 C          52.1356   13.9902  -20.6633 C.2     1  UNL1        0.2392
     27 O          52.6875   14.8040  -21.4504 O.2     1  UNL1       -0.2737
     28 H          53.7300   13.8481  -19.1769 H       1  UNL1        0.1583
@<TRIPOS>BOND
     1    18    19    1
     2    19    12    1
     3    12    13   ar
     4    13    14   ar
     5    14    15   ar
     6    15    10    1
     7    10    11    1
     8    10     9    1
     9     9     8    1
    10     8     7    1
    11     7     1    1
    12     1     2   ar
    13     2     3   ar
    14     3     4   ar
    15     4    20    1
    16    20    21    1
    17    21    22    1
    18    22    23    1
    19    23    24    2
    20    23    25   am
    21    25    26   am
    22    26    27    2
    23     4     5   ar
    24     5     6   ar
    25    15    16   ar
    26    16    17   ar
    27    17    12   ar
    28     6     1   ar
    29    26    21    1
    30    25    28    1
@<TRIPOS>MOLECULE
*****
 28 30 0 0 0
SMALL
GASTEIGER

@<TRIPOS>ATOM
      1 C          50.4740   15.9702  -25.6446 C.ar    1  UNL1        0.1386
      2 C          50.6256   16.2540  -24.2826 C.ar    1  UNL1        0.0366
      3 C          50.2798   15.3068  -23.3151 C.ar    1  UNL1       -0.0011
      4 C          49.7773   14.0532  -23.6971 C.ar    1  UNL1       -0.0206
      5 C          49.6234   13.7655  -25.0622 C.ar    1  UNL1       -0.0011
      6 C          49.9709   14.7124  -26.0295 C.ar    1  UNL1        0.0366
      7 O          50.8416   16.9595  -26.5718 O.3     1  UNL1       -0.4736
      8 C          50.4424   18.3294  -26.5249 C.3     1  UNL1        0.2267
      9 C          49.0361   18.5025  -27.1042 C.3     1  UNL1        0.1396
     10 N          48.0326   18.4710  -26.0292 N.pl3   1  UNL1       -0.2879
     11 C          47.7257   19.7112  -25.3056 C.3     1  UNL1        0.1137
     12 C          46.0293   14.8188  -25.1964 C.ar    1  UNL1       -0.0029
     13 C          46.4228   15.6423  -24.1347 C.ar    1  UNL1        0.0001
     14 C          47.0864   16.8444  -24.3868 C.ar    1  UNL1        0.0340
     15 C          47.3488   17.2319  -25.7155 C.ar    1  UNL1        0.1318
     16 N          46.9420   16.4128  -26.7271 N.ar    1  UNL1       -0.2295
     17 C          46.2959   15.2385  -26.5052 C.ar    1  UNL1        0.0960
     18 C          45.8282   12.4106  -25.8085 C.3     1  UNL1        0.0051
     19 C          45.2827   13.5381  -24.9387 C.3     1  UNL1        0.0279
     20 C          49.4318   13.0155  -22.6530 C.3     1  UNL1        0.0468
     21 C          49.0690   11.6419  -23.2506 C.3     1  UNL1        0.1369
     22 S          47.4911   10.9949  -22.5507 S.3     1  UNL1       -0.0482
     23 C          48.3736    9.6138  -21.8395 C.2     1  UNL1        0.2792
     24 O          47.8255    8.7910  -21.0611 O.2     1  UNL1       -0.2625
     25 N          49.7389    9.5151  -22.1892 N.am    1  UNL1       -0.2460
     26 C          50.1274   10.6105  -22.9953 C.2     1  UNL1        0.2392
     27 O          51.2913   10.7017  -23.4680 O.2     1  UNL1       -0.2737
     28 H          50.3771    8.7476  -21.8821 H       1  UNL1        0.1583
@<TRIPOS>BOND
     1    18    19    1
     2    19    12    1
     3    12    13   ar
     4    13    14   ar
     5    14    15   ar
     6    15    10    1
     7    10    11    1
     8    10     9    1
     9     9     8    1
    10     8     7    1
    11     7     1    1
    12     1     2   ar
    13     2     3   ar
    14     3     4   ar
    15     4    20    1
    16    20    21    1
    17    21    22    1
    18    22    23    1
    19    23    24    2
    20    23    25   am
    21    25    26   am
    22    26    27    2
    23     4     5   ar
    24     5     6   ar
    25    15    16   ar
    26    16    17   ar
    27    17    12   ar
    28     6     1   ar
    29    26    21    1
    30    25    28    1
@<TRIPOS>MOLECULE
*****
 28 30 0 0 0
SMALL
GASTEIGER

@<TRIPOS>ATOM
      1 C          46.8147   14.7925  -23.9018 C.ar    1  UNL1        0.1386
      2 C          47.0902   13.6107  -23.2046 C.ar    1  UNL1        0.0366
      3 C          48.0656   13.5850  -22.2043 C.ar    1  UNL1       -0.0011
      4 C          48.7822   14.7479  -21.8817 C.ar    1  UNL1       -0.0206
      5 C          48.5088   15.9348  -22.5793 C.ar    1  UNL1       -0.0011
      6 C          47.5322   15.9605  -23.5785 C.ar    1  UNL1        0.0366
      7 O          45.8212   14.7593  -24.8943 O.3     1  UNL1       -0.4736
      8 C          45.5807   13.6748  -25.7910 C.3     1  UNL1        0.2267
      9 C          46.4699   13.7921  -27.0315 C.3     1  UNL1        0.1396
     10 N          46.6161   15.2020  -27.4246 N.pl3   1  UNL1       -0.2879
     11 C          45.4917   15.8770  -28.0849 C.3     1  UNL1        0.1137
     12 C          50.1884   17.3470  -26.5985 C.ar    1  UNL1       -0.0029
     13 C          50.1661   15.9585  -26.4210 C.ar    1  UNL1        0.0001
     14 C          49.0008   15.2356  -26.6826 C.ar    1  UNL1        0.0340
     15 C          47.8493   15.9078  -27.1373 C.ar    1  UNL1        0.1318
     16 N          47.9078   17.2591  -27.3110 N.ar    1  UNL1       -0.2295
     17 C          49.0302   17.9827  -27.0618 C.ar    1  UNL1        0.0960
     18 C          51.7450   18.2251  -24.8604 C.3     1  UNL1        0.0051
     19 C          51.4484   18.1322  -26.3534 C.3     1  UNL1        0.0279
     20 C          49.8160   14.7298  -20.7785 C.3     1  UNL1        0.0468
     21 C          50.7443   13.5004  -20.8286 C.3     1  UNL1        0.1369
     22 S          50.3819   12.3226  -19.4577 S.3     1  UNL1       -0.0482
     23 C          52.0179   12.5940  -18.7929 C.2     1  UNL1        0.2792
     24 O          52.3834   12.1220  -17.6852 O.2     1  UNL1       -0.2625
     25 N          52.8735   13.3948  -19.5820 N.am    1  UNL1       -0.2460
     26 C          52.1931   13.8743  -20.7255 C.2     1  UNL1        0.2392
     27 O          52.7784   14.5675  -21.5991 O.2     1  UNL1       -0.2737
     28 H          53.8666   13.6152  -19.3457 H       1  UNL1        0.1583
@<TRIPOS>BOND
     1    18    19    1
     2    19    12    1
     3    12    13   ar
     4    13    14   ar
     5    14    15   ar
     6    15    10    1
     7    10    11    1
     8    10     9    1
     9     9     8    1
    10     8     7    1
    11     7     1    1
    12     1     2   ar
    13     2     3   ar
    14     3     4   ar
    15     4    20    1
    16    20    21    1
    17    21    22    1
    18    22    23    1
    19    23    24    2
    20    23    25   am
    21    25    26   am
    22    26    27    2
    23     4     5   ar
    24     5     6   ar
    25    15    16   ar
    26    16    17   ar
    27    17    12   ar
    28     6     1   ar
    29    26    21    1
    30    25    28    1
@<TRIPOS>MOLECULE
*****
 28 30 0 0 0
SMALL
GASTEIGER

@<TRIPOS>ATOM
      1 C          46.4698   13.2799  -25.8548 C.ar    1  UNL1        0.1386
      2 C          45.6057   13.3610  -24.7569 C.ar    1  UNL1        0.0366
      3 C          45.8739   12.6481  -23.5854 C.ar    1  UNL1       -0.0011
      4 C          47.0185   11.8412  -23.4921 C.ar    1  UNL1       -0.0206
      5 C          47.8870   11.7570  -24.5915 C.ar    1  UNL1       -0.0011
      6 C          47.6192   12.4714  -25.7624 C.ar    1  UNL1        0.0366
      7 O          46.1509   14.0216  -27.0044 O.3     1  UNL1       -0.4736
      8 C          45.6896   15.3726  -27.0182 C.3     1  UNL1        0.2267
      9 C          46.8666   16.3441  -27.1384 C.3     1  UNL1        0.1396
     10 N          47.2913   16.8004  -25.8061 N.pl3   1  UNL1       -0.2879
     11 C          46.6693   18.0007  -25.2332 C.3     1  UNL1        0.1137
     12 C          50.2776   14.6066  -23.7289 C.ar    1  UNL1       -0.0029
     13 C          49.1648   15.0842  -23.0264 C.ar    1  UNL1        0.0001
     14 C          48.1745   15.8112  -23.6895 C.ar    1  UNL1        0.0340
     15 C          48.2934   16.0529  -25.0722 C.ar    1  UNL1        0.1318
     16 N          49.3837   15.5639  -25.7292 N.ar    1  UNL1       -0.2295
     17 C          50.3597   14.8551  -25.1043 C.ar    1  UNL1        0.0960
     18 C          51.7478   12.5996  -23.8878 C.3     1  UNL1        0.0051
     19 C          51.3338   13.7921  -23.0323 C.3     1  UNL1        0.0279
     20 C          47.3270   11.0935  -22.2146 C.3     1  UNL1        0.0468
     21 C          48.7972   11.2210  -21.7696 C.3     1  UNL1        0.1369
     22 S          49.5966    9.5693  -21.5935 S.3     1  UNL1       -0.0482
     23 C          49.8255    9.8671  -19.8468 C.2     1  UNL1        0.2792
     24 O          50.2522    8.9816  -19.0612 O.2     1  UNL1       -0.2625
     25 N          49.4743   11.1590  -19.3955 N.am    1  UNL1       -0.2460
     26 C          48.9363   11.9276  -20.4540 C.2     1  UNL1        0.2392
     27 O          48.6026   13.1312  -20.2920 O.2     1  UNL1       -0.2737
     28 H          49.5824   11.4950  -18.4126 H       1  UNL1        0.1583
@<TRIPOS>BOND
     1    18    19    1
     2    19    12    1
     3    12    13   ar
     4    13    14   ar
     5    14    15   ar
     6    15    10    1
     7    10    11    1
     8    10     9    1
     9     9     8    1
    10     8     7    1
    11     7     1    1
    12     1     2   ar
    13     2     3   ar
    14     3     4   ar
    15     4    20    1
    16    20    21    1
    17    21    22    1
    18    22    23    1
    19    23    24    2
    20    23    25   am
    21    25    26   am
    22    26    27    2
    23     4     5   ar
    24     5     6   ar
    25    15    16   ar
    26    16    17   ar
    27    17    12   ar
    28     6     1   ar
    29    26    21    1
    30    25    28    1
@<TRIPOS>MOLECULE
*****
 28 30 0 0 0
SMALL
GASTEIGER

@<TRIPOS>ATOM
      1 C          50.4340   15.7410  -25.3152 C.ar    1  UNL1        0.1386
      2 C          50.3897   16.0501  -23.9510 C.ar    1  UNL1        0.0366
      3 C          49.8935   15.1263  -23.0273 C.ar    1  UNL1       -0.0011
      4 C          49.4343   13.8711  -23.4558 C.ar    1  UNL1       -0.0206
      5 C          49.4767   13.5581  -24.8233 C.ar    1  UNL1       -0.0011
      6 C          49.9746   14.4815  -25.7465 C.ar    1  UNL1        0.0366
      7 O          50.9465   16.7074  -26.1966 O.3     1  UNL1       -0.4736
      8 C          50.6335   18.1001  -26.1733 C.3     1  UNL1        0.2267
      9 C          49.3342   18.3746  -26.9350 C.3     1  UNL1        0.1396
     10 N          48.1963   18.4241  -26.0042 N.pl3   1  UNL1       -0.2879
     11 C          47.8279   19.7098  -25.3983 C.3     1  UNL1        0.1137
     12 C          46.0059   14.8642  -25.2465 C.ar    1  UNL1       -0.0029
     13 C          46.2931   15.7312  -24.1854 C.ar    1  UNL1        0.0001
     14 C          47.0157   16.9039  -24.4125 C.ar    1  UNL1        0.0340
     15 C          47.4453   17.2179  -25.7168 C.ar    1  UNL1        0.1318
     16 N          47.1390   16.3582  -26.7300 N.ar    1  UNL1       -0.2295
     17 C          46.4382   15.2113  -26.5320 C.ar    1  UNL1        0.0960
     18 C          45.8961   12.4030  -25.6276 C.3     1  UNL1        0.0051
     19 C          45.1980   13.6150  -25.0201 C.3     1  UNL1        0.0279
     20 C          48.9260   12.8584  -22.4546 C.3     1  UNL1        0.0468
     21 C          50.0418   11.9903  -21.8405 C.3     1  UNL1        0.1369
     22 S          49.5786   10.2062  -21.8225 S.3     1  UNL1       -0.0482
     23 C          49.6318   10.2111  -20.0366 C.2     1  UNL1        0.2792
     24 O          49.2605    9.2260  -19.3474 O.2     1  UNL1       -0.2625
     25 N          50.0982   11.4048  -19.4421 N.am    1  UNL1       -0.2460
     26 C          50.3598   12.3839  -20.4287 C.2     1  UNL1        0.2392
     27 O          50.8348   13.5115  -20.1296 O.2     1  UNL1       -0.2737
     28 H          50.2183   11.5496  -18.4148 H       1  UNL1        0.1583
@<TRIPOS>BOND
     1    18    19    1
     2    19    12    1
     3    12    13   ar
     4    13    14   ar
     5    14    15   ar
     6    15    10    1
     7    10    11    1
     8    10     9    1
     9     9     8    1
    10     8     7    1
    11     7     1    1
    12     1     2   ar
    13     2     3   ar
    14     3     4   ar
    15     4    20    1
    16    20    21    1
    17    21    22    1
    18    22    23    1
    19    23    24    2
    20    23    25   am
    21    25    26   am
    22    26    27    2
    23     4     5   ar
    24     5     6   ar
    25    15    16   ar
    26    16    17   ar
    27    17    12   ar
    28     6     1   ar
    29    26    21    1
    30    25    28    1
@<TRIPOS>MOLECULE
*****
 28 30 0 0 0
SMALL
GASTEIGER

@<TRIPOS>ATOM
      1 C          50.6330   13.4436  -21.5131 C.ar    1  UNL1        0.1386
      2 C          50.8592   13.3656  -22.8919 C.ar    1  UNL1        0.0366
      3 C          50.2350   14.2579  -23.7676 C.ar    1  UNL1       -0.0011
      4 C          49.3726   15.2495  -23.2748 C.ar    1  UNL1       -0.0206
      5 C          49.1430   15.3303  -21.8925 C.ar    1  UNL1       -0.0011
      6 C          49.7687   14.4387  -21.0169 C.ar    1  UNL1        0.0366
      7 O          51.2907   12.5224  -20.6811 O.3     1  UNL1       -0.4736
      8 C          50.7776   11.9972  -19.4567 C.3     1  UNL1        0.2267
      9 C          49.8568   10.8040  -19.7244 C.3     1  UNL1        0.1396
     10 N          48.4555   11.2453  -19.7966 N.pl3   1  UNL1       -0.2879
     11 C          47.6948   11.4052  -18.5510 C.3     1  UNL1        0.1137
     12 C          46.7509   12.0383  -23.6059 C.ar    1  UNL1       -0.0029
     13 C          46.2108   12.6556  -22.4713 C.ar    1  UNL1        0.0001
     14 C          46.7535   12.4048  -21.2098 C.ar    1  UNL1        0.0340
     15 C          47.8553   11.5361  -21.0836 C.ar    1  UNL1        0.1318
     16 N          48.3650   10.9602  -22.2097 N.ar    1  UNL1       -0.2295
     17 C          47.8525   11.1889  -23.4469 C.ar    1  UNL1        0.0960
     18 C          44.6813   12.4874  -24.9211 C.3     1  UNL1        0.0051
     19 C          46.1969   12.3279  -24.9746 C.3     1  UNL1        0.0279
     20 C          48.7206   16.2357  -24.2175 C.3     1  UNL1        0.0468
     21 C          49.4852   16.4128  -25.5440 C.3     1  UNL1        0.1369
     22 S          50.2803   18.0725  -25.6504 S.3     1  UNL1       -0.0482
     23 C          49.2539   18.4734  -27.0567 C.2     1  UNL1        0.2792
     24 O          49.2292   19.6225  -27.5688 O.2     1  UNL1       -0.2625
     25 N          48.4499   17.4203  -27.5470 N.am    1  UNL1       -0.2460
     26 C          48.5933   16.2669  -26.7409 C.2     1  UNL1        0.2392
     27 O          48.0075   15.1880  -27.0227 O.2     1  UNL1       -0.2737
     28 H          47.8241   17.4886  -28.3803 H       1  UNL1        0.1583
@<TRIPOS>BOND
     1    18    19    1
     2    19    12    1
     3    12    13   ar
     4    13    14   ar
     5    14    15   ar
     6    15    10    1
     7    10    11    1
     8    10     9    1
     9     9     8    1
    10     8     7    1
    11     7     1    1
    12     1     2   ar
    13     2     3   ar
    14     3     4   ar
    15     4    20    1
    16    20    21    1
    17    21    22    1
    18    22    23    1
    19    23    24    2
    20    23    25   am
    21    25    26   am
    22    26    27    2
    23     4     5   ar
    24     5     6   ar
    25    15    16   ar
    26    16    17   ar
    27    17    12   ar
    28     6     1   ar
    29    26    21    1
    30    25    28    1
@<TRIPOS>MOLECULE
*****
 28 30 0 0 0
SMALL
GASTEIGER

@<TRIPOS>ATOM
      1 C          48.3477   10.4556  -22.3199 C.ar    1  UNL1        0.1386
      2 C          49.3207   10.2747  -23.3094 C.ar    1  UNL1        0.0366
      3 C          49.2427   10.9682  -24.5201 C.ar    1  UNL1       -0.0011
      4 C          48.1864   11.8608  -24.7598 C.ar    1  UNL1       -0.0206
      5 C          47.2085   12.0442  -23.7699 C.ar    1  UNL1       -0.0011
      6 C          47.2877   11.3516  -22.5586 C.ar    1  UNL1        0.0366
      7 O          48.4799    9.7344  -21.1217 O.3     1  UNL1       -0.4736
      8 C          49.5558    9.8610  -20.1920 C.3     1  UNL1        0.2267
      9 C          49.3461   11.0765  -19.2854 C.3     1  UNL1        0.1396
     10 N          50.3895   12.0839  -19.5309 N.pl3   1  UNL1       -0.2879
     11 C          51.4902   12.2176  -18.5685 C.3     1  UNL1        0.1137
     12 C          50.2841   14.4555  -23.0536 C.ar    1  UNL1       -0.0029
     13 C          49.3194   14.6608  -22.0600 C.ar    1  UNL1        0.0001
     14 C          49.3337   13.8888  -20.8969 C.ar    1  UNL1        0.0340
     15 C          50.3306   12.9092  -20.7213 C.ar    1  UNL1        0.1318
     16 N          51.2625   12.7424  -21.7028 N.ar    1  UNL1       -0.2295
     17 C          51.2671   13.4812  -22.8429 C.ar    1  UNL1        0.0960
     18 C          49.0008   16.0927  -24.4275 C.3     1  UNL1        0.0051
     19 C          50.2998   15.3048  -24.2957 C.3     1  UNL1        0.0279
     20 C          48.1171   12.6355  -26.0564 C.3     1  UNL1        0.0468
     21 C          46.7069   12.6656  -26.6778 C.3     1  UNL1        0.1369
     22 S          46.5206   11.3896  -27.9951 S.3     1  UNL1       -0.0482
     23 C          46.2649   12.6780  -29.2061 C.2     1  UNL1        0.2792
     24 O          46.1906   12.4402  -30.4395 O.2     1  UNL1       -0.2625
     25 N          46.1733   13.9908  -28.6922 N.am    1  UNL1       -0.2460
     26 C          46.3823   13.9941  -27.2933 C.2     1  UNL1        0.2392
     27 O          46.2942   15.0522  -26.6156 O.2     1  UNL1       -0.2737
     28 H          45.9919   14.8431  -29.2678 H       1  UNL1        0.1583
@<TRIPOS>BOND
     1    18    19    1
     2    19    12    1
     3    12    13   ar
     4    13    14   ar
     5    14    15   ar
     6    15    10    1
     7    10    11    1
     8    10     9    1
     9     9     8    1
    10     8     7    1
    11     7     1    1
    12     1     2   ar
    13     2     3   ar
    14     3     4   ar
    15     4    20    1
    16    20    21    1
    17    21    22    1
    18    22    23    1
    19    23    24    2
    20    23    25   am
    21    25    26   am
    22    26    27    2
    23     4     5   ar
    24     5     6   ar
    25    15    16   ar
    26    16    17   ar
    27    17    12   ar
    28     6     1   ar
    29    26    21    1
    30    25    28    1
