@<TRIPOS>MOLECULE
*****
 46 51 0 0 0
SMALL
GASTEIGER

@<TRIPOS>ATOM
      1 C           6.0176   77.1399   20.9229 C.ar    1  UNL1        0.1317
      2 C           6.3623   77.1263   22.2865 C.ar    1  UNL1        0.0356
      3 C           7.5964   77.6348   22.6936 C.ar    1  UNL1        0.0191
      4 C           8.4999   78.1390   21.7452 C.ar    1  UNL1        0.0702
      5 C           8.1258   78.1265   20.3968 C.ar    1  UNL1        0.1149
      6 N           6.9149   77.6359   20.0251 N.ar    1  UNL1       -0.2279
      7 C           3.5333   76.8490   21.3287 C.3     1  UNL1        0.0742
      8 C           2.7561   75.5143   21.4836 C.3     1  UNL1        0.0235
      9 C           2.9653   74.4963   20.3333 C.3     1  UNL1        0.0471
     10 C           3.3340   75.1885   19.0100 C.3     1  UNL1        0.0252
     11 C           4.5879   76.0661   19.1333 C.3     1  UNL1        0.0922
     12 N           4.7217   76.6814   20.4670 N.pl3   1  UNL1       -0.2949
     13 C           2.3180   79.0194   21.8903 C.3     1  UNL1        0.0018
     14 C           2.6346   77.9918   20.8039 C.3     1  UNL1        0.0198
     15 C           3.9549   73.3720   20.7088 C.3     1  UNL1        0.2054
     16 O           5.3070   73.7752   20.4971 O.3     1  UNL1       -0.4755
     17 C           6.2949   73.8029   21.4931 C.ar    1  UNL1        0.1388
     18 C           5.8980   73.6563   22.8266 C.ar    1  UNL1        0.0369
     19 C           6.8416   73.6751   23.8541 C.ar    1  UNL1        0.0033
     20 C           8.1961   73.8420   23.5594 C.ar    1  UNL1        0.0066
     21 C           8.6205   73.9934   22.2274 C.ar    1  UNL1        0.0785
     22 C           7.6621   73.9732   21.1973 C.ar    1  UNL1        0.0433
     23 C          10.0552   74.1715   21.9104 C.2     1  UNL1        0.3381
     24 O          10.8684   73.2218   22.0749 O.2     1  UNL1       -0.2451
     25 O          10.5217   75.3911   21.4266 O.3     1  UNL1       -0.4771
     26 H          11.5017   75.5233   21.2066 H       1  UNL1        0.2954
     27 N           9.7535   78.7292   22.1296 N.am    1  UNL1       -0.2766
     28 C          10.4949   78.3473   23.2961 C.2     1  UNL1        0.2839
     29 O          10.4677   77.1524   23.6960 O.2     1  UNL1       -0.2665
     30 H          10.1774   79.4446   21.4972 H       1  UNL1        0.1553
     31 C          11.3552   79.3147   23.9985 C.ar    1  UNL1        0.1946
     32 O          12.6381   79.0920   24.2234 O.2     1  UNL1       -0.4492
     33 C          13.1225   80.1338   24.8542 C.ar    1  UNL1        0.1452
     34 C          14.4315   80.3312   25.2796 C.ar    1  UNL1        0.0375
     35 C          14.7369   81.5348   25.9390 C.ar    1  UNL1        0.0031
     36 C          13.7349   82.5179   26.1623 C.ar    1  UNL1        0.0002
     37 C          12.4140   82.2759   25.7146 C.ar    1  UNL1        0.0028
     38 C          12.1474   81.0707   25.0646 C.ar    1  UNL1        0.0337
     39 C          10.9831   80.5555   24.5306 C.ar    1  UNL1        0.0202
     40 C           9.6290   81.1993   24.5366 C.3     1  UNL1        0.0345
     41 C          14.0691   83.7860   26.8589 C.ar    1  UNL1        0.0000
     42 C          14.1490   84.9961   26.1437 C.ar    1  UNL1        0.0000
     43 C          14.4628   86.1889   26.8026 C.ar    1  UNL1        0.0000
     44 C          14.7005   86.1880   28.1789 C.ar    1  UNL1        0.0000
     45 C          14.6244   84.9942   28.8996 C.ar    1  UNL1        0.0000
     46 C          14.3102   83.7986   28.2461 C.ar    1  UNL1        0.0000
@<TRIPOS>BOND
     1    13    14    1
     2    14     7    1
     3     7     8    1
     4     8     9    1
     5     9    15    1
     6    15    16    1
     7    16    17    1
     8    17    18   ar
     9    18    19   ar
    10    19    20   ar
    11    20    21   ar
    12    21    23    1
    13    23    24    2
    14    23    25    1
    15    21    22   ar
    16     9    10    1
    17    10    11    1
    18    11    12    1
    19    12     1    1
    20     1     2   ar
    21     2     3   ar
    22     3     4   ar
    23     4    27    1
    24    27    28   am
    25    28    29    2
    26    28    31    1
    27    31    32   ar
    28    32    33   ar
    29    33    34   ar
    30    34    35   ar
    31    35    36   ar
    32    36    41    1
    33    41    42   ar
    34    42    43   ar
    35    43    44   ar
    36    44    45   ar
    37    45    46   ar
    38    36    37   ar
    39    37    38   ar
    40    38    39   ar
    41    39    40    1
    42     4     5   ar
    43     5     6   ar
    44    12     7    1
    45     6     1   ar
    46    22    17   ar
    47    39    31   ar
    48    38    33   ar
    49    46    41   ar
    50    25    26    1
    51    27    30    1
@<TRIPOS>MOLECULE
*****
 46 51 0 0 0
SMALL
GASTEIGER

@<TRIPOS>ATOM
      1 C           5.9887   77.1818   20.9135 C.ar    1  UNL1        0.1317
      2 C           6.2635   77.3072   22.2872 C.ar    1  UNL1        0.0356
      3 C           7.4973   77.8090   22.7034 C.ar    1  UNL1        0.0191
      4 C           8.4692   78.1680   21.7567 C.ar    1  UNL1        0.0702
      5 C           8.1632   78.0196   20.3992 C.ar    1  UNL1        0.1149
      6 N           6.9516   77.5386   20.0174 N.ar    1  UNL1       -0.2279
      7 C           3.5252   76.7674   21.3375 C.3     1  UNL1        0.0742
      8 C           2.7950   75.3981   21.3740 C.3     1  UNL1        0.0235
      9 C           3.0100   74.5067   20.1239 C.3     1  UNL1        0.0471
     10 C           3.3255   75.3388   18.8691 C.3     1  UNL1        0.0252
     11 C           4.5532   76.2423   19.0544 C.3     1  UNL1        0.0922
     12 N           4.6980   76.7267   20.4399 N.pl3   1  UNL1       -0.2949
     13 C           2.6634   79.0933   21.9293 C.3     1  UNL1        0.0018
     14 C           2.5783   77.9251   20.9473 C.3     1  UNL1        0.0198
     15 C           4.0436   73.3853   20.3656 C.3     1  UNL1        0.2054
     16 O           4.5147   73.3918   21.7123 O.3     1  UNL1       -0.4755
     17 C           5.8299   73.6967   22.0943 C.ar    1  UNL1        0.1388
     18 C           6.8389   73.6100   21.1291 C.ar    1  UNL1        0.0369
     19 C           8.1626   73.9044   21.4577 C.ar    1  UNL1        0.0033
     20 C           8.4934   74.2889   22.7585 C.ar    1  UNL1        0.0066
     21 C           7.4979   74.3818   23.7473 C.ar    1  UNL1        0.0785
     22 C           6.1655   74.0831   23.4072 C.ar    1  UNL1        0.0433
     23 C           7.8440   74.7882   25.1277 C.2     1  UNL1        0.3381
     24 O           7.1486   74.3940   26.1030 O.2     1  UNL1       -0.2451
     25 O           8.9426   75.6109   25.3634 O.3     1  UNL1       -0.4771
     26 H           9.1879   75.8947   26.3044 H       1  UNL1        0.2954
     27 N           9.7273   78.7476   22.1424 N.am    1  UNL1       -0.2766
     28 C          10.4580   78.3683   23.3166 C.2     1  UNL1        0.2839
     29 O          10.4151   77.1777   23.7275 O.2     1  UNL1       -0.2665
     30 H          10.1628   79.4521   21.5057 H       1  UNL1        0.1553
     31 C          11.3254   79.3325   24.0145 C.ar    1  UNL1        0.1946
     32 O          12.6090   79.1061   24.2312 O.2     1  UNL1       -0.4492
     33 C          13.1003   80.1458   24.8601 C.ar    1  UNL1        0.1452
     34 C          14.4126   80.3391   25.2775 C.ar    1  UNL1        0.0375
     35 C          14.7254   81.5411   25.9363 C.ar    1  UNL1        0.0031
     36 C          13.7276   82.5268   26.1669 C.ar    1  UNL1        0.0002
     37 C          12.4032   82.2890   25.7272 C.ar    1  UNL1        0.0028
     38 C          12.1292   81.0852   25.0776 C.ar    1  UNL1        0.0337
     39 C          10.9602   80.5738   24.5503 C.ar    1  UNL1        0.0202
     40 C           9.6079   81.2215   24.5655 C.3     1  UNL1        0.0345
     41 C          14.0697   83.7931   26.8628 C.ar    1  UNL1        0.0000
     42 C          14.3210   83.8035   28.2481 C.ar    1  UNL1        0.0000
     43 C          14.6440   84.9973   28.9005 C.ar    1  UNL1        0.0000
     44 C          14.7191   86.1917   28.1804 C.ar    1  UNL1        0.0000
     45 C          14.4719   86.1947   26.8058 C.ar    1  UNL1        0.0000
     46 C          14.1493   85.0037   26.1481 C.ar    1  UNL1        0.0000
@<TRIPOS>BOND
     1    13    14    1
     2    14     7    1
     3     7     8    1
     4     8     9    1
     5     9    15    1
     6    15    16    1
     7    16    17    1
     8    17    18   ar
     9    18    19   ar
    10    19    20   ar
    11    20    21   ar
    12    21    23    1
    13    23    24    2
    14    23    25    1
    15    21    22   ar
    16     9    10    1
    17    10    11    1
    18    11    12    1
    19    12     1    1
    20     1     2   ar
    21     2     3   ar
    22     3     4   ar
    23     4    27    1
    24    27    28   am
    25    28    29    2
    26    28    31    1
    27    31    32   ar
    28    32    33   ar
    29    33    34   ar
    30    34    35   ar
    31    35    36   ar
    32    36    41    1
    33    41    42   ar
    34    42    43   ar
    35    43    44   ar
    36    44    45   ar
    37    45    46   ar
    38    36    37   ar
    39    37    38   ar
    40    38    39   ar
    41    39    40    1
    42     4     5   ar
    43     5     6   ar
    44    12     7    1
    45     6     1   ar
    46    22    17   ar
    47    39    31   ar
    48    38    33   ar
    49    46    41   ar
    50    25    26    1
    51    27    30    1
@<TRIPOS>MOLECULE
*****
 46 51 0 0 0
SMALL
GASTEIGER

@<TRIPOS>ATOM
      1 C           6.4285   76.9152   20.2414 C.ar    1  UNL1        0.1317
      2 C           7.1870   76.0011   20.9946 C.ar    1  UNL1        0.0356
      3 C           8.4047   76.4011   21.5465 C.ar    1  UNL1        0.0191
      4 C           8.8821   77.7037   21.3342 C.ar    1  UNL1        0.0702
      5 C           8.1044   78.5818   20.5710 C.ar    1  UNL1        0.1149
      6 N           6.9172   78.1733   20.0524 N.ar    1  UNL1       -0.2279
      7 C           4.0905   77.5958   19.5404 C.3     1  UNL1        0.0742
      8 C           2.7499   77.1588   20.1896 C.3     1  UNL1        0.0235
      9 C           2.5575   75.6269   20.3291 C.3     1  UNL1        0.0471
     10 C           3.3552   74.8462   19.2705 C.3     1  UNL1        0.0252
     11 C           4.8565   75.1657   19.3099 C.3     1  UNL1        0.0922
     12 N           5.1304   76.5595   19.7067 N.pl3   1  UNL1       -0.2949
     13 C           4.7973   79.1598   17.6543 C.3     1  UNL1        0.0018
     14 C           3.9244   77.9689   18.0497 C.3     1  UNL1        0.0198
     15 C           2.8272   75.1234   21.7637 C.3     1  UNL1        0.2054
     16 O           2.4590   76.0996   22.7368 O.3     1  UNL1       -0.4755
     17 C           3.2314   76.4362   23.8588 C.ar    1  UNL1        0.1388
     18 C           2.5793   76.9540   24.9830 C.ar    1  UNL1        0.0369
     19 C           3.3017   77.3027   26.1246 C.ar    1  UNL1        0.0033
     20 C           4.6877   77.1380   26.1550 C.ar    1  UNL1        0.0066
     21 C           5.3670   76.6213   25.0374 C.ar    1  UNL1        0.0785
     22 C           4.6306   76.2722   23.8902 C.ar    1  UNL1        0.0433
     23 C           6.8363   76.4457   25.0647 C.2     1  UNL1        0.3381
     24 O           7.3445   75.2967   24.9564 O.2     1  UNL1       -0.2451
     25 O           7.6731   77.5492   25.2106 O.3     1  UNL1       -0.4771
     26 H           8.6801   77.4398   25.2305 H       1  UNL1        0.2954
     27 N          10.0997   78.1739   21.9376 N.am    1  UNL1       -0.2766
     28 C          10.3899   78.0756   23.3385 C.2     1  UNL1        0.2839
     29 O           9.9573   77.0965   24.0038 O.2     1  UNL1       -0.2665
     30 H          10.8408   78.5661   21.3143 H       1  UNL1        0.1553
     31 C          11.2540   79.0646   24.0052 C.ar    1  UNL1        0.1946
     32 O          12.5308   78.8365   24.2580 O.2     1  UNL1       -0.4492
     33 C          13.0210   79.9011   24.8446 C.ar    1  UNL1        0.1452
     34 C          14.3270   80.1019   25.2777 C.ar    1  UNL1        0.0375
     35 C          14.6401   81.3318   25.8827 C.ar    1  UNL1        0.0031
     36 C          13.6487   82.3374   26.0450 C.ar    1  UNL1        0.0002
     37 C          12.3305   82.0911   25.5915 C.ar    1  UNL1        0.0028
     38 C          12.0561   80.8596   24.9965 C.ar    1  UNL1        0.0337
     39 C          10.8919   80.3342   24.4721 C.ar    1  UNL1        0.0202
     40 C           9.5467   80.9951   24.4288 C.3     1  UNL1        0.0345
     41 C          13.9909   83.6331   26.6844 C.ar    1  UNL1        0.0000
     42 C          14.2026   83.7118   28.0742 C.ar    1  UNL1        0.0000
     43 C          14.5258   84.9332   28.6734 C.ar    1  UNL1        0.0000
     44 C          14.6406   86.0872   27.8952 C.ar    1  UNL1        0.0000
     45 C          14.4330   86.0224   26.5156 C.ar    1  UNL1        0.0000
     46 C          14.1104   84.8036   25.9109 C.ar    1  UNL1        0.0000
@<TRIPOS>BOND
     1    13    14    1
     2    14     7    1
     3     7     8    1
     4     8     9    1
     5     9    15    1
     6    15    16    1
     7    16    17    1
     8    17    18   ar
     9    18    19   ar
    10    19    20   ar
    11    20    21   ar
    12    21    23    1
    13    23    24    2
    14    23    25    1
    15    21    22   ar
    16     9    10    1
    17    10    11    1
    18    11    12    1
    19    12     1    1
    20     1     2   ar
    21     2     3   ar
    22     3     4   ar
    23     4    27    1
    24    27    28   am
    25    28    29    2
    26    28    31    1
    27    31    32   ar
    28    32    33   ar
    29    33    34   ar
    30    34    35   ar
    31    35    36   ar
    32    36    41    1
    33    41    42   ar
    34    42    43   ar
    35    43    44   ar
    36    44    45   ar
    37    45    46   ar
    38    36    37   ar
    39    37    38   ar
    40    38    39   ar
    41    39    40    1
    42     4     5   ar
    43     5     6   ar
    44    12     7    1
    45     6     1   ar
    46    22    17   ar
    47    39    31   ar
    48    38    33   ar
    49    46    41   ar
    50    25    26    1
    51    27    30    1
@<TRIPOS>MOLECULE
*****
 46 51 0 0 0
SMALL
GASTEIGER

@<TRIPOS>ATOM
      1 C           7.9828   77.5806   25.2619 C.ar    1  UNL1        0.1317
      2 C           8.2742   78.6010   26.1850 C.ar    1  UNL1        0.0356
      3 C           9.1920   79.5971   25.8489 C.ar    1  UNL1        0.0191
      4 C           9.8383   79.5705   24.6033 C.ar    1  UNL1        0.0702
      5 C           9.5300   78.5339   23.7152 C.ar    1  UNL1        0.1149
      6 N           8.6255   77.5809   24.0601 N.ar    1  UNL1       -0.2279
      7 C           5.6409   76.9597   26.0037 C.3     1  UNL1        0.0742
      8 C           5.2349   76.1919   27.2904 C.3     1  UNL1        0.0235
      9 C           5.9556   74.8354   27.4995 C.3     1  UNL1        0.0471
     10 C           6.4061   74.2100   26.1682 C.3     1  UNL1        0.0252
     11 C           7.3208   75.1409   25.3593 C.3     1  UNL1        0.0922
     12 N           6.9894   76.5659   25.5465 N.pl3   1  UNL1       -0.2949
     13 C           3.1695   76.8509   25.3847 C.3     1  UNL1        0.0018
     14 C           4.6066   76.7863   24.8682 C.3     1  UNL1        0.0198
     15 C           7.1028   74.9257   28.5291 C.3     1  UNL1        0.2054
     16 O           7.0881   76.1750   29.2180 O.3     1  UNL1       -0.4755
     17 C           8.1735   77.0618   29.2820 C.ar    1  UNL1        0.1388
     18 C           9.3604   76.7069   28.6322 C.ar    1  UNL1        0.0369
     19 C          10.4681   77.5548   28.6644 C.ar    1  UNL1        0.0033
     20 C          10.4016   78.7697   29.3491 C.ar    1  UNL1        0.0066
     21 C           9.2208   79.1486   30.0119 C.ar    1  UNL1        0.0785
     22 C           8.1084   78.2875   29.9743 C.ar    1  UNL1        0.0433
     23 C           9.1460   80.4351   30.7398 C.2     1  UNL1        0.3381
     24 O           8.3514   80.5755   31.7088 O.2     1  UNL1       -0.2451
     25 O           9.9536   81.5045   30.3611 O.3     1  UNL1       -0.4771
     26 H           9.9100   82.3892   30.8527 H       1  UNL1        0.2954
     27 N          10.7416   80.6118   24.1943 N.am    1  UNL1       -0.2766
     28 C          12.0777   80.7561   24.6950 C.2     1  UNL1        0.2839
     29 O          12.7474   79.7346   25.0054 O.2     1  UNL1       -0.2665
     30 H          10.4270   81.2754   23.4513 H       1  UNL1        0.1553
     31 C          12.7155   82.0807   24.7833 C.ar    1  UNL1        0.1946
     32 O          12.9349   82.8357   23.7214 O.2     1  UNL1       -0.4492
     33 C          13.5024   83.9453   24.1271 C.ar    1  UNL1        0.1452
     34 C          13.8990   85.0262   23.3473 C.ar    1  UNL1        0.0375
     35 C          14.4888   86.1260   23.9949 C.ar    1  UNL1        0.0031
     36 C          14.6725   86.1293   25.4043 C.ar    1  UNL1        0.0002
     37 C          14.2561   85.0073   26.1605 C.ar    1  UNL1        0.0028
     38 C          13.6753   83.9341   25.4846 C.ar    1  UNL1        0.0337
     39 C          13.1853   82.7244   25.9349 C.ar    1  UNL1        0.0202
     40 C          13.1749   82.2291   27.3501 C.3     1  UNL1        0.0345
     41 C          15.2956   87.2969   26.0777 C.ar    1  UNL1        0.0000
     42 C          14.8852   87.6819   27.3683 C.ar    1  UNL1        0.0000
     43 C          15.4746   88.7812   28.0004 C.ar    1  UNL1        0.0000
     44 C          16.4770   89.5075   27.3537 C.ar    1  UNL1        0.0000
     45 C          16.8928   89.1357   26.0733 C.ar    1  UNL1        0.0000
     46 C          16.3076   88.0368   25.4367 C.ar    1  UNL1        0.0000
@<TRIPOS>BOND
     1    13    14    1
     2    14     7    1
     3     7     8    1
     4     8     9    1
     5     9    15    1
     6    15    16    1
     7    16    17    1
     8    17    18   ar
     9    18    19   ar
    10    19    20   ar
    11    20    21   ar
    12    21    23    1
    13    23    24    2
    14    23    25    1
    15    21    22   ar
    16     9    10    1
    17    10    11    1
    18    11    12    1
    19    12     1    1
    20     1     2   ar
    21     2     3   ar
    22     3     4   ar
    23     4    27    1
    24    27    28   am
    25    28    29    2
    26    28    31    1
    27    31    32   ar
    28    32    33   ar
    29    33    34   ar
    30    34    35   ar
    31    35    36   ar
    32    36    41    1
    33    41    42   ar
    34    42    43   ar
    35    43    44   ar
    36    44    45   ar
    37    45    46   ar
    38    36    37   ar
    39    37    38   ar
    40    38    39   ar
    41    39    40    1
    42     4     5   ar
    43     5     6   ar
    44    12     7    1
    45     6     1   ar
    46    22    17   ar
    47    39    31   ar
    48    38    33   ar
    49    46    41   ar
    50    25    26    1
    51    27    30    1
@<TRIPOS>MOLECULE
*****
 46 51 0 0 0
SMALL
GASTEIGER

@<TRIPOS>ATOM
      1 C           8.1618   77.6476   24.1387 C.ar    1  UNL1        0.1317
      2 C           8.8748   78.0933   25.2662 C.ar    1  UNL1        0.0356
      3 C           9.8487   79.0825   25.1227 C.ar    1  UNL1        0.0191
      4 C          10.1314   79.6165   23.8560 C.ar    1  UNL1        0.0702
      5 C           9.4084   79.1408   22.7563 C.ar    1  UNL1        0.1149
      6 N           8.4578   78.1847   22.9217 N.ar    1  UNL1       -0.2279
      7 C           6.8263   76.0268   25.5565 C.3     1  UNL1        0.0742
      8 C           6.7761   74.4811   25.4223 C.3     1  UNL1        0.0235
      9 C           6.4257   73.9570   24.0060 C.3     1  UNL1        0.0471
     10 C           5.5873   74.9694   23.2070 C.3     1  UNL1        0.0252
     11 C           6.2785   76.3343   23.0765 C.3     1  UNL1        0.0922
     12 N           7.0994   76.6702   24.2549 N.pl3   1  UNL1       -0.2949
     13 C           5.8401   77.4999   27.3896 C.3     1  UNL1        0.0018
     14 C           5.5389   76.6010   26.1905 C.3     1  UNL1        0.0198
     15 C           7.6687   73.4733   23.2281 C.3     1  UNL1        0.2054
     16 O           8.8745   73.9502   23.8232 O.3     1  UNL1       -0.4755
     17 C           9.8214   74.7534   23.1699 C.ar    1  UNL1        0.1388
     18 C           9.6502   75.0049   21.8044 C.ar    1  UNL1        0.0369
     19 C          10.5629   75.7987   21.1090 C.ar    1  UNL1        0.0033
     20 C          11.6603   76.3508   21.7725 C.ar    1  UNL1        0.0066
     21 C          11.8559   76.1115   23.1443 C.ar    1  UNL1        0.0785
     22 C          10.9305   75.3097   23.8378 C.ar    1  UNL1        0.0433
     23 C          13.0183   76.6939   23.8515 C.2     1  UNL1        0.3381
     24 O          14.1563   76.7051   23.3085 O.2     1  UNL1       -0.2451
     25 O          12.8663   77.2358   25.1252 O.3     1  UNL1       -0.4771
     26 H          13.6555   77.6368   25.6178 H       1  UNL1        0.2954
     27 N          11.0815   80.6806   23.6754 N.am    1  UNL1       -0.2766
     28 C          12.2655   80.8411   24.4685 C.2     1  UNL1        0.2839
     29 O          12.8690   79.8271   24.9109 O.2     1  UNL1       -0.2665
     30 H          10.9296   81.3505   22.8882 H       1  UNL1        0.1553
     31 C          12.8380   82.1755   24.7152 C.ar    1  UNL1        0.1946
     32 O          13.1300   83.0150   23.7374 O.2     1  UNL1       -0.4492
     33 C          13.6100   84.1090   24.2766 C.ar    1  UNL1        0.1452
     34 C          14.0376   85.2578   23.6202 C.ar    1  UNL1        0.0375
     35 C          14.5164   86.3246   24.4009 C.ar    1  UNL1        0.0031
     36 C          14.5607   86.2279   25.8183 C.ar    1  UNL1        0.0002
     37 C          14.1174   85.0393   26.4464 C.ar    1  UNL1        0.0028
     38 C          13.6492   84.0014   25.6404 C.ar    1  UNL1        0.0337
     39 C          13.1663   82.7459   25.9513 C.ar    1  UNL1        0.0202
     40 C          13.0369   82.1455   27.3192 C.3     1  UNL1        0.0345
     41 C          15.0673   87.3613   26.6328 C.ar    1  UNL1        0.0000
     42 C          14.5567   87.6003   27.9230 C.ar    1  UNL1        0.0000
     43 C          15.0365   88.6678   28.6882 C.ar    1  UNL1        0.0000
     44 C          16.0282   89.5074   28.1762 C.ar    1  UNL1        0.0000
     45 C          16.5429   89.2810   26.8978 C.ar    1  UNL1        0.0000
     46 C          16.0674   88.2146   26.1284 C.ar    1  UNL1        0.0000
@<TRIPOS>BOND
     1    13    14    1
     2    14     7    1
     3     7     8    1
     4     8     9    1
     5     9    15    1
     6    15    16    1
     7    16    17    1
     8    17    18   ar
     9    18    19   ar
    10    19    20   ar
    11    20    21   ar
    12    21    23    1
    13    23    24    2
    14    23    25    1
    15    21    22   ar
    16     9    10    1
    17    10    11    1
    18    11    12    1
    19    12     1    1
    20     1     2   ar
    21     2     3   ar
    22     3     4   ar
    23     4    27    1
    24    27    28   am
    25    28    29    2
    26    28    31    1
    27    31    32   ar
    28    32    33   ar
    29    33    34   ar
    30    34    35   ar
    31    35    36   ar
    32    36    41    1
    33    41    42   ar
    34    42    43   ar
    35    43    44   ar
    36    44    45   ar
    37    45    46   ar
    38    36    37   ar
    39    37    38   ar
    40    38    39   ar
    41    39    40    1
    42     4     5   ar
    43     5     6   ar
    44    12     7    1
    45     6     1   ar
    46    22    17   ar
    47    39    31   ar
    48    38    33   ar
    49    46    41   ar
    50    25    26    1
    51    27    30    1
@<TRIPOS>MOLECULE
*****
 46 51 0 0 0
SMALL
GASTEIGER

@<TRIPOS>ATOM
      1 C           8.5571   77.1762   24.3389 C.ar    1  UNL1        0.1317
      2 C           9.5635   76.9301   25.2900 C.ar    1  UNL1        0.0356
      3 C          10.6488   77.8016   25.3907 C.ar    1  UNL1        0.0191
      4 C          10.7478   78.9080   24.5329 C.ar    1  UNL1        0.0702
      5 C           9.7322   79.1145   23.5925 C.ar    1  UNL1        0.1149
      6 N           8.6799   78.2586   23.5198 N.ar    1  UNL1       -0.2279
      7 C           7.2681   75.1304   25.0965 C.3     1  UNL1        0.0742
      8 C           6.9173   73.8750   24.2536 C.3     1  UNL1        0.0235
      9 C           6.2007   74.1664   22.9101 C.3     1  UNL1        0.0471
     10 C           5.4125   75.4868   22.9510 C.3     1  UNL1        0.0252
     11 C           6.2950   76.6890   23.3163 C.3     1  UNL1        0.0922
     12 N           7.3832   76.3331   24.2461 N.pl3   1  UNL1       -0.2949
     13 C           6.0593   74.1164   27.0999 C.3     1  UNL1        0.0018
     14 C           6.2584   75.3663   26.2428 C.3     1  UNL1        0.0198
     15 C           7.1548   74.0840   21.6989 C.3     1  UNL1        0.2054
     16 O           8.0671   72.9945   21.8268 O.3     1  UNL1       -0.4755
     17 C           9.4230   73.1266   22.1627 C.ar    1  UNL1        0.1388
     18 C          10.1582   71.9658   22.4258 C.ar    1  UNL1        0.0369
     19 C          11.5099   72.0429   22.7626 C.ar    1  UNL1        0.0033
     20 C          12.1434   73.2846   22.8412 C.ar    1  UNL1        0.0066
     21 C          11.4261   74.4663   22.5832 C.ar    1  UNL1        0.0785
     22 C          10.0631   74.3793   22.2442 C.ar    1  UNL1        0.0433
     23 C          12.0932   75.7849   22.6661 C.2     1  UNL1        0.3381
     24 O          11.5835   76.7947   22.1089 O.2     1  UNL1       -0.2451
     25 O          13.2919   75.9233   23.3613 O.3     1  UNL1       -0.4771
     26 H          13.7564   76.8214   23.4239 H       1  UNL1        0.2954
     27 N          11.8160   79.8638   24.6467 N.am    1  UNL1       -0.2766
     28 C          11.7313   81.0730   25.4129 C.2     1  UNL1        0.2839
     29 O          11.0447   81.1021   26.4693 O.2     1  UNL1       -0.2665
     30 H          12.7273   79.6438   24.1856 H       1  UNL1        0.1553
     31 C          12.4979   82.2702   25.0278 C.ar    1  UNL1        0.1946
     32 O          12.5566   82.7056   23.7816 O.2     1  UNL1       -0.4492
     33 C          13.3020   83.7836   23.7670 C.ar    1  UNL1        0.1452
     34 C          13.6249   84.5734   22.6690 C.ar    1  UNL1        0.0375
     35 C          14.4427   85.6970   22.8818 C.ar    1  UNL1        0.0031
     36 C          14.9232   86.0130   24.1817 C.ar    1  UNL1        0.0002
     37 C          14.5721   85.1811   25.2719 C.ar    1  UNL1        0.0028
     38 C          13.7595   84.0748   25.0235 C.ar    1  UNL1        0.0337
     39 C          13.2630   83.0958   25.8610 C.ar    1  UNL1        0.0202
     40 C          13.5079   82.9638   27.3344 C.3     1  UNL1        0.0345
     41 C          15.7854   87.2030   24.3949 C.ar    1  UNL1        0.0000
     42 C          15.3644   88.2507   25.2358 C.ar    1  UNL1        0.0000
     43 C          16.1790   89.3696   25.4356 C.ar    1  UNL1        0.0000
     44 C          17.4195   89.4561   24.7998 C.ar    1  UNL1        0.0000
     45 C          17.8485   88.4235   23.9631 C.ar    1  UNL1        0.0000
     46 C          17.0385   87.3019   23.7603 C.ar    1  UNL1        0.0000
@<TRIPOS>BOND
     1    13    14    1
     2    14     7    1
     3     7     8    1
     4     8     9    1
     5     9    15    1
     6    15    16    1
     7    16    17    1
     8    17    18   ar
     9    18    19   ar
    10    19    20   ar
    11    20    21   ar
    12    21    23    1
    13    23    24    2
    14    23    25    1
    15    21    22   ar
    16     9    10    1
    17    10    11    1
    18    11    12    1
    19    12     1    1
    20     1     2   ar
    21     2     3   ar
    22     3     4   ar
    23     4    27    1
    24    27    28   am
    25    28    29    2
    26    28    31    1
    27    31    32   ar
    28    32    33   ar
    29    33    34   ar
    30    34    35   ar
    31    35    36   ar
    32    36    41    1
    33    41    42   ar
    34    42    43   ar
    35    43    44   ar
    36    44    45   ar
    37    45    46   ar
    38    36    37   ar
    39    37    38   ar
    40    38    39   ar
    41    39    40    1
    42     4     5   ar
    43     5     6   ar
    44    12     7    1
    45     6     1   ar
    46    22    17   ar
    47    39    31   ar
    48    38    33   ar
    49    46    41   ar
    50    25    26    1
    51    27    30    1
@<TRIPOS>MOLECULE
*****
 46 51 0 0 0
SMALL
GASTEIGER

@<TRIPOS>ATOM
      1 C           9.3431   77.0323   23.5662 C.ar    1  UNL1        0.1317
      2 C           8.9157   78.3708   23.6294 C.ar    1  UNL1        0.0356
      3 C           9.8241   79.3720   23.9752 C.ar    1  UNL1        0.0191
      4 C          11.1544   79.0439   24.2795 C.ar    1  UNL1        0.0702
      5 C          11.5401   77.7002   24.2157 C.ar    1  UNL1        0.1149
      6 N          10.6408   76.7439   23.8666 N.ar    1  UNL1       -0.2279
      7 C           7.0931   76.2996   22.6599 C.3     1  UNL1        0.0742
      8 C           6.0115   75.4625   23.3939 C.3     1  UNL1        0.0235
      9 C           6.5131   74.1234   23.9928 C.3     1  UNL1        0.0471
     10 C           7.7330   73.5731   23.2343 C.3     1  UNL1        0.0252
     11 C           8.9006   74.5695   23.1938 C.3     1  UNL1        0.0922
     12 N           8.4484   75.9727   23.1488 N.pl3   1  UNL1       -0.2949
     13 C           6.3449   77.3429   20.4565 C.3     1  UNL1        0.0018
     14 C           7.0132   76.1413   21.1244 C.3     1  UNL1        0.0198
     15 C           6.7518   74.2073   25.5160 C.3     1  UNL1        0.2054
     16 O           6.7647   75.5605   25.9680 O.3     1  UNL1       -0.4755
     17 C           7.8416   76.1683   26.6311 C.ar    1  UNL1        0.1388
     18 C           9.0399   75.4552   26.7440 C.ar    1  UNL1        0.0369
     19 C          10.1408   76.0156   27.3926 C.ar    1  UNL1        0.0033
     20 C          10.0556   77.2982   27.9376 C.ar    1  UNL1        0.0066
     21 C           8.8618   78.0348   27.8391 C.ar    1  UNL1        0.0785
     22 C           7.7564   77.4619   27.1833 C.ar    1  UNL1        0.0433
     23 C           8.7667   79.3943   28.4162 C.2     1  UNL1        0.3381
     24 O           7.8993   79.6568   29.2930 O.2     1  UNL1       -0.2451
     25 O           9.6353   80.3984   27.9958 O.3     1  UNL1       -0.4771
     26 H           9.5784   81.3322   28.3845 H       1  UNL1        0.2954
     27 N          12.1357   80.0516   24.5782 N.am    1  UNL1       -0.2766
     28 C          11.8242   81.3288   25.1510 C.2     1  UNL1        0.2839
     29 O          10.8681   81.4374   25.9649 O.2     1  UNL1       -0.2665
     30 H          13.1425   79.8245   24.4159 H       1  UNL1        0.1553
     31 C          12.6530   82.5117   24.8629 C.ar    1  UNL1        0.1946
     32 O          12.7954   82.9993   23.6431 O.2     1  UNL1       -0.4492
     33 C          13.5786   84.0476   23.7180 C.ar    1  UNL1        0.1452
     34 C          13.9892   84.8723   22.6764 C.ar    1  UNL1        0.0375
     35 C          14.8339   85.9533   22.9841 C.ar    1  UNL1        0.0031
     36 C          15.2535   86.1928   24.3209 C.ar    1  UNL1        0.0002
     37 C          14.8137   85.3274   25.3513 C.ar    1  UNL1        0.0028
     38 C          13.9768   84.2651   25.0091 C.ar    1  UNL1        0.0337
     39 C          13.4005   83.2697   25.7728 C.ar    1  UNL1        0.0202
     40 C          13.5595   83.0632   27.2495 C.3     1  UNL1        0.0345
     41 C          16.1448   87.3383   24.6344 C.ar    1  UNL1        0.0000
     42 C          15.8340   88.2200   25.6872 C.ar    1  UNL1        0.0000
     43 C          16.6758   89.2972   25.9808 C.ar    1  UNL1        0.0000
     44 C          17.8341   89.5070   25.2291 C.ar    1  UNL1        0.0000
     45 C          18.1534   88.6396   24.1822 C.ar    1  UNL1        0.0000
     46 C          17.3158   87.5602   23.8846 C.ar    1  UNL1        0.0000
@<TRIPOS>BOND
     1    13    14    1
     2    14     7    1
     3     7     8    1
     4     8     9    1
     5     9    15    1
     6    15    16    1
     7    16    17    1
     8    17    18   ar
     9    18    19   ar
    10    19    20   ar
    11    20    21   ar
    12    21    23    1
    13    23    24    2
    14    23    25    1
    15    21    22   ar
    16     9    10    1
    17    10    11    1
    18    11    12    1
    19    12     1    1
    20     1     2   ar
    21     2     3   ar
    22     3     4   ar
    23     4    27    1
    24    27    28   am
    25    28    29    2
    26    28    31    1
    27    31    32   ar
    28    32    33   ar
    29    33    34   ar
    30    34    35   ar
    31    35    36   ar
    32    36    41    1
    33    41    42   ar
    34    42    43   ar
    35    43    44   ar
    36    44    45   ar
    37    45    46   ar
    38    36    37   ar
    39    37    38   ar
    40    38    39   ar
    41    39    40    1
    42     4     5   ar
    43     5     6   ar
    44    12     7    1
    45     6     1   ar
    46    22    17   ar
    47    39    31   ar
    48    38    33   ar
    49    46    41   ar
    50    25    26    1
    51    27    30    1
@<TRIPOS>MOLECULE
*****
 46 51 0 0 0
SMALL
GASTEIGER

@<TRIPOS>ATOM
      1 C           7.9243   77.2573   27.8987 C.ar    1  UNL1        0.1317
      2 C           8.7734   76.4266   27.1455 C.ar    1  UNL1        0.0356
      3 C           8.3142   75.8669   25.9525 C.ar    1  UNL1        0.0191
      4 C           7.0036   76.1139   25.5152 C.ar    1  UNL1        0.0702
      5 C           6.1850   76.9372   26.2965 C.ar    1  UNL1        0.1149
      6 N           6.6572   77.4795   27.4490 N.ar    1  UNL1       -0.2279
      7 C           7.4469   78.7226   29.9101 C.3     1  UNL1        0.0742
      8 C           8.0347   80.1276   30.2103 C.3     1  UNL1        0.0235
      9 C           9.5822   80.2128   30.1722 C.3     1  UNL1        0.0471
     10 C          10.2427   78.8608   30.4916 C.3     1  UNL1        0.0252
     11 C           9.7816   77.7418   29.5466 C.3     1  UNL1        0.0922
     12 N           8.3835   77.9090   29.1078 N.pl3   1  UNL1       -0.2949
     13 C           5.9108   76.9703   30.9457 C.3     1  UNL1        0.0018
     14 C           7.0367   77.9728   31.1979 C.3     1  UNL1        0.0198
     15 C          10.1100   80.8343   28.8609 C.3     1  UNL1        0.2054
     16 O           9.5352   80.2044   27.7171 O.3     1  UNL1       -0.4755
     17 C          10.0236   80.3323   26.4080 C.ar    1  UNL1        0.1388
     18 C          10.9151   81.3742   26.1305 C.ar    1  UNL1        0.0369
     19 C          11.4308   81.5436   24.8452 C.ar    1  UNL1        0.0033
     20 C          11.0596   80.6716   23.8200 C.ar    1  UNL1        0.0066
     21 C          10.1637   79.6176   24.0727 C.ar    1  UNL1        0.0785
     22 C           9.6484   79.4541   25.3719 C.ar    1  UNL1        0.0433
     23 C           9.7667   78.6913   22.9888 C.2     1  UNL1        0.3381
     24 O          10.3040   77.5547   22.8911 O.2     1  UNL1       -0.2451
     25 O           8.7945   79.0664   22.0650 O.3     1  UNL1       -0.4771
     26 H           8.5157   78.4398   21.3194 H       1  UNL1        0.2954
     27 N           6.5135   75.6083   24.2615 N.am    1  UNL1       -0.2766
     28 C           6.1650   76.4370   23.1443 C.2     1  UNL1        0.2839
     29 O           6.7966   77.5070   22.9330 O.2     1  UNL1       -0.2665
     30 H           6.4534   74.5729   24.1358 H       1  UNL1        0.1553
     31 C           5.1254   76.0220   22.1872 C.ar    1  UNL1        0.1946
     32 O           5.3966   75.7243   20.9287 O.2     1  UNL1       -0.4492
     33 C           4.2729   75.3875   20.3440 C.ar    1  UNL1        0.1452
     34 C           4.0926   74.9920   19.0231 C.ar    1  UNL1        0.0375
     35 C           2.7905   74.6683   18.6029 C.ar    1  UNL1        0.0031
     36 C           1.6940   74.7441   19.5041 C.ar    1  UNL1        0.0002
     37 C           1.9214   75.1533   20.8401 C.ar    1  UNL1        0.0028
     38 C           3.2259   75.4671   21.2217 C.ar    1  UNL1        0.0337
     39 C           3.7514   75.8930   22.4253 C.ar    1  UNL1        0.0202
     40 C           2.9958   76.1576   23.6931 C.3     1  UNL1        0.0345
     41 C           0.3232   74.3987   19.0496 C.ar    1  UNL1        0.0000
     42 C           0.0237   73.0976   18.6028 C.ar    1  UNL1        0.0000
     43 C          -1.2684   72.7749   18.1765 C.ar    1  UNL1        0.0000
     44 C          -2.2737   73.7443   18.1903 C.ar    1  UNL1        0.0000
     45 C          -1.9894   75.0386   18.6311 C.ar    1  UNL1        0.0000
     46 C          -0.6993   75.3667   19.0594 C.ar    1  UNL1        0.0000
@<TRIPOS>BOND
     1    13    14    1
     2    14     7    1
     3     7     8    1
     4     8     9    1
     5     9    15    1
     6    15    16    1
     7    16    17    1
     8    17    18   ar
     9    18    19   ar
    10    19    20   ar
    11    20    21   ar
    12    21    23    1
    13    23    24    2
    14    23    25    1
    15    21    22   ar
    16     9    10    1
    17    10    11    1
    18    11    12    1
    19    12     1    1
    20     1     2   ar
    21     2     3   ar
    22     3     4   ar
    23     4    27    1
    24    27    28   am
    25    28    29    2
    26    28    31    1
    27    31    32   ar
    28    32    33   ar
    29    33    34   ar
    30    34    35   ar
    31    35    36   ar
    32    36    41    1
    33    41    42   ar
    34    42    43   ar
    35    43    44   ar
    36    44    45   ar
    37    45    46   ar
    38    36    37   ar
    39    37    38   ar
    40    38    39   ar
    41    39    40    1
    42     4     5   ar
    43     5     6   ar
    44    12     7    1
    45     6     1   ar
    46    22    17   ar
    47    39    31   ar
    48    38    33   ar
    49    46    41   ar
    50    25    26    1
    51    27    30    1
@<TRIPOS>MOLECULE
*****
 46 51 0 0 0
SMALL
GASTEIGER

@<TRIPOS>ATOM
      1 C           6.7937   75.9868   26.5737 C.ar    1  UNL1        0.1317
      2 C           7.7640   75.2265   25.8964 C.ar    1  UNL1        0.0356
      3 C           8.8634   75.8633   25.3190 C.ar    1  UNL1        0.0191
      4 C           8.9911   77.2589   25.3949 C.ar    1  UNL1        0.0702
      5 C           8.0005   77.9826   26.0682 C.ar    1  UNL1        0.1149
      6 N           6.9445   77.3401   26.6314 N.ar    1  UNL1       -0.2279
      7 C           4.5277   76.1764   27.6916 C.3     1  UNL1        0.0742
      8 C           4.1883   75.9004   29.1810 C.3     1  UNL1        0.0235
      9 C           4.6381   74.5143   29.7101 C.3     1  UNL1        0.0471
     10 C           4.7259   73.4681   28.5858 C.3     1  UNL1        0.0252
     11 C           5.6679   73.8987   27.4523 C.3     1  UNL1        0.0922
     12 N           5.6727   75.3584   27.2414 N.pl3   1  UNL1       -0.2949
     13 C           3.2860   76.9659   25.6089 C.3     1  UNL1        0.0018
     14 C           3.3084   75.9665   26.7652 C.3     1  UNL1        0.0198
     15 C           5.9319   74.5911   30.5494 C.3     1  UNL1        0.2054
     16 O           6.4392   75.9234   30.6048 O.3     1  UNL1       -0.4755
     17 C           7.6740   76.3279   30.0753 C.ar    1  UNL1        0.1388
     18 C           8.4847   75.3628   29.4684 C.ar    1  UNL1        0.0369
     19 C           9.7209   75.7140   28.9251 C.ar    1  UNL1        0.0033
     20 C          10.1621   77.0373   28.9834 C.ar    1  UNL1        0.0066
     21 C           9.3668   78.0258   29.5899 C.ar    1  UNL1        0.0785
     22 C           8.1214   77.6628   30.1352 C.ar    1  UNL1        0.0433
     23 C           9.8308   79.4298   29.6548 C.2     1  UNL1        0.3381
     24 O          10.4776   79.8430   30.6553 O.2     1  UNL1       -0.2451
     25 O           9.5572   80.3092   28.6104 O.3     1  UNL1       -0.4771
     26 H           9.8703   81.2720   28.6451 H       1  UNL1        0.2954
     27 N          10.1395   77.9459   24.8689 N.am    1  UNL1       -0.2766
     28 C          11.2498   78.3783   25.6668 C.2     1  UNL1        0.2839
     29 O          11.6033   77.7044   26.6714 O.2     1  UNL1       -0.2665
     30 H          10.1951   78.0971   23.8366 H       1  UNL1        0.1553
     31 C          12.0395   79.5627   25.2892 C.ar    1  UNL1        0.1946
     32 O          13.3509   79.5217   25.1324 O.2     1  UNL1       -0.4492
     33 C          13.7529   80.7217   24.7912 C.ar    1  UNL1        0.1452
     34 C          15.0531   81.1318   24.5177 C.ar    1  UNL1        0.0375
     35 C          15.2603   82.4765   24.1633 C.ar    1  UNL1        0.0031
     36 C          14.1709   83.3864   24.0879 C.ar    1  UNL1        0.0002
     37 C          12.8631   82.9278   24.3763 C.ar    1  UNL1        0.0028
     38 C          12.6952   81.5875   24.7248 C.ar    1  UNL1        0.0337
     39 C          11.5694   80.8618   25.0596 C.ar    1  UNL1        0.0202
     40 C          10.1639   81.3753   25.1553 C.3     1  UNL1        0.0345
     41 C          14.4014   84.8042   23.7115 C.ar    1  UNL1        0.0000
     42 C          14.9370   85.1323   22.4514 C.ar    1  UNL1        0.0000
     43 C          15.1519   86.4684   22.0993 C.ar    1  UNL1        0.0000
     44 C          14.8364   87.4898   22.9980 C.ar    1  UNL1        0.0000
     45 C          14.3046   87.1774   24.2510 C.ar    1  UNL1        0.0000
     46 C          14.0868   85.8431   24.6082 C.ar    1  UNL1        0.0000
@<TRIPOS>BOND
     1    13    14    1
     2    14     7    1
     3     7     8    1
     4     8     9    1
     5     9    15    1
     6    15    16    1
     7    16    17    1
     8    17    18   ar
     9    18    19   ar
    10    19    20   ar
    11    20    21   ar
    12    21    23    1
    13    23    24    2
    14    23    25    1
    15    21    22   ar
    16     9    10    1
    17    10    11    1
    18    11    12    1
    19    12     1    1
    20     1     2   ar
    21     2     3   ar
    22     3     4   ar
    23     4    27    1
    24    27    28   am
    25    28    29    2
    26    28    31    1
    27    31    32   ar
    28    32    33   ar
    29    33    34   ar
    30    34    35   ar
    31    35    36   ar
    32    36    41    1
    33    41    42   ar
    34    42    43   ar
    35    43    44   ar
    36    44    45   ar
    37    45    46   ar
    38    36    37   ar
    39    37    38   ar
    40    38    39   ar
    41    39    40    1
    42     4     5   ar
    43     5     6   ar
    44    12     7    1
    45     6     1   ar
    46    22    17   ar
    47    39    31   ar
    48    38    33   ar
    49    46    41   ar
    50    25    26    1
    51    27    30    1
