@<TRIPOS>MOLECULE
*****
 47 52 0 0 0
SMALL
GASTEIGER

@<TRIPOS>ATOM
      1 O         -24.0980   51.1466  -11.5868 O.2     1  UNL1       -0.2701
      2 C         -24.0940   51.5882  -10.4056 C.2     1  UNL1        0.2483
      3 N         -23.0091   52.4164   -9.9458 N.am    1  UNL1       -0.2945
      4 H         -22.9093   52.5739   -8.9176 H       1  UNL1        0.1501
      5 C         -25.1966   51.2110   -9.4931 C.ar    1  UNL1        0.0808
      6 C         -26.5278   51.3394   -9.9234 C.ar    1  UNL1        0.0080
      7 C         -27.5847   50.9864   -9.0804 C.ar    1  UNL1        0.0148
      8 C         -27.3318   50.5128   -7.7846 C.ar    1  UNL1        0.0502
      9 C         -26.0033   50.3955   -7.3469 C.ar    1  UNL1        0.0443
     10 C         -24.9426   50.7455   -8.1883 C.ar    1  UNL1        0.1457
     11 F         -23.6760   50.6695   -7.7066 F       1  UNL1       -0.2040
     12 N         -28.4200   50.1391   -6.9190 N.pl3   1  UNL1       -0.3040
     13 C         -29.2581   51.1648   -6.2865 C.3     1  UNL1        0.1122
     14 C         -29.3039   50.9253   -4.7762 C.3     1  UNL1        0.1123
     15 N         -29.5939   49.5153   -4.4664 N.pl3   1  UNL1       -0.3023
     16 C         -29.7422   48.5341   -5.5515 C.3     1  UNL1        0.1123
     17 C         -28.6378   48.7195   -6.6009 C.3     1  UNL1        0.1122
     18 C         -29.9761   49.1557   -3.1254 C.ar    1  UNL1        0.0759
     19 C         -31.2098   49.5848   -2.6049 C.ar    1  UNL1        0.0191
     20 C         -31.5836   49.2476   -1.3010 C.ar    1  UNL1        0.0311
     21 C         -30.7322   48.4770   -0.5057 C.ar    1  UNL1        0.1425
     22 F         -31.0968   48.1496    0.7585 F       1  UNL1       -0.2041
     23 C         -29.5067   48.0397   -1.0152 C.ar    1  UNL1        0.0605
     24 C         -29.1263   48.3746   -2.3192 C.ar    1  UNL1        0.1556
     25 F         -27.9497   47.9051   -2.8030 F       1  UNL1       -0.2028
     26 C         -22.0059   53.0468  -10.8164 C.3     1  UNL1        0.1535
     27 C         -21.6304   54.4272  -10.3238 C.2     1  UNL1        0.2443
     28 O         -22.5019   55.3349  -10.2479 O.2     1  UNL1       -0.2730
     29 N         -20.2658   54.7043   -9.9671 N.am    1  UNL1       -0.2825
     30 H         -19.5288   54.0684  -10.3482 H       1  UNL1        0.1549
     31 C         -19.8382   55.7994   -9.1365 C.ar    1  UNL1        0.0535
     32 C         -20.0498   57.1403   -9.5050 C.ar    1  UNL1        0.0353
     33 C         -19.6594   58.1639   -8.6382 C.ar    1  UNL1        0.1002
     34 N         -19.0879   57.8654   -7.4421 N.ar    1  UNL1       -0.2422
     35 C         -18.8839   56.5797   -7.0526 C.ar    1  UNL1        0.1002
     36 C         -19.2623   55.5261   -7.8877 C.ar    1  UNL1        0.0353
     37 C         -20.7750   52.1343  -11.0028 C.3     1  UNL1        0.0569
     38 C         -19.9170   52.0980   -9.7692 C.ar    1  UNL1       -0.0017
     39 C         -20.3670   52.0252   -8.4541 C.ar    1  UNL1        0.0681
     40 N         -19.3244   51.8782   -7.6052 N.ar    1  UNL1       -0.3523
     41 C         -18.2213   51.8470   -8.3729 C.ar    1  UNL1        0.0563
     42 C         -16.9049   51.6641   -7.9517 C.ar    1  UNL1        0.0170
     43 C         -15.8997   51.6214   -8.9349 C.ar    1  UNL1        0.0015
     44 C         -16.2288   51.7605  -10.3011 C.ar    1  UNL1        0.0001
     45 C         -17.5660   51.9432  -10.6970 C.ar    1  UNL1        0.0012
     46 C         -18.5415   51.9801   -9.6998 C.ar    1  UNL1        0.0131
     47 H         -19.3733   51.7803   -6.5667 H       1  UNL1        0.1660
@<TRIPOS>BOND
     1     1     2    2
     2     2     3   am
     3     3    26    1
     4    26    37    1
     5    37    38    1
     6    38    39   ar
     7    39    40   ar
     8    40    41   ar
     9    41    42   ar
    10    42    43   ar
    11    43    44   ar
    12    44    45   ar
    13    45    46   ar
    14    26    27    1
    15    27    28    2
    16    27    29   am
    17    29    31    1
    18    31    32   ar
    19    32    33   ar
    20    33    34   ar
    21    34    35   ar
    22    35    36   ar
    23     2     5    1
    24     5     6   ar
    25     6     7   ar
    26     7     8   ar
    27     8    12    1
    28    12    13    1
    29    13    14    1
    30    14    15    1
    31    15    18    1
    32    18    19   ar
    33    19    20   ar
    34    20    21   ar
    35    21    22    1
    36    21    23   ar
    37    23    24   ar
    38    24    25    1
    39    15    16    1
    40    16    17    1
    41     8     9   ar
    42     9    10   ar
    43    10    11    1
    44    46    38   ar
    45    36    31   ar
    46    10     5   ar
    47    46    41   ar
    48    17    12    1
    49    24    18   ar
    50     3     4    1
    51    40    47    1
    52    29    30    1
@<TRIPOS>MOLECULE
*****
 47 52 0 0 0
SMALL
GASTEIGER

@<TRIPOS>ATOM
      1 O         -24.8254   51.6470  -11.1017 O.2     1  UNL1       -0.2701
      2 C         -24.3449   51.7301   -9.9388 C.2     1  UNL1        0.2483
      3 N         -22.9845   52.1622   -9.7465 N.am    1  UNL1       -0.2945
      4 H         -22.5426   52.0023   -8.8132 H       1  UNL1        0.1501
      5 C         -25.1849   51.3406   -8.7841 C.ar    1  UNL1        0.0808
      6 C         -24.7208   50.3644   -7.8867 C.ar    1  UNL1        0.0080
      7 C         -25.4952   49.9831   -6.7879 C.ar    1  UNL1        0.0148
      8 C         -26.7560   50.5591   -6.5736 C.ar    1  UNL1        0.0502
      9 C         -27.2283   51.5254   -7.4755 C.ar    1  UNL1        0.0443
     10 C         -26.4555   51.9115   -8.5751 C.ar    1  UNL1        0.1457
     11 F         -26.9728   52.8080   -9.4529 F       1  UNL1       -0.2040
     12 N         -27.5501   50.1742   -5.4359 N.pl3   1  UNL1       -0.3040
     13 C         -26.9125   49.8549   -4.1529 C.3     1  UNL1        0.1122
     14 C         -27.3858   48.4801   -3.6768 C.3     1  UNL1        0.1123
     15 N         -28.8507   48.3587   -3.7641 N.pl3   1  UNL1       -0.3023
     16 C         -29.6538   49.4614   -4.3129 C.3     1  UNL1        0.1123
     17 C         -29.0050   50.0188   -5.5872 C.3     1  UNL1        0.1122
     18 C         -29.5062   47.2707   -3.0857 C.ar    1  UNL1        0.0759
     19 C         -29.9644   46.1591   -3.8148 C.ar    1  UNL1        0.0191
     20 C         -30.6098   45.1035   -3.1646 C.ar    1  UNL1        0.0311
     21 C         -30.8012   45.1452   -1.7815 C.ar    1  UNL1        0.1425
     22 F         -31.4262   44.1199   -1.1521 F       1  UNL1       -0.2041
     23 C         -30.3440   46.2421   -1.0463 C.ar    1  UNL1        0.0605
     24 C         -29.6980   47.3023   -1.6913 C.ar    1  UNL1        0.1556
     25 F         -29.2293   48.3366   -0.9500 F       1  UNL1       -0.2028
     26 C         -22.1510   52.7975  -10.7777 C.3     1  UNL1        0.1535
     27 C         -21.6921   54.1748  -10.3516 C.2     1  UNL1        0.2443
     28 O         -22.4745   55.1600  -10.4333 O.2     1  UNL1       -0.2730
     29 N         -20.3478   54.3575   -9.8768 N.am    1  UNL1       -0.2825
     30 H         -19.6429   53.6288  -10.1317 H       1  UNL1        0.1549
     31 C         -19.8977   55.4749   -9.0890 C.ar    1  UNL1        0.0535
     32 C         -20.1565   56.8049   -9.4670 C.ar    1  UNL1        0.0353
     33 C         -19.7401   57.8508   -8.6400 C.ar    1  UNL1        0.1002
     34 N         -19.0977   57.5843   -7.4726 N.ar    1  UNL1       -0.2422
     35 C         -18.8464   56.3098   -7.0741 C.ar    1  UNL1        0.1002
     36 C         -19.2485   55.2347   -7.8697 C.ar    1  UNL1        0.0353
     37 C         -20.9740   51.8858  -11.1850 C.3     1  UNL1        0.0569
     38 C         -19.9088   51.8450  -10.1254 C.ar    1  UNL1       -0.0017
     39 C         -20.1073   51.6263   -8.7652 C.ar    1  UNL1        0.0681
     40 N         -18.9204   51.5241   -8.1247 N.ar    1  UNL1       -0.3523
     41 C         -17.9747   51.6658   -9.0694 C.ar    1  UNL1        0.0563
     42 C         -16.5931   51.5889   -8.8987 C.ar    1  UNL1        0.0170
     43 C         -15.7808   51.7254  -10.0392 C.ar    1  UNL1        0.0015
     44 C         -16.3607   51.9331  -11.3099 C.ar    1  UNL1        0.0001
     45 C         -17.7581   52.0057  -11.4523 C.ar    1  UNL1        0.0012
     46 C         -18.5382   51.8654  -10.3038 C.ar    1  UNL1        0.0131
     47 H         -18.7733   51.3430   -7.1069 H       1  UNL1        0.1660
@<TRIPOS>BOND
     1     1     2    2
     2     2     3   am
     3     3    26    1
     4    26    37    1
     5    37    38    1
     6    38    39   ar
     7    39    40   ar
     8    40    41   ar
     9    41    42   ar
    10    42    43   ar
    11    43    44   ar
    12    44    45   ar
    13    45    46   ar
    14    26    27    1
    15    27    28    2
    16    27    29   am
    17    29    31    1
    18    31    32   ar
    19    32    33   ar
    20    33    34   ar
    21    34    35   ar
    22    35    36   ar
    23     2     5    1
    24     5     6   ar
    25     6     7   ar
    26     7     8   ar
    27     8    12    1
    28    12    13    1
    29    13    14    1
    30    14    15    1
    31    15    18    1
    32    18    19   ar
    33    19    20   ar
    34    20    21   ar
    35    21    22    1
    36    21    23   ar
    37    23    24   ar
    38    24    25    1
    39    15    16    1
    40    16    17    1
    41     8     9   ar
    42     9    10   ar
    43    10    11    1
    44    46    38   ar
    45    36    31   ar
    46    10     5   ar
    47    46    41   ar
    48    17    12    1
    49    24    18   ar
    50     3     4    1
    51    40    47    1
    52    29    30    1
@<TRIPOS>MOLECULE
*****
 47 52 0 0 0
SMALL
GASTEIGER

@<TRIPOS>ATOM
      1 O         -23.6731   51.2912  -11.3026 O.2     1  UNL1       -0.2701
      2 C         -23.3625   51.6555  -10.1360 C.2     1  UNL1        0.2483
      3 N         -22.0846   52.2710   -9.8856 N.am    1  UNL1       -0.2945
      4 H         -21.7594   52.3491   -8.8957 H       1  UNL1        0.1501
      5 C         -24.3114   51.4054   -9.0280 C.ar    1  UNL1        0.0808
      6 C         -23.9541   50.5234   -7.9945 C.ar    1  UNL1        0.0080
      7 C         -24.8325   50.2746   -6.9368 C.ar    1  UNL1        0.0148
      8 C         -26.0921   50.8907   -6.8996 C.ar    1  UNL1        0.0502
      9 C         -26.4574   51.7625   -7.9373 C.ar    1  UNL1        0.0443
     10 C         -25.5803   52.0161   -8.9965 C.ar    1  UNL1        0.1457
     11 F         -25.9943   52.8219  -10.0071 F       1  UNL1       -0.2040
     12 N         -26.9936   50.6427   -5.8047 N.pl3   1  UNL1       -0.3040
     13 C         -26.5892   50.9314   -4.4235 C.3     1  UNL1        0.1122
     14 C         -26.8022   49.6870   -3.5594 C.3     1  UNL1        0.1123
     15 N         -28.1382   49.1070   -3.7765 N.pl3   1  UNL1       -0.3023
     16 C         -29.0493   49.6968   -4.7685 C.3     1  UNL1        0.1123
     17 C         -28.2980   50.0158   -6.0682 C.3     1  UNL1        0.1122
     18 C         -28.6373   48.1273   -2.8465 C.ar    1  UNL1        0.0759
     19 C         -29.5481   48.5061   -1.8445 C.ar    1  UNL1        0.0191
     20 C         -30.0297   47.5627   -0.9325 C.ar    1  UNL1        0.0311
     21 C         -29.6102   46.2328   -1.0136 C.ar    1  UNL1        0.1425
     22 F         -30.0793   45.3186   -0.1291 F       1  UNL1       -0.2041
     23 C         -28.7104   45.8441   -2.0096 C.ar    1  UNL1        0.0605
     24 C         -28.2239   46.7837   -2.9248 C.ar    1  UNL1        0.1556
     25 F         -27.3821   46.3730   -3.9055 F       1  UNL1       -0.2028
     26 C         -21.1808   52.7837  -10.9258 C.3     1  UNL1        0.1535
     27 C         -20.2910   53.8865  -10.3955 C.2     1  UNL1        0.2443
     28 O         -19.6570   54.6310  -11.1912 O.2     1  UNL1       -0.2730
     29 N         -20.1528   54.0631   -8.9757 N.am    1  UNL1       -0.2825
     30 H         -20.4025   53.2542   -8.3623 H       1  UNL1        0.1549
     31 C         -19.6836   55.2649   -8.3375 C.ar    1  UNL1        0.0535
     32 C         -18.7414   55.2346   -7.2935 C.ar    1  UNL1        0.0353
     33 C         -18.2827   56.4337   -6.7429 C.ar    1  UNL1        0.1002
     34 N         -18.7367   57.6223   -7.2200 N.ar    1  UNL1       -0.2422
     35 C         -19.6358   57.6835   -8.2370 C.ar    1  UNL1        0.1002
     36 C         -20.1179   56.5085   -8.8179 C.ar    1  UNL1        0.0353
     37 C         -20.3746   51.6409  -11.5788 C.3     1  UNL1        0.0569
     38 C         -18.9138   51.7230  -11.2349 C.ar    1  UNL1       -0.0017
     39 C         -17.8790   52.0505  -12.1062 C.ar    1  UNL1        0.0681
     40 N         -16.7106   52.1579  -11.4335 N.ar    1  UNL1       -0.3523
     41 C         -16.9999   51.9115  -10.1441 C.ar    1  UNL1        0.0563
     42 C         -16.1240   51.9512   -9.0601 C.ar    1  UNL1        0.0170
     43 C         -16.6501   51.7001   -7.7798 C.ar    1  UNL1        0.0015
     44 C         -18.0238   51.4184   -7.6134 C.ar    1  UNL1        0.0001
     45 C         -18.8844   51.3856   -8.7255 C.ar    1  UNL1        0.0012
     46 C         -18.3346   51.6400   -9.9825 C.ar    1  UNL1        0.0131
     47 H         -15.7798   52.4097  -11.8343 H       1  UNL1        0.1660
@<TRIPOS>BOND
     1     1     2    2
     2     2     3   am
     3     3    26    1
     4    26    37    1
     5    37    38    1
     6    38    39   ar
     7    39    40   ar
     8    40    41   ar
     9    41    42   ar
    10    42    43   ar
    11    43    44   ar
    12    44    45   ar
    13    45    46   ar
    14    26    27    1
    15    27    28    2
    16    27    29   am
    17    29    31    1
    18    31    32   ar
    19    32    33   ar
    20    33    34   ar
    21    34    35   ar
    22    35    36   ar
    23     2     5    1
    24     5     6   ar
    25     6     7   ar
    26     7     8   ar
    27     8    12    1
    28    12    13    1
    29    13    14    1
    30    14    15    1
    31    15    18    1
    32    18    19   ar
    33    19    20   ar
    34    20    21   ar
    35    21    22    1
    36    21    23   ar
    37    23    24   ar
    38    24    25    1
    39    15    16    1
    40    16    17    1
    41     8     9   ar
    42     9    10   ar
    43    10    11    1
    44    46    38   ar
    45    36    31   ar
    46    10     5   ar
    47    46    41   ar
    48    17    12    1
    49    24    18   ar
    50     3     4    1
    51    40    47    1
    52    29    30    1
@<TRIPOS>MOLECULE
*****
 47 52 0 0 0
SMALL
GASTEIGER

@<TRIPOS>ATOM
      1 O         -26.7807   48.1957   -9.5104 O.2     1  UNL1       -0.2701
      2 C         -26.8498   49.4500   -9.6204 C.2     1  UNL1        0.2483
      3 N         -28.1268   50.0921   -9.7972 N.am    1  UNL1       -0.2945
      4 H         -28.1395   51.0875  -10.1149 H       1  UNL1        0.1501
      5 C         -25.6003   50.2431   -9.6047 C.ar    1  UNL1        0.0808
      6 C         -25.1143   50.7957  -10.8014 C.ar    1  UNL1        0.0080
      7 C         -23.9386   51.5506  -10.8100 C.ar    1  UNL1        0.0148
      8 C         -23.2170   51.7548   -9.6247 C.ar    1  UNL1        0.0502
      9 C         -23.6929   51.1933   -8.4295 C.ar    1  UNL1        0.0443
     10 C         -24.8703   50.4390   -8.4161 C.ar    1  UNL1        0.1457
     11 F         -25.2654   49.8678   -7.2501 F       1  UNL1       -0.2040
     12 N         -22.0110   52.5412   -9.6310 N.pl3   1  UNL1       -0.3040
     13 C         -20.8533   52.1408   -8.8223 C.3     1  UNL1        0.1122
     14 C         -20.4145   53.3144   -7.9443 C.3     1  UNL1        0.1123
     15 N         -20.3084   54.5575   -8.7265 N.pl3   1  UNL1       -0.3023
     16 C         -20.6630   54.5671  -10.1535 C.3     1  UNL1        0.1123
     17 C         -21.9719   53.8012  -10.3891 C.3     1  UNL1        0.1122
     18 C         -19.6247   55.6892   -8.1560 C.ar    1  UNL1        0.0759
     19 C         -18.6456   55.4955   -7.1656 C.ar    1  UNL1        0.0191
     20 C         -17.9843   56.5897   -6.6005 C.ar    1  UNL1        0.0311
     21 C         -18.2910   57.8862   -7.0203 C.ar    1  UNL1        0.1425
     22 F         -17.6478   58.9464   -6.4721 F       1  UNL1       -0.2041
     23 C         -19.2576   58.0897   -8.0086 C.ar    1  UNL1        0.0605
     24 C         -19.9238   56.9989   -8.5774 C.ar    1  UNL1        0.1556
     25 F         -20.8293   57.2209   -9.5622 F       1  UNL1       -0.2028
     26 C         -29.4296   49.4442   -9.5856 C.3     1  UNL1        0.1535
     27 C         -30.1968   50.0938   -8.4548 C.2     1  UNL1        0.2443
     28 O         -31.4372   50.2937   -8.5596 O.2     1  UNL1       -0.2730
     29 N         -29.4963   50.5057   -7.2692 N.am    1  UNL1       -0.2825
     30 H         -28.4621   50.6393   -7.3418 H       1  UNL1        0.1549
     31 C         -30.1146   50.7610   -5.9947 C.ar    1  UNL1        0.0535
     32 C         -30.6409   52.0222   -5.6616 C.ar    1  UNL1        0.0353
     33 C         -31.2749   52.2019   -4.4298 C.ar    1  UNL1        0.1002
     34 N         -31.3911   51.1618   -3.5632 N.ar    1  UNL1       -0.2422
     35 C         -30.9054   49.9287   -3.8630 C.ar    1  UNL1        0.1002
     36 C         -30.2672   49.7050   -5.0850 C.ar    1  UNL1        0.0353
     37 C         -30.2459   49.3894  -10.8944 C.3     1  UNL1        0.0569
     38 C         -30.0811   48.0718  -11.5985 C.ar    1  UNL1       -0.0017
     39 C         -29.9184   46.8288  -10.9939 C.ar    1  UNL1        0.0681
     40 N         -29.9319   45.8458  -11.9228 N.ar    1  UNL1       -0.3523
     41 C         -30.1121   46.4558  -13.1070 C.ar    1  UNL1        0.0563
     42 C         -30.2391   45.8514  -14.3570 C.ar    1  UNL1        0.0170
     43 C         -30.4665   46.6821  -15.4693 C.ar    1  UNL1        0.0015
     44 C         -30.5609   48.0820  -15.3093 C.ar    1  UNL1        0.0001
     45 C         -30.4294   48.6642  -14.0357 C.ar    1  UNL1        0.0012
     46 C         -30.2059   47.8151  -12.9511 C.ar    1  UNL1        0.0131
     47 H         -29.8480   44.8198  -11.7479 H       1  UNL1        0.1660
@<TRIPOS>BOND
     1     1     2    2
     2     2     3   am
     3     3    26    1
     4    26    37    1
     5    37    38    1
     6    38    39   ar
     7    39    40   ar
     8    40    41   ar
     9    41    42   ar
    10    42    43   ar
    11    43    44   ar
    12    44    45   ar
    13    45    46   ar
    14    26    27    1
    15    27    28    2
    16    27    29   am
    17    29    31    1
    18    31    32   ar
    19    32    33   ar
    20    33    34   ar
    21    34    35   ar
    22    35    36   ar
    23     2     5    1
    24     5     6   ar
    25     6     7   ar
    26     7     8   ar
    27     8    12    1
    28    12    13    1
    29    13    14    1
    30    14    15    1
    31    15    18    1
    32    18    19   ar
    33    19    20   ar
    34    20    21   ar
    35    21    22    1
    36    21    23   ar
    37    23    24   ar
    38    24    25    1
    39    15    16    1
    40    16    17    1
    41     8     9   ar
    42     9    10   ar
    43    10    11    1
    44    46    38   ar
    45    36    31   ar
    46    10     5   ar
    47    46    41   ar
    48    17    12    1
    49    24    18   ar
    50     3     4    1
    51    40    47    1
    52    29    30    1
@<TRIPOS>MOLECULE
*****
 47 52 0 0 0
SMALL
GASTEIGER

@<TRIPOS>ATOM
      1 O         -29.0880   50.8590  -10.8692 O.2     1  UNL1       -0.2701
      2 C         -28.3829   51.0571   -9.8427 C.2     1  UNL1        0.2483
      3 N         -28.9797   51.0048   -8.5329 N.am    1  UNL1       -0.2945
      4 H         -28.4397   51.3951   -7.7280 H       1  UNL1        0.1501
      5 C         -26.9482   51.3816  -10.0075 C.ar    1  UNL1        0.0808
      6 C         -26.2294   50.8236  -11.0778 C.ar    1  UNL1        0.0080
      7 C         -24.8751   51.1182  -11.2550 C.ar    1  UNL1        0.0148
      8 C         -24.2088   51.9641  -10.3562 C.ar    1  UNL1        0.0502
      9 C         -24.9208   52.5130   -9.2783 C.ar    1  UNL1        0.0443
     10 C         -26.2769   52.2226   -9.0987 C.ar    1  UNL1        0.1457
     11 F         -26.9139   52.7295   -8.0127 F       1  UNL1       -0.2040
     12 N         -22.8159   52.2763  -10.5440 N.pl3   1  UNL1       -0.3040
     13 C         -21.9455   51.3781  -11.3124 C.3     1  UNL1        0.1122
     14 C         -20.7146   51.0227  -10.4763 C.3     1  UNL1        0.1123
     15 N         -20.1065   52.2247   -9.8815 N.pl3   1  UNL1       -0.3023
     16 C         -20.7243   53.5438  -10.0822 C.3     1  UNL1        0.1123
     17 C         -22.2445   53.4625   -9.8879 C.3     1  UNL1        0.1122
     18 C         -18.7829   52.1372   -9.3209 C.ar    1  UNL1        0.0759
     19 C         -17.6994   51.7493  -10.1287 C.ar    1  UNL1        0.0191
     20 C         -16.4134   51.6531   -9.5895 C.ar    1  UNL1        0.0311
     21 C         -16.1958   51.9461   -8.2411 C.ar    1  UNL1        0.1425
     22 F         -14.9476   51.8536   -7.7199 F       1  UNL1       -0.2041
     23 C         -17.2644   52.3389   -7.4308 C.ar    1  UNL1        0.0605
     24 C         -18.5540   52.4362   -7.9643 C.ar    1  UNL1        0.1556
     25 F         -19.5666   52.8572   -7.1664 F       1  UNL1       -0.2028
     26 C         -30.3132   50.4599   -8.2384 C.3     1  UNL1        0.1535
     27 C         -30.3748   48.9702   -8.4958 C.2     1  UNL1        0.2443
     28 O         -31.4617   48.4265   -8.8308 O.2     1  UNL1       -0.2730
     29 N         -29.1896   48.1738   -8.3302 N.am    1  UNL1       -0.2825
     30 H         -28.4199   48.5704   -7.7445 H       1  UNL1        0.1549
     31 C         -28.9901   46.8667   -8.8988 C.ar    1  UNL1        0.0535
     32 C         -29.8255   45.7807   -8.5805 C.ar    1  UNL1        0.0353
     33 C         -29.6176   44.5456   -9.1994 C.ar    1  UNL1        0.1002
     34 N         -28.6207   44.3975  -10.1108 N.ar    1  UNL1       -0.2422
     35 C         -27.8071   45.4317  -10.4491 C.ar    1  UNL1        0.1002
     36 C         -27.9823   46.6842   -9.8564 C.ar    1  UNL1        0.0353
     37 C         -30.7645   50.8285   -6.8092 C.3     1  UNL1        0.0569
     38 C         -29.9561   50.1079   -5.7669 C.ar    1  UNL1       -0.0017
     39 C         -30.2589   48.8753   -5.1957 C.ar    1  UNL1        0.0681
     40 N         -29.2502   48.4656   -4.3931 N.ar    1  UNL1       -0.3523
     41 C         -28.3092   49.4231   -4.4604 C.ar    1  UNL1        0.0563
     42 C         -27.0620   49.4260   -3.8373 C.ar    1  UNL1        0.0170
     43 C         -26.2081   50.5174   -4.0796 C.ar    1  UNL1        0.0015
     44 C         -26.6149   51.5692   -4.9296 C.ar    1  UNL1        0.0001
     45 C         -27.8791   51.5392   -5.5455 C.ar    1  UNL1        0.0012
     46 C         -28.7037   50.4435   -5.2877 C.ar    1  UNL1        0.0131
     47 H         -29.2038   47.5721   -3.8547 H       1  UNL1        0.1660
@<TRIPOS>BOND
     1     1     2    2
     2     2     3   am
     3     3    26    1
     4    26    37    1
     5    37    38    1
     6    38    39   ar
     7    39    40   ar
     8    40    41   ar
     9    41    42   ar
    10    42    43   ar
    11    43    44   ar
    12    44    45   ar
    13    45    46   ar
    14    26    27    1
    15    27    28    2
    16    27    29   am
    17    29    31    1
    18    31    32   ar
    19    32    33   ar
    20    33    34   ar
    21    34    35   ar
    22    35    36   ar
    23     2     5    1
    24     5     6   ar
    25     6     7   ar
    26     7     8   ar
    27     8    12    1
    28    12    13    1
    29    13    14    1
    30    14    15    1
    31    15    18    1
    32    18    19   ar
    33    19    20   ar
    34    20    21   ar
    35    21    22    1
    36    21    23   ar
    37    23    24   ar
    38    24    25    1
    39    15    16    1
    40    16    17    1
    41     8     9   ar
    42     9    10   ar
    43    10    11    1
    44    46    38   ar
    45    36    31   ar
    46    10     5   ar
    47    46    41   ar
    48    17    12    1
    49    24    18   ar
    50     3     4    1
    51    40    47    1
    52    29    30    1
@<TRIPOS>MOLECULE
*****
 47 52 0 0 0
SMALL
GASTEIGER

@<TRIPOS>ATOM
      1 O         -29.9855   51.5429  -10.6236 O.2     1  UNL1       -0.2701
      2 C         -29.0231   50.8514  -11.0546 C.2     1  UNL1        0.2483
      3 N         -29.2746   49.6657  -11.8327 N.am    1  UNL1       -0.2945
      4 H         -28.4877   48.9936  -11.9771 H       1  UNL1        0.1501
      5 C         -27.6397   51.2544  -10.7161 C.ar    1  UNL1        0.0808
      6 C         -26.6057   51.0284  -11.6399 C.ar    1  UNL1        0.0080
      7 C         -25.2928   51.4034  -11.3433 C.ar    1  UNL1        0.0148
      8 C         -24.9852   51.9973  -10.1104 C.ar    1  UNL1        0.0502
      9 C         -26.0138   52.2127   -9.1799 C.ar    1  UNL1        0.0443
     10 C         -27.3294   51.8411   -9.4738 C.ar    1  UNL1        0.1457
     11 F         -28.2838   52.0163   -8.5248 F       1  UNL1       -0.2040
     12 N         -23.6343   52.3933   -9.8082 N.pl3   1  UNL1       -0.3040
     13 C         -23.0282   53.5520  -10.4750 C.3     1  UNL1        0.1122
     14 C         -21.6957   53.1392  -11.1032 C.3     1  UNL1        0.1123
     15 N         -20.8656   52.3842  -10.1496 N.pl3   1  UNL1       -0.3023
     16 C         -21.3784   52.0712   -8.8075 C.3     1  UNL1        0.1123
     17 C         -22.8293   51.5773   -8.8862 C.3     1  UNL1        0.1122
     18 C         -19.4717   52.1754  -10.4449 C.ar    1  UNL1        0.0759
     19 C         -19.0168   52.2298  -11.7742 C.ar    1  UNL1        0.0191
     20 C         -17.6670   52.0189  -12.0695 C.ar    1  UNL1        0.0311
     21 C         -16.7583   51.7553  -11.0418 C.ar    1  UNL1        0.1425
     22 F         -15.4490   51.5523  -11.3298 F       1  UNL1       -0.2041
     23 C         -17.1984   51.7055   -9.7165 C.ar    1  UNL1        0.0605
     24 C         -18.5483   51.9147   -9.4145 C.ar    1  UNL1        0.1556
     25 F         -18.9427   51.8998   -8.1170 F       1  UNL1       -0.2028
     26 C         -30.5713   49.3107  -12.4279 C.3     1  UNL1        0.1535
     27 C         -30.5247   49.3695  -13.9390 C.2     1  UNL1        0.2443
     28 O         -30.8054   50.4397  -14.5433 O.2     1  UNL1       -0.2730
     29 N         -30.1829   48.1881  -14.6830 N.am    1  UNL1       -0.2825
     30 H         -30.2872   47.2668  -14.2000 H       1  UNL1        0.1549
     31 C         -29.7217   48.1786  -16.0464 C.ar    1  UNL1        0.0535
     32 C         -28.7649   49.0969  -16.5153 C.ar    1  UNL1        0.0353
     33 C         -28.3153   49.0116  -17.8352 C.ar    1  UNL1        0.1002
     34 N         -28.7922   48.0410  -18.6579 N.ar    1  UNL1       -0.2422
     35 C         -29.7059   47.1312  -18.2293 C.ar    1  UNL1        0.1002
     36 C         -30.1796   47.1788  -16.9163 C.ar    1  UNL1        0.0353
     37 C         -31.0700   47.9457  -11.9080 C.3     1  UNL1        0.0569
     38 C         -29.9376   47.0919  -11.4104 C.ar    1  UNL1       -0.0017
     39 C         -29.2659   46.1105  -12.1335 C.ar    1  UNL1        0.0681
     40 N         -28.2190   45.6328  -11.4227 N.ar    1  UNL1       -0.3523
     41 C         -28.2173   46.3109  -10.2621 C.ar    1  UNL1        0.0563
     42 C         -27.2964   46.1998   -9.2211 C.ar    1  UNL1        0.0170
     43 C         -27.4592   47.0422   -8.1062 C.ar    1  UNL1        0.0015
     44 C         -28.5260   47.9661   -8.0573 C.ar    1  UNL1        0.0001
     45 C         -29.4397   48.0568   -9.1228 C.ar    1  UNL1        0.0012
     46 C         -29.2522   47.2096  -10.2157 C.ar    1  UNL1        0.0131
     47 H         -27.5358   44.9050  -11.7293 H       1  UNL1        0.1660
@<TRIPOS>BOND
     1     1     2    2
     2     2     3   am
     3     3    26    1
     4    26    37    1
     5    37    38    1
     6    38    39   ar
     7    39    40   ar
     8    40    41   ar
     9    41    42   ar
    10    42    43   ar
    11    43    44   ar
    12    44    45   ar
    13    45    46   ar
    14    26    27    1
    15    27    28    2
    16    27    29   am
    17    29    31    1
    18    31    32   ar
    19    32    33   ar
    20    33    34   ar
    21    34    35   ar
    22    35    36   ar
    23     2     5    1
    24     5     6   ar
    25     6     7   ar
    26     7     8   ar
    27     8    12    1
    28    12    13    1
    29    13    14    1
    30    14    15    1
    31    15    18    1
    32    18    19   ar
    33    19    20   ar
    34    20    21   ar
    35    21    22    1
    36    21    23   ar
    37    23    24   ar
    38    24    25    1
    39    15    16    1
    40    16    17    1
    41     8     9   ar
    42     9    10   ar
    43    10    11    1
    44    46    38   ar
    45    36    31   ar
    46    10     5   ar
    47    46    41   ar
    48    17    12    1
    49    24    18   ar
    50     3     4    1
    51    40    47    1
    52    29    30    1
@<TRIPOS>MOLECULE
*****
 47 52 0 0 0
SMALL
GASTEIGER

@<TRIPOS>ATOM
      1 O         -29.1201   51.9380  -10.4241 O.2     1  UNL1       -0.2701
      2 C         -28.2651   51.0189  -10.3045 C.2     1  UNL1        0.2483
      3 N         -28.6879   49.6636  -10.0621 N.am    1  UNL1       -0.2945
      4 H         -27.9729   48.9734   -9.7393 H       1  UNL1        0.1501
      5 C         -26.8269   51.3608  -10.3775 C.ar    1  UNL1        0.0808
      6 C         -26.0560   50.8906  -11.4538 C.ar    1  UNL1        0.0080
      7 C         -24.6972   51.2033  -11.5452 C.ar    1  UNL1        0.0148
      8 C         -24.0788   51.9793  -10.5538 C.ar    1  UNL1        0.0502
      9 C         -24.8432   52.4399   -9.4704 C.ar    1  UNL1        0.0443
     10 C         -26.2038   52.1311   -9.3764 C.ar    1  UNL1        0.1457
     11 F         -26.8933   52.5495   -8.2848 F       1  UNL1       -0.2040
     12 N         -22.6811   52.3106  -10.6527 N.pl3   1  UNL1       -0.3040
     13 C         -21.7690   51.4752  -11.4432 C.3     1  UNL1        0.1122
     14 C         -20.5755   51.0646  -10.5786 C.3     1  UNL1        0.1123
     15 N         -20.0051   52.2222   -9.8694 N.pl3   1  UNL1       -0.3023
     16 C         -20.6233   53.5498  -10.0015 C.3     1  UNL1        0.1123
     17 C         -22.1502   53.4477   -9.8853 C.3     1  UNL1        0.1122
     18 C         -18.7084   52.0994   -9.2552 C.ar    1  UNL1        0.0759
     19 C         -17.5902   51.7505  -10.0330 C.ar    1  UNL1        0.0191
     20 C         -16.3300   51.6204   -9.4424 C.ar    1  UNL1        0.0311
     21 C         -16.1731   51.8402   -8.0718 C.ar    1  UNL1        0.1425
     22 F         -14.9499   51.7149   -7.5006 F       1  UNL1       -0.2041
     23 C         -17.2764   52.1938   -7.2907 C.ar    1  UNL1        0.0605
     24 C         -18.5405   52.3247   -7.8756 C.ar    1  UNL1        0.1556
     25 F         -19.5873   52.7068   -7.1028 F       1  UNL1       -0.2028
     26 C         -30.0659   49.1736  -10.2129 C.3     1  UNL1        0.1535
     27 C         -30.1650   48.1137  -11.2880 C.2     1  UNL1        0.2443
     28 O         -30.5155   46.9391  -10.9935 O.2     1  UNL1       -0.2730
     29 N         -29.8311   48.4490  -12.6453 N.am    1  UNL1       -0.2825
     30 H         -29.2386   49.2960  -12.8012 H       1  UNL1        0.1549
     31 C         -30.2401   47.6981  -13.8032 C.ar    1  UNL1        0.0535
     32 C         -30.0032   46.3162  -13.9164 C.ar    1  UNL1        0.0353
     33 C         -30.4655   45.6266  -15.0398 C.ar    1  UNL1        0.1002
     34 N         -31.1487   46.2852  -16.0124 N.ar    1  UNL1       -0.2422
     35 C         -31.4052   47.6167  -15.9240 C.ar    1  UNL1        0.1002
     36 C         -30.9635   48.3434  -14.8162 C.ar    1  UNL1        0.0353
     37 C         -30.6404   48.6962   -8.8622 C.3     1  UNL1        0.0569
     38 C         -30.5370   49.7604   -7.8059 C.ar    1  UNL1       -0.0017
     39 C         -31.5828   50.5329   -7.3091 C.ar    1  UNL1        0.0681
     40 N         -31.1573   51.2973   -6.2776 N.ar    1  UNL1       -0.3523
     41 C         -29.8554   51.0069   -6.1118 C.ar    1  UNL1        0.0563
     42 C         -28.9952   51.5124   -5.1379 C.ar    1  UNL1        0.0170
     43 C         -27.6713   51.0372   -5.1189 C.ar    1  UNL1        0.0015
     44 C         -27.2417   50.0783   -6.0624 C.ar    1  UNL1        0.0001
     45 C         -28.1319   49.5854   -7.0334 C.ar    1  UNL1        0.0012
     46 C         -29.4389   50.0741   -7.0270 C.ar    1  UNL1        0.0131
     47 H         -31.7340   51.9569   -5.7094 H       1  UNL1        0.1660
@<TRIPOS>BOND
     1     1     2    2
     2     2     3   am
     3     3    26    1
     4    26    37    1
     5    37    38    1
     6    38    39   ar
     7    39    40   ar
     8    40    41   ar
     9    41    42   ar
    10    42    43   ar
    11    43    44   ar
    12    44    45   ar
    13    45    46   ar
    14    26    27    1
    15    27    28    2
    16    27    29   am
    17    29    31    1
    18    31    32   ar
    19    32    33   ar
    20    33    34   ar
    21    34    35   ar
    22    35    36   ar
    23     2     5    1
    24     5     6   ar
    25     6     7   ar
    26     7     8   ar
    27     8    12    1
    28    12    13    1
    29    13    14    1
    30    14    15    1
    31    15    18    1
    32    18    19   ar
    33    19    20   ar
    34    20    21   ar
    35    21    22    1
    36    21    23   ar
    37    23    24   ar
    38    24    25    1
    39    15    16    1
    40    16    17    1
    41     8     9   ar
    42     9    10   ar
    43    10    11    1
    44    46    38   ar
    45    36    31   ar
    46    10     5   ar
    47    46    41   ar
    48    17    12    1
    49    24    18   ar
    50     3     4    1
    51    40    47    1
    52    29    30    1
@<TRIPOS>MOLECULE
*****
 47 52 0 0 0
SMALL
GASTEIGER

@<TRIPOS>ATOM
      1 O         -26.7349   48.2131   -9.8742 O.2     1  UNL1       -0.2701
      2 C         -26.8122   49.4709   -9.8289 C.2     1  UNL1        0.2483
      3 N         -28.0979   50.1192   -9.8660 N.am    1  UNL1       -0.2945
      4 H         -28.1282   51.1454  -10.0604 H       1  UNL1        0.1501
      5 C         -25.5654   50.2667   -9.7770 C.ar    1  UNL1        0.0808
      6 C         -24.9973   50.7444  -10.9698 C.ar    1  UNL1        0.0080
      7 C         -23.8224   51.5003  -10.9449 C.ar    1  UNL1        0.0148
      8 C         -23.1836   51.7801   -9.7279 C.ar    1  UNL1        0.0502
      9 C         -23.7415   51.2933   -8.5354 C.ar    1  UNL1        0.0443
     10 C         -24.9184   50.5384   -8.5557 C.ar    1  UNL1        0.1457
     11 F         -25.3937   50.0403   -7.3861 F       1  UNL1       -0.2040
     12 N         -21.9786   52.5676   -9.7006 N.pl3   1  UNL1       -0.3040
     13 C         -20.8407   52.1640   -8.8659 C.3     1  UNL1        0.1122
     14 C         -20.4247   53.3334   -7.9713 C.3     1  UNL1        0.1123
     15 N         -20.3007   54.5807   -8.7441 N.pl3   1  UNL1       -0.3023
     16 C         -20.6203   54.5975  -10.1793 C.3     1  UNL1        0.1123
     17 C         -21.9223   53.8317  -10.4509 C.3     1  UNL1        0.1122
     18 C         -19.6323   55.7100   -8.1512 C.ar    1  UNL1        0.0759
     19 C         -18.6692   55.5112   -7.1461 C.ar    1  UNL1        0.0191
     20 C         -18.0230   56.6029   -6.5593 C.ar    1  UNL1        0.0311
     21 C         -18.3288   57.9021   -6.9717 C.ar    1  UNL1        0.1425
     22 F         -17.7002   58.9599   -6.4024 F       1  UNL1       -0.2041
     23 C         -19.2796   58.1106   -7.9743 C.ar    1  UNL1        0.0605
     24 C         -19.9306   57.0222   -8.5649 C.ar    1  UNL1        0.1556
     25 F         -20.8204   57.2496   -9.5627 F       1  UNL1       -0.2028
     26 C         -29.3873   49.4398   -9.6723 C.3     1  UNL1        0.1535
     27 C         -29.7049   49.2571   -8.2044 C.2     1  UNL1        0.2443
     28 O         -30.6521   48.5059   -7.8467 O.2     1  UNL1       -0.2730
     29 N         -28.9349   49.9672   -7.2200 N.am    1  UNL1       -0.2825
     30 H         -28.4060   50.8110   -7.5380 H       1  UNL1        0.1549
     31 C         -28.8494   49.6111   -5.8280 C.ar    1  UNL1        0.0535
     32 C         -29.9070   49.8499   -4.9319 C.ar    1  UNL1        0.0353
     33 C         -29.7906   49.4390   -3.6018 C.ar    1  UNL1        0.1002
     34 N         -28.6663   48.8036   -3.1791 N.ar    1  UNL1       -0.2422
     35 C         -27.6343   48.5463   -4.0247 C.ar    1  UNL1        0.1002
     36 C         -27.7110   48.9374   -5.3633 C.ar    1  UNL1        0.0353
     37 C         -30.5195   50.1620  -10.4331 C.3     1  UNL1        0.0569
     38 C         -30.5691   49.7519  -11.8782 C.ar    1  UNL1       -0.0017
     39 C         -30.6145   50.6059  -12.9763 C.ar    1  UNL1        0.0681
     40 N         -30.5182   49.9019  -14.1271 N.ar    1  UNL1       -0.3523
     41 C         -30.4020   48.6125  -13.7656 C.ar    1  UNL1        0.0563
     42 C         -30.2291   47.5128  -14.6051 C.ar    1  UNL1        0.0170
     43 C         -30.0854   46.2466  -14.0093 C.ar    1  UNL1        0.0015
     44 C         -30.1170   46.1093  -12.6042 C.ar    1  UNL1        0.0001
     45 C         -30.2921   47.2368  -11.7817 C.ar    1  UNL1        0.0012
     46 C         -30.4306   48.4796  -12.4008 C.ar    1  UNL1        0.0131
     47 H         -30.5077   50.2886  -15.0971 H       1  UNL1        0.1660
@<TRIPOS>BOND
     1     1     2    2
     2     2     3   am
     3     3    26    1
     4    26    37    1
     5    37    38    1
     6    38    39   ar
     7    39    40   ar
     8    40    41   ar
     9    41    42   ar
    10    42    43   ar
    11    43    44   ar
    12    44    45   ar
    13    45    46   ar
    14    26    27    1
    15    27    28    2
    16    27    29   am
    17    29    31    1
    18    31    32   ar
    19    32    33   ar
    20    33    34   ar
    21    34    35   ar
    22    35    36   ar
    23     2     5    1
    24     5     6   ar
    25     6     7   ar
    26     7     8   ar
    27     8    12    1
    28    12    13    1
    29    13    14    1
    30    14    15    1
    31    15    18    1
    32    18    19   ar
    33    19    20   ar
    34    20    21   ar
    35    21    22    1
    36    21    23   ar
    37    23    24   ar
    38    24    25    1
    39    15    16    1
    40    16    17    1
    41     8     9   ar
    42     9    10   ar
    43    10    11    1
    44    46    38   ar
    45    36    31   ar
    46    10     5   ar
    47    46    41   ar
    48    17    12    1
    49    24    18   ar
    50     3     4    1
    51    40    47    1
    52    29    30    1
@<TRIPOS>MOLECULE
*****
 47 52 0 0 0
SMALL
GASTEIGER

@<TRIPOS>ATOM
      1 O         -27.7224   48.9791  -10.4632 O.2     1  UNL1       -0.2701
      2 C         -27.6719   50.2295  -10.3077 C.2     1  UNL1        0.2483
      3 N         -28.8863   51.0018  -10.2510 N.am    1  UNL1       -0.2945
      4 H         -28.8174   52.0391  -10.3555 H       1  UNL1        0.1501
      5 C         -26.3505   50.8910  -10.2248 C.ar    1  UNL1        0.0808
      6 C         -25.3634   50.5908  -11.1783 C.ar    1  UNL1        0.0080
      7 C         -24.1099   51.2054  -11.1216 C.ar    1  UNL1        0.0148
      8 C         -23.8132   52.1207  -10.1010 C.ar    1  UNL1        0.0502
      9 C         -24.7928   52.4133   -9.1392 C.ar    1  UNL1        0.0443
     10 C         -26.0493   51.8021   -9.1937 C.ar    1  UNL1        0.1457
     11 F         -26.9480   52.0709   -8.2128 F       1  UNL1       -0.2040
     12 N         -22.5253   52.7622  -10.0480 N.pl3   1  UNL1       -0.3040
     13 C         -21.4230   52.1639   -9.2854 C.3     1  UNL1        0.1122
     14 C         -20.8555   53.1993   -8.3124 C.3     1  UNL1        0.1123
     15 N         -20.6061   54.4853   -8.9849 N.pl3   1  UNL1       -0.3023
     16 C         -20.9535   54.6590  -10.4031 C.3     1  UNL1        0.1123
     17 C         -22.3406   54.0706  -10.6946 C.3     1  UNL1        0.1122
     18 C         -19.7992   55.4780   -8.3236 C.ar    1  UNL1        0.0759
     19 C         -18.8006   55.0841   -7.4155 C.ar    1  UNL1        0.0191
     20 C         -18.0197   56.0421   -6.7629 C.ar    1  UNL1        0.0311
     21 C         -18.2253   57.4011   -7.0123 C.ar    1  UNL1        0.1425
     22 F         -17.4661   58.3292   -6.3794 F       1  UNL1       -0.2041
     23 C         -19.2106   57.8034   -7.9178 C.ar    1  UNL1        0.0605
     24 C         -19.9962   56.8495   -8.5736 C.ar    1  UNL1        0.1556
     25 F         -20.9189   57.2645   -9.4766 F       1  UNL1       -0.2028
     26 C         -30.2332   50.4380  -10.0781 C.3     1  UNL1        0.1535
     27 C         -30.6922   49.7033  -11.3185 C.2     1  UNL1        0.2443
     28 O         -31.5797   50.2023  -12.0621 O.2     1  UNL1       -0.2730
     29 N         -30.1275   48.4187  -11.6298 N.am    1  UNL1       -0.2825
     30 H         -29.6681   47.8924  -10.8522 H       1  UNL1        0.1549
     31 C         -30.1599   47.7980  -12.9282 C.ar    1  UNL1        0.0535
     32 C         -30.3071   46.4080  -13.0856 C.ar    1  UNL1        0.0353
     33 C         -30.3824   45.8632  -14.3697 C.ar    1  UNL1        0.1002
     34 N         -30.3239   46.6725  -15.4597 N.ar    1  UNL1       -0.2422
     35 C         -30.1964   48.0198  -15.3389 C.ar    1  UNL1        0.1002
     36 C         -30.1206   48.6059  -14.0734 C.ar    1  UNL1        0.0353
     37 C         -30.3132   49.5597   -8.8115 C.3     1  UNL1        0.0569
     38 C         -29.8722   50.3091   -7.5855 C.ar    1  UNL1       -0.0017
     39 C         -30.6094   51.2670   -6.8954 C.ar    1  UNL1        0.0681
     40 N         -29.9622   51.6394   -5.7676 N.ar    1  UNL1       -0.3523
     41 C         -28.8285   50.9180   -5.7340 C.ar    1  UNL1        0.0563
     42 C         -27.8553   50.9213   -4.7356 C.ar    1  UNL1        0.0170
     43 C         -26.7606   50.0499   -4.8813 C.ar    1  UNL1        0.0015
     44 C         -26.6642   49.2043   -6.0081 C.ar    1  UNL1        0.0001
     45 C         -27.6617   49.2218   -6.9997 C.ar    1  UNL1        0.0012
     46 C         -28.7361   50.0954   -6.8275 C.ar    1  UNL1        0.0131
     47 H         -30.2937   52.3273   -5.0554 H       1  UNL1        0.1660
@<TRIPOS>BOND
     1     1     2    2
     2     2     3   am
     3     3    26    1
     4    26    37    1
     5    37    38    1
     6    38    39   ar
     7    39    40   ar
     8    40    41   ar
     9    41    42   ar
    10    42    43   ar
    11    43    44   ar
    12    44    45   ar
    13    45    46   ar
    14    26    27    1
    15    27    28    2
    16    27    29   am
    17    29    31    1
    18    31    32   ar
    19    32    33   ar
    20    33    34   ar
    21    34    35   ar
    22    35    36   ar
    23     2     5    1
    24     5     6   ar
    25     6     7   ar
    26     7     8   ar
    27     8    12    1
    28    12    13    1
    29    13    14    1
    30    14    15    1
    31    15    18    1
    32    18    19   ar
    33    19    20   ar
    34    20    21   ar
    35    21    22    1
    36    21    23   ar
    37    23    24   ar
    38    24    25    1
    39    15    16    1
    40    16    17    1
    41     8     9   ar
    42     9    10   ar
    43    10    11    1
    44    46    38   ar
    45    36    31   ar
    46    10     5   ar
    47    46    41   ar
    48    17    12    1
    49    24    18   ar
    50     3     4    1
    51    40    47    1
    52    29    30    1
