@<TRIPOS>MOLECULE
*****
 36 40 0 0 0
SMALL
GASTEIGER

@<TRIPOS>ATOM
      1 C         -29.2461   51.0705  -10.9124 C.ar    1  UNL1       -0.0050
      2 C         -30.3612   50.7740  -10.0982 C.ar    1  UNL1       -0.0015
      3 C         -30.2175   50.6339   -8.7005 C.ar    1  UNL1        0.0158
      4 C         -28.9594   50.8100   -8.0860 C.ar    1  UNL1        0.0672
      5 C         -27.8756   51.1093   -8.9176 C.ar    1  UNL1        0.1113
      6 N         -26.5909   51.2851   -8.5621 N.ar    1  UNL1       -0.2258
      7 C         -25.9678   51.5369   -9.7437 C.ar    1  UNL1        0.1405
      8 N         -26.8150   51.5147  -10.8065 N.ar    1  UNL1       -0.3376
      9 C         -28.0126   51.2379  -10.2684 C.ar    1  UNL1        0.0727
     10 H         -26.5999   51.6677  -11.8152 H       1  UNL1        0.1674
     11 N         -28.7965   50.6611   -6.6646 N.pl3   1  UNL1       -0.3034
     12 C         -29.5113   49.5929   -5.9546 C.3     1  UNL1        0.1082
     13 C         -28.8925   49.3538   -4.5736 C.3     1  UNL1        0.0941
     14 N         -27.4262   49.4618   -4.6823 N.3     1  UNL1       -0.2646
     15 C         -26.9710   50.8363   -5.0009 C.3     1  UNL1        0.0941
     16 C         -27.9650   51.5983   -5.9000 C.3     1  UNL1        0.1082
     17 C         -26.7074   48.8681   -3.5346 C.3     1  UNL1        0.1203
     18 C         -26.2803   47.4422   -3.7652 C.ar    1  UNL1        0.0934
     19 C         -26.0487   46.8526   -4.9898 C.ar    1  UNL1        0.0896
     20 N         -25.7085   45.5731   -4.7756 N.ar    1  UNL1       -0.3398
     21 C         -25.7300   45.4191   -3.4372 C.ar    1  UNL1        0.1172
     22 C         -25.4705   44.1184   -2.7532 C.3     1  UNL1        0.0716
     23 N         -26.0879   46.5423   -2.7793 N.ar    1  UNL1       -0.2340
     24 H         -25.4849   44.8514   -5.4962 H       1  UNL1        0.1671
     25 C         -24.5090   51.8021   -9.8345 C.ar    1  UNL1        0.0339
     26 C         -23.6463   51.5512   -8.7559 C.ar    1  UNL1        0.0027
     27 C         -22.2773   51.8077   -8.8645 C.ar    1  UNL1       -0.0042
     28 C         -21.7197   52.3234  -10.0541 C.ar    1  UNL1       -0.0228
     29 C         -22.5970   52.5715  -11.1342 C.ar    1  UNL1       -0.0042
     30 C         -23.9659   52.3141  -11.0233 C.ar    1  UNL1        0.0027
     31 C         -20.2023   52.5922  -10.1313 C.3     1  UNL1        0.0189
     32 C         -19.4719   52.3391   -8.7904 C.3     1  UNL1        0.0044
     33 C         -19.5687   51.6661  -11.1922 C.3     1  UNL1        0.0044
     34 C         -19.9599   54.0653  -10.5261 C.3     1  UNL1        0.0044
     35 C         -30.3537   50.1965  -12.9696 C.3     1  UNL1        0.0051
     36 C         -29.4009   51.2423  -12.4002 C.3     1  UNL1        0.0279
@<TRIPOS>BOND
     1    35    36    1
     2    36     1    1
     3     1     2   ar
     4     2     3   ar
     5     3     4   ar
     6     4    11    1
     7    11    12    1
     8    12    13    1
     9    13    14    1
    10    14    17    1
    11    17    18    1
    12    18    19   ar
    13    19    20   ar
    14    20    21   ar
    15    21    22    1
    16    21    23   ar
    17    14    15    1
    18    15    16    1
    19     4     5   ar
    20     5     6   ar
    21     6     7   ar
    22     7    25    1
    23    25    26   ar
    24    26    27   ar
    25    27    28   ar
    26    28    31    1
    27    31    32    1
    28    31    33    1
    29    31    34    1
    30    28    29   ar
    31    29    30   ar
    32     7     8   ar
    33     8     9   ar
    34     9     1   ar
    35    16    11    1
    36     9     5   ar
    37    23    18   ar
    38    30    25   ar
    39    20    24    1
    40     8    10    1
@<TRIPOS>MOLECULE
*****
 36 40 0 0 0
SMALL
GASTEIGER

@<TRIPOS>ATOM
      1 C         -29.4426   51.2468  -10.5239 C.ar    1  UNL1       -0.0050
      2 C         -30.4436   50.5117   -9.8517 C.ar    1  UNL1       -0.0015
      3 C         -30.1146   49.6675   -8.7687 C.ar    1  UNL1        0.0158
      4 C         -28.7806   49.5587   -8.3214 C.ar    1  UNL1        0.0672
      5 C         -27.8129   50.3037   -9.0028 C.ar    1  UNL1        0.1113
      6 N         -26.4878   50.3317   -8.7769 N.ar    1  UNL1       -0.2258
      7 C         -26.0251   51.1965   -9.7181 C.ar    1  UNL1        0.1405
      8 N         -27.0093   51.6918  -10.5143 N.ar    1  UNL1       -0.3376
      9 C         -28.1291   51.1139  -10.0532 C.ar    1  UNL1        0.0727
     10 H         -26.9297   52.3613  -11.3097 H       1  UNL1        0.1674
     11 N         -28.4297   48.6955   -7.2256 N.pl3   1  UNL1       -0.3034
     12 C         -28.4703   49.2071   -5.8498 C.3     1  UNL1        0.1082
     13 C         -28.4719   48.0518   -4.8435 C.3     1  UNL1        0.0941
     14 N         -29.3195   46.9646   -5.3662 N.3     1  UNL1       -0.2646
     15 C         -28.7566   46.3274   -6.5807 C.3     1  UNL1        0.0941
     16 C         -27.9770   47.3202   -7.4660 C.3     1  UNL1        0.1082
     17 C         -29.7195   45.9844   -4.3338 C.3     1  UNL1        0.1203
     18 C         -28.6176   45.6508   -3.3626 C.ar    1  UNL1        0.0934
     19 C         -28.5746   46.0063   -2.0311 C.ar    1  UNL1        0.0896
     20 N         -27.4265   45.5426   -1.5158 N.ar    1  UNL1       -0.3398
     21 C         -26.8092   44.9119   -2.5339 C.ar    1  UNL1        0.1172
     22 C         -25.4562   44.2926   -2.4203 C.3     1  UNL1        0.0716
     23 N         -27.5035   44.9651   -3.6904 N.ar    1  UNL1       -0.2340
     24 H         -27.0840   45.6569   -0.5360 H       1  UNL1        0.1671
     25 C         -24.5861   51.5432   -9.8429 C.ar    1  UNL1        0.0339
     26 C         -24.0395   51.9939  -11.0548 C.ar    1  UNL1        0.0027
     27 C         -22.6831   52.3150  -11.1485 C.ar    1  UNL1       -0.0042
     28 C         -21.8231   52.1982  -10.0354 C.ar    1  UNL1       -0.0228
     29 C         -22.3838   51.7446   -8.8198 C.ar    1  UNL1       -0.0042
     30 C         -23.7408   51.4241   -8.7285 C.ar    1  UNL1        0.0027
     31 C         -20.3312   52.5634  -10.1825 C.3     1  UNL1        0.0189
     32 C         -20.1049   54.0383  -10.5939 C.3     1  UNL1        0.0044
     33 C         -19.6104   52.3367   -8.8358 C.3     1  UNL1        0.0044
     34 C         -19.6871   51.6707  -11.2656 C.3     1  UNL1        0.0044
     35 C         -31.2035   51.8810  -12.1730 C.3     1  UNL1        0.0051
     36 C         -29.7939   52.1647  -11.6646 C.3     1  UNL1        0.0279
@<TRIPOS>BOND
     1    35    36    1
     2    36     1    1
     3     1     2   ar
     4     2     3   ar
     5     3     4   ar
     6     4    11    1
     7    11    12    1
     8    12    13    1
     9    13    14    1
    10    14    17    1
    11    17    18    1
    12    18    19   ar
    13    19    20   ar
    14    20    21   ar
    15    21    22    1
    16    21    23   ar
    17    14    15    1
    18    15    16    1
    19     4     5   ar
    20     5     6   ar
    21     6     7   ar
    22     7    25    1
    23    25    26   ar
    24    26    27   ar
    25    27    28   ar
    26    28    31    1
    27    31    32    1
    28    31    33    1
    29    31    34    1
    30    28    29   ar
    31    29    30   ar
    32     7     8   ar
    33     8     9   ar
    34     9     1   ar
    35    16    11    1
    36     9     5   ar
    37    23    18   ar
    38    30    25   ar
    39    20    24    1
    40     8    10    1
@<TRIPOS>MOLECULE
*****
 36 40 0 0 0
SMALL
GASTEIGER

@<TRIPOS>ATOM
      1 C         -29.7262   51.2207  -10.9612 C.ar    1  UNL1       -0.0050
      2 C         -30.7990   50.6545  -10.2381 C.ar    1  UNL1       -0.0015
      3 C         -30.5813   50.0437   -8.9838 C.ar    1  UNL1        0.0158
      4 C         -29.2896   50.0069   -8.4167 C.ar    1  UNL1        0.0672
      5 C         -28.2490   50.5815   -9.1534 C.ar    1  UNL1        0.1113
      6 N         -26.9448   50.6336   -8.8307 N.ar    1  UNL1       -0.2258
      7 C         -26.3838   51.2805   -9.8864 C.ar    1  UNL1        0.1405
      8 N         -27.2877   51.6189  -10.8437 N.ar    1  UNL1       -0.3376
      9 C         -28.4576   51.1654  -10.3681 C.ar    1  UNL1        0.0727
     10 H         -27.1259   52.1107  -11.7487 H       1  UNL1        0.1674
     11 N         -29.0515   49.3798   -7.1442 N.pl3   1  UNL1       -0.3034
     12 C         -28.2059   48.1819   -7.0662 C.3     1  UNL1        0.1082
     13 C         -27.7535   47.9328   -5.6238 C.3     1  UNL1        0.0941
     14 N         -27.4451   49.2275   -4.9897 N.3     1  UNL1       -0.2646
     15 C         -28.6444   50.0791   -4.8041 C.3     1  UNL1        0.0941
     16 C         -29.6876   49.8890   -5.9234 C.3     1  UNL1        0.1082
     17 C         -26.6327   49.1004   -3.7608 C.3     1  UNL1        0.1203
     18 C         -26.7452   47.7502   -3.1029 C.ar    1  UNL1        0.0934
     19 C         -27.7636   47.3353   -2.2711 C.ar    1  UNL1        0.0896
     20 N         -27.4907   46.0833   -1.8752 N.ar    1  UNL1       -0.3398
     21 C         -26.3290   45.7650   -2.4791 C.ar    1  UNL1        0.1172
     22 C         -25.6181   44.4701   -2.2674 C.3     1  UNL1        0.0716
     23 N         -25.8314   46.7671   -3.2345 N.ar    1  UNL1       -0.2340
     24 H         -28.0561   45.4893   -1.2289 H       1  UNL1        0.1671
     25 C         -24.9289   51.5712   -9.9611 C.ar    1  UNL1        0.0339
     26 C         -24.3209   51.9843  -11.1570 C.ar    1  UNL1        0.0027
     27 C         -22.9506   52.2528  -11.2034 C.ar    1  UNL1       -0.0042
     28 C         -22.1378   52.1192  -10.0573 C.ar    1  UNL1       -0.0228
     29 C         -22.7603   51.7038   -8.8582 C.ar    1  UNL1       -0.0042
     30 C         -24.1309   51.4358   -8.8142 C.ar    1  UNL1        0.0027
     31 C         -20.6287   52.4260  -10.1526 C.3     1  UNL1        0.0189
     32 C         -19.9082   52.3600   -8.7843 C.3     1  UNL1        0.0044
     33 C         -19.9527   51.4001  -11.0881 C.3     1  UNL1        0.0044
     34 C         -20.4272   53.8480  -10.7201 C.3     1  UNL1        0.0044
     35 C         -30.4863   53.3099  -12.0926 C.3     1  UNL1        0.0051
     36 C         -29.9595   51.8922  -12.2886 C.3     1  UNL1        0.0279
@<TRIPOS>BOND
     1    35    36    1
     2    36     1    1
     3     1     2   ar
     4     2     3   ar
     5     3     4   ar
     6     4    11    1
     7    11    12    1
     8    12    13    1
     9    13    14    1
    10    14    17    1
    11    17    18    1
    12    18    19   ar
    13    19    20   ar
    14    20    21   ar
    15    21    22    1
    16    21    23   ar
    17    14    15    1
    18    15    16    1
    19     4     5   ar
    20     5     6   ar
    21     6     7   ar
    22     7    25    1
    23    25    26   ar
    24    26    27   ar
    25    27    28   ar
    26    28    31    1
    27    31    32    1
    28    31    33    1
    29    31    34    1
    30    28    29   ar
    31    29    30   ar
    32     7     8   ar
    33     8     9   ar
    34     9     1   ar
    35    16    11    1
    36     9     5   ar
    37    23    18   ar
    38    30    25   ar
    39    20    24    1
    40     8    10    1
@<TRIPOS>MOLECULE
*****
 36 40 0 0 0
SMALL
GASTEIGER

@<TRIPOS>ATOM
      1 C         -29.2208   50.9404   -9.8472 C.ar    1  UNL1       -0.0050
      2 C         -30.1344   50.1735   -9.0912 C.ar    1  UNL1       -0.0015
      3 C         -29.6845   49.3436   -8.0411 C.ar    1  UNL1        0.0158
      4 C         -28.3139   49.2812   -7.7110 C.ar    1  UNL1        0.0672
      5 C         -27.4346   50.0569   -8.4731 C.ar    1  UNL1        0.1113
      6 N         -26.0966   50.1304   -8.3628 N.ar    1  UNL1       -0.2258
      7 C         -25.7468   51.0080   -9.3401 C.ar    1  UNL1        0.1405
      8 N         -26.8123   51.4677  -10.0479 N.ar    1  UNL1       -0.3376
      9 C         -27.8678   50.8534   -9.4920 C.ar    1  UNL1        0.0727
     10 H         -26.8247   52.1375  -10.8469 H       1  UNL1        0.1674
     11 N         -27.8403   48.4332   -6.6501 N.pl3   1  UNL1       -0.3034
     12 C         -27.2428   49.0296   -5.4486 C.3     1  UNL1        0.1082
     13 C         -27.1953   48.0104   -4.3057 C.3     1  UNL1        0.0941
     14 N         -28.4349   47.2125   -4.3258 N.3     1  UNL1       -0.2646
     15 C         -28.5423   46.3436   -5.5223 C.3     1  UNL1        0.0941
     16 C         -27.8956   46.9717   -6.7731 C.3     1  UNL1        0.1082
     17 C         -28.6863   46.4870   -3.0622 C.3     1  UNL1        0.1203
     18 C         -29.3198   47.3404   -1.9949 C.ar    1  UNL1        0.0934
     19 C         -30.1266   48.4382   -2.2066 C.ar    1  UNL1        0.0896
     20 N         -30.4718   48.9353   -1.0097 N.ar    1  UNL1       -0.3398
     21 C         -29.8814   48.1285   -0.1063 C.ar    1  UNL1        0.1172
     22 C         -29.9507   48.3521    1.3675 C.3     1  UNL1        0.0716
     23 N         -29.1542   47.1414   -0.6713 N.ar    1  UNL1       -0.2340
     24 H         -31.0642   49.7745   -0.8230 H       1  UNL1        0.1671
     25 C         -24.3365   51.4030   -9.5887 C.ar    1  UNL1        0.0339
     26 C         -23.8789   51.7290  -10.8752 C.ar    1  UNL1        0.0027
     27 C         -22.5480   52.0985  -11.0851 C.ar    1  UNL1       -0.0042
     28 C         -21.6259   52.1565  -10.0182 C.ar    1  UNL1       -0.0228
     29 C         -22.0972   51.8274   -8.7270 C.ar    1  UNL1       -0.0042
     30 C         -23.4288   51.4582   -8.5195 C.ar    1  UNL1        0.0027
     31 C         -20.1650   52.5696  -10.2943 C.3     1  UNL1        0.0189
     32 C         -19.5370   51.8161  -11.4916 C.3     1  UNL1        0.0044
     33 C         -20.1078   54.0803  -10.6093 C.3     1  UNL1        0.0044
     34 C         -19.3019   52.2724   -9.0488 C.3     1  UNL1        0.0044
     35 C         -30.6286   51.0912  -11.9010 C.3     1  UNL1        0.0051
     36 C         -29.7005   51.8431  -10.9527 C.3     1  UNL1        0.0279
@<TRIPOS>BOND
     1    35    36    1
     2    36     1    1
     3     1     2   ar
     4     2     3   ar
     5     3     4   ar
     6     4    11    1
     7    11    12    1
     8    12    13    1
     9    13    14    1
    10    14    17    1
    11    17    18    1
    12    18    19   ar
    13    19    20   ar
    14    20    21   ar
    15    21    22    1
    16    21    23   ar
    17    14    15    1
    18    15    16    1
    19     4     5   ar
    20     5     6   ar
    21     6     7   ar
    22     7    25    1
    23    25    26   ar
    24    26    27   ar
    25    27    28   ar
    26    28    31    1
    27    31    32    1
    28    31    33    1
    29    31    34    1
    30    28    29   ar
    31    29    30   ar
    32     7     8   ar
    33     8     9   ar
    34     9     1   ar
    35    16    11    1
    36     9     5   ar
    37    23    18   ar
    38    30    25   ar
    39    20    24    1
    40     8    10    1
@<TRIPOS>MOLECULE
*****
 36 40 0 0 0
SMALL
GASTEIGER

@<TRIPOS>ATOM
      1 C         -29.2584   51.1624  -10.7813 C.ar    1  UNL1       -0.0050
      2 C         -30.1924   50.1784  -10.3891 C.ar    1  UNL1       -0.0015
      3 C         -29.7791   49.0391   -9.6646 C.ar    1  UNL1        0.0158
      4 C         -28.4266   48.8718   -9.2981 C.ar    1  UNL1        0.0672
      5 C         -27.5268   49.8660   -9.6951 C.ar    1  UNL1        0.1113
      6 N         -26.1985   49.9019   -9.4896 N.ar    1  UNL1       -0.2258
      7 C         -25.8184   51.0640  -10.0836 C.ar    1  UNL1        0.1405
      8 N         -26.8557   51.7355  -10.6500 N.ar    1  UNL1       -0.3376
      9 C         -27.9243   50.9632  -10.4008 C.ar    1  UNL1        0.0727
     10 H         -26.8416   52.6397  -11.1691 H       1  UNL1        0.1674
     11 N         -27.9898   47.7117   -8.5684 N.pl3   1  UNL1       -0.3034
     12 C         -26.6302   47.6646   -8.0158 C.3     1  UNL1        0.1082
     13 C         -26.5159   46.5655   -6.9546 C.3     1  UNL1        0.0941
     14 N         -27.7542   46.5434   -6.1548 N.3     1  UNL1       -0.2646
     15 C         -28.9375   46.1096   -6.9356 C.3     1  UNL1        0.0941
     16 C         -28.8676   46.5458   -8.4128 C.3     1  UNL1        0.1082
     17 C         -27.6123   45.8195   -4.8733 C.3     1  UNL1        0.1203
     18 C         -26.6797   46.4943   -3.9019 C.ar    1  UNL1        0.0934
     19 C         -25.6497   45.8897   -3.2129 C.ar    1  UNL1        0.0896
     20 N         -25.0706   46.8172   -2.4363 N.ar    1  UNL1       -0.3398
     21 C         -25.7485   47.9564   -2.6778 C.ar    1  UNL1        0.1172
     22 C         -25.4751   49.2430   -1.9730 C.3     1  UNL1        0.0716
     23 N         -26.7535   47.7981   -3.5651 N.ar    1  UNL1       -0.2340
     24 H         -24.2711   46.6790   -1.7792 H       1  UNL1        0.1671
     25 C         -24.4065   51.5258  -10.0999 C.ar    1  UNL1        0.0339
     26 C         -23.8025   52.0068  -11.2723 C.ar    1  UNL1        0.0027
     27 C         -22.4732   52.4366  -11.2636 C.ar    1  UNL1       -0.0042
     28 C         -21.6989   52.4022  -10.0841 C.ar    1  UNL1       -0.0228
     29 C         -22.3170   51.9171   -8.9092 C.ar    1  UNL1       -0.0042
     30 C         -23.6467   51.4878   -8.9203 C.ar    1  UNL1        0.0027
     31 C         -20.2343   52.8865  -10.1188 C.3     1  UNL1        0.0189
     32 C         -20.1054   54.4179  -10.3030 C.3     1  UNL1        0.0044
     33 C         -19.5371   52.5138   -8.7923 C.3     1  UNL1        0.0044
     34 C         -19.4959   52.2094  -11.2940 C.3     1  UNL1        0.0044
     35 C         -30.9991   52.1228  -12.2881 C.3     1  UNL1        0.0051
     36 C         -29.7003   52.3890  -11.5345 C.3     1  UNL1        0.0279
@<TRIPOS>BOND
     1    35    36    1
     2    36     1    1
     3     1     2   ar
     4     2     3   ar
     5     3     4   ar
     6     4    11    1
     7    11    12    1
     8    12    13    1
     9    13    14    1
    10    14    17    1
    11    17    18    1
    12    18    19   ar
    13    19    20   ar
    14    20    21   ar
    15    21    22    1
    16    21    23   ar
    17    14    15    1
    18    15    16    1
    19     4     5   ar
    20     5     6   ar
    21     6     7   ar
    22     7    25    1
    23    25    26   ar
    24    26    27   ar
    25    27    28   ar
    26    28    31    1
    27    31    32    1
    28    31    33    1
    29    31    34    1
    30    28    29   ar
    31    29    30   ar
    32     7     8   ar
    33     8     9   ar
    34     9     1   ar
    35    16    11    1
    36     9     5   ar
    37    23    18   ar
    38    30    25   ar
    39    20    24    1
    40     8    10    1
@<TRIPOS>MOLECULE
*****
 36 40 0 0 0
SMALL
GASTEIGER

@<TRIPOS>ATOM
      1 C         -29.6943   47.2313   -9.7468 C.ar    1  UNL1       -0.0050
      2 C         -30.4140   46.4681   -8.8014 C.ar    1  UNL1       -0.0015
      3 C         -29.9834   46.3893   -7.4589 C.ar    1  UNL1        0.0158
      4 C         -28.8366   47.0906   -7.0295 C.ar    1  UNL1        0.0672
      5 C         -28.1488   47.8429   -7.9870 C.ar    1  UNL1        0.1113
      6 N         -27.0234   48.5585   -7.8167 N.ar    1  UNL1       -0.2258
      7 C         -26.7846   49.0706   -9.0531 C.ar    1  UNL1        0.1405
      8 N         -27.7110   48.6923   -9.9730 N.ar    1  UNL1       -0.3376
      9 C         -28.5604   47.9138   -9.2853 C.ar    1  UNL1        0.0727
     10 H         -27.7615   48.9351  -10.9858 H       1  UNL1        0.1674
     11 N         -28.3810   47.0120   -5.6674 N.pl3   1  UNL1       -0.3034
     12 C         -27.0645   46.4341   -5.3690 C.3     1  UNL1        0.1082
     13 C         -26.6129   46.8192   -3.9565 C.3     1  UNL1        0.0941
     14 N         -27.0006   48.2176   -3.6960 N.3     1  UNL1       -0.2646
     15 C         -28.4694   48.4048   -3.6221 C.3     1  UNL1        0.0941
     16 C         -29.2380   47.4529   -4.5605 C.3     1  UNL1        0.1082
     17 C         -26.2844   48.8217   -2.5521 C.3     1  UNL1        0.1203
     18 C         -25.7802   50.2143   -2.8263 C.ar    1  UNL1        0.0934
     19 C         -26.0991   50.9921   -3.9192 C.ar    1  UNL1        0.0896
     20 N         -25.4353   52.1523   -3.8095 N.ar    1  UNL1       -0.3398
     21 C         -24.7435   52.0582   -2.6570 C.ar    1  UNL1        0.1172
     22 C         -23.8094   53.1144   -2.1682 C.3     1  UNL1        0.0716
     23 N         -24.9193   50.8771   -2.0273 N.ar    1  UNL1       -0.2340
     24 H         -25.4477   52.9514   -4.4813 H       1  UNL1        0.1671
     25 C         -25.6208   49.9478   -9.3410 C.ar    1  UNL1        0.0339
     26 C         -25.3338   50.3868  -10.6431 C.ar    1  UNL1        0.0027
     27 C         -24.2339   51.2121  -10.8901 C.ar    1  UNL1       -0.0042
     28 C         -23.3811   51.6296   -9.8459 C.ar    1  UNL1       -0.0228
     29 C         -23.6796   51.1828   -8.5386 C.ar    1  UNL1       -0.0042
     30 C         -24.7802   50.3574   -8.2940 C.ar    1  UNL1        0.0027
     31 C         -22.1772   52.5414  -10.1627 C.3     1  UNL1        0.0189
     32 C         -21.2592   51.9716  -11.2710 C.3     1  UNL1        0.0044
     33 C         -22.6862   53.9195  -10.6385 C.3     1  UNL1        0.0044
     34 C         -21.3199   52.7224   -8.8911 C.3     1  UNL1        0.0044
     35 C         -29.6325   46.1715  -12.0041 C.3     1  UNL1        0.0051
     36 C         -30.1640   47.3348  -11.1735 C.3     1  UNL1        0.0279
@<TRIPOS>BOND
     1    35    36    1
     2    36     1    1
     3     1     2   ar
     4     2     3   ar
     5     3     4   ar
     6     4    11    1
     7    11    12    1
     8    12    13    1
     9    13    14    1
    10    14    17    1
    11    17    18    1
    12    18    19   ar
    13    19    20   ar
    14    20    21   ar
    15    21    22    1
    16    21    23   ar
    17    14    15    1
    18    15    16    1
    19     4     5   ar
    20     5     6   ar
    21     6     7   ar
    22     7    25    1
    23    25    26   ar
    24    26    27   ar
    25    27    28   ar
    26    28    31    1
    27    31    32    1
    28    31    33    1
    29    31    34    1
    30    28    29   ar
    31    29    30   ar
    32     7     8   ar
    33     8     9   ar
    34     9     1   ar
    35    16    11    1
    36     9     5   ar
    37    23    18   ar
    38    30    25   ar
    39    20    24    1
    40     8    10    1
@<TRIPOS>MOLECULE
*****
 36 40 0 0 0
SMALL
GASTEIGER

@<TRIPOS>ATOM
      1 C         -27.3855   49.6047   -5.0489 C.ar    1  UNL1       -0.0050
      2 C         -28.6912   49.0667   -5.0589 C.ar    1  UNL1       -0.0015
      3 C         -29.3949   48.9026   -6.2720 C.ar    1  UNL1        0.0158
      4 C         -28.7983   49.2523   -7.5021 C.ar    1  UNL1        0.0672
      5 C         -27.5024   49.7762   -7.4605 C.ar    1  UNL1        0.1113
      6 N         -26.7558   50.2053   -8.4931 N.ar    1  UNL1       -0.2258
      7 C         -25.6046   50.6188   -7.9003 C.ar    1  UNL1        0.1405
      8 N         -25.6187   50.4683   -6.5494 N.ar    1  UNL1       -0.3376
      9 C         -26.8248   49.9414   -6.2885 C.ar    1  UNL1        0.0727
     10 H         -24.8756   50.7087   -5.8586 H       1  UNL1        0.1674
     11 N         -29.5069   49.0994   -8.7445 N.pl3   1  UNL1       -0.3034
     12 C         -28.7600   48.8862   -9.9907 C.3     1  UNL1        0.1082
     13 C         -29.6825   48.3451  -11.0878 C.3     1  UNL1        0.0941
     14 N         -30.6205   47.3781  -10.4889 N.3     1  UNL1       -0.2646
     15 C         -31.5790   48.0095   -9.5505 C.3     1  UNL1        0.0941
     16 C         -30.9697   49.2076   -8.7951 C.3     1  UNL1        0.1082
     17 C         -31.2787   46.5053  -11.4845 C.3     1  UNL1        0.1203
     18 C         -30.8484   46.7791  -12.9018 C.ar    1  UNL1        0.0934
     19 C         -29.9415   46.0400  -13.6314 C.ar    1  UNL1        0.0896
     20 N         -29.8131   46.6149  -14.8363 N.ar    1  UNL1       -0.3398
     21 C         -30.6460   47.6738  -14.8153 C.ar    1  UNL1        0.1172
     22 C         -30.7763   48.6421  -15.9433 C.3     1  UNL1        0.0716
     23 N         -31.2934   47.8167  -13.6393 N.ar    1  UNL1       -0.2340
     24 H         -29.1916   46.3088  -15.6175 H       1  UNL1        0.1671
     25 C         -24.4660   51.1772   -8.6739 C.ar    1  UNL1        0.0339
     26 C         -24.6172   51.6035  -10.0029 C.ar    1  UNL1        0.0027
     27 C         -23.5321   52.1261  -10.7108 C.ar    1  UNL1       -0.0042
     28 C         -22.2568   52.2427  -10.1175 C.ar    1  UNL1       -0.0228
     29 C         -22.1158   51.8115   -8.7789 C.ar    1  UNL1       -0.0042
     30 C         -23.2025   51.2892   -8.0728 C.ar    1  UNL1        0.0027
     31 C         -21.0854   52.8256  -10.9354 C.3     1  UNL1        0.0189
     32 C         -20.2080   53.8087  -10.1234 C.3     1  UNL1        0.0044
     33 C         -20.1750   51.6770  -11.4217 C.3     1  UNL1        0.0044
     34 C         -21.6407   53.5916  -12.1559 C.3     1  UNL1        0.0044
     35 C         -26.6503   48.4634   -2.9562 C.3     1  UNL1        0.0051
     36 C         -26.6246   49.7598   -3.7588 C.3     1  UNL1        0.0279
@<TRIPOS>BOND
     1    35    36    1
     2    36     1    1
     3     1     2   ar
     4     2     3   ar
     5     3     4   ar
     6     4    11    1
     7    11    12    1
     8    12    13    1
     9    13    14    1
    10    14    17    1
    11    17    18    1
    12    18    19   ar
    13    19    20   ar
    14    20    21   ar
    15    21    22    1
    16    21    23   ar
    17    14    15    1
    18    15    16    1
    19     4     5   ar
    20     5     6   ar
    21     6     7   ar
    22     7    25    1
    23    25    26   ar
    24    26    27   ar
    25    27    28   ar
    26    28    31    1
    27    31    32    1
    28    31    33    1
    29    31    34    1
    30    28    29   ar
    31    29    30   ar
    32     7     8   ar
    33     8     9   ar
    34     9     1   ar
    35    16    11    1
    36     9     5   ar
    37    23    18   ar
    38    30    25   ar
    39    20    24    1
    40     8    10    1
