@<TRIPOS>MOLECULE
*****
 23 25 0 0 0
SMALL
GASTEIGER

@<TRIPOS>ATOM
      1 C          50.4130    7.1330  -31.2777 C.ar    1  UNL1        0.0348
      2 C          51.8125    7.3009  -31.2444 C.ar    1  UNL1        0.0044
      3 C          52.4198    8.0340  -30.2209 C.ar    1  UNL1        0.0192
      4 C          51.6430    8.6120  -29.2148 C.ar    1  UNL1        0.0827
      5 N          52.2348    9.3268  -28.2205 N.ar    1  UNL1       -0.2305
      6 C          51.5167    9.9163  -27.2255 C.ar    1  UNL1        0.1344
      7 C          50.1197    9.7612  -27.1980 C.ar    1  UNL1        0.0345
      8 C          49.4848    9.0353  -28.2073 C.ar    1  UNL1        0.0044
      9 C          50.2425    8.4538  -29.2311 C.ar    1  UNL1        0.0179
     10 C          49.6347    7.7175  -30.2586 C.ar    1  UNL1        0.0043
     11 N          52.2133   10.6397  -26.1989 N.am    1  UNL1       -0.2645
     12 C          52.3239   10.2098  -24.8342 C.2     1  UNL1        0.2700
     13 O          53.4208   10.3582  -24.2331 O.2     1  UNL1       -0.2681
     14 H          52.7310   11.5030  -26.4787 H       1  UNL1        0.1566
     15 C          51.1736    9.6560  -24.0964 C.ar    1  UNL1        0.1556
     16 C          50.1955   10.3729  -23.4286 C.ar    1  UNL1        0.0454
     17 C          49.3804    9.4078  -22.8781 C.ar    1  UNL1        0.0925
     18 N          49.8656    8.1969  -23.2028 N.ar    1  UNL1       -0.2742
     19 N          50.9571    8.3355  -23.9373 N.ar    1  UNL1       -0.1680
     20 H          49.4601    7.2773  -22.9212 H       1  UNL1        0.1890
     21 C          48.2631    6.2294  -32.4552 C.3     1  UNL1        0.0773
     22 C          49.7545    6.3549  -32.3623 C.2     1  UNL1        0.1735
     23 O          50.4588    5.7788  -33.2359 O.2     1  UNL1       -0.2913
@<TRIPOS>BOND
     1    21    22    1
     2    22    23    2
     3    22     1    1
     4     1     2   ar
     5     2     3   ar
     6     3     4   ar
     7     4     5   ar
     8     5     6   ar
     9     6    11    1
    10    11    12   am
    11    12    13    2
    12    12    15    1
    13    15    16   ar
    14    16    17   ar
    15    17    18   ar
    16    18    19   ar
    17     6     7   ar
    18     7     8   ar
    19     8     9   ar
    20     9    10   ar
    21    10     1   ar
    22     9     4   ar
    23    19    15   ar
    24    11    14    1
    25    18    20    1
@<TRIPOS>MOLECULE
*****
 23 25 0 0 0
SMALL
GASTEIGER

@<TRIPOS>ATOM
      1 C          46.2667   12.2626  -29.5738 C.ar    1  UNL1        0.0348
      2 C          46.6570   11.4937  -28.4583 C.ar    1  UNL1        0.0044
      3 C          46.7464   12.0713  -27.1886 C.ar    1  UNL1        0.0192
      4 C          46.4494   13.4239  -27.0098 C.ar    1  UNL1        0.0827
      5 N          46.5388   13.9854  -25.7742 N.ar    1  UNL1       -0.2305
      6 C          46.2689   15.3015  -25.5550 C.ar    1  UNL1        0.1344
      7 C          45.8532   16.1087  -26.6284 C.ar    1  UNL1        0.0345
      8 C          45.7555   15.5600  -27.9083 C.ar    1  UNL1        0.0044
      9 C          46.0565   14.2081  -28.1131 C.ar    1  UNL1        0.0179
     10 C          45.9667   13.6268  -29.3864 C.ar    1  UNL1        0.0043
     11 N          46.3669   15.8192  -24.2189 N.am    1  UNL1       -0.2645
     12 C          46.6480   17.1891  -23.8968 C.2     1  UNL1        0.2700
     13 O          46.0241   17.7348  -22.9483 O.2     1  UNL1       -0.2681
     14 H          46.1531   15.1694  -23.4292 H       1  UNL1        0.1566
     15 C          47.6892   17.9575  -24.6035 C.ar    1  UNL1        0.1556
     16 C          47.5454   19.2051  -25.1861 C.ar    1  UNL1        0.0454
     17 C          48.7785   19.4665  -25.7427 C.ar    1  UNL1        0.0925
     18 N          49.5903   18.4222  -25.5024 N.ar    1  UNL1       -0.2742
     19 N          48.9380   17.4981  -24.8167 N.ar    1  UNL1       -0.1680
     20 H          50.5842   18.3339  -25.8088 H       1  UNL1        0.1890
     21 C          45.5815   12.4073  -32.0906 C.3     1  UNL1        0.0773
     22 C          46.1679   11.6592  -30.9307 C.2     1  UNL1        0.1735
     23 O          46.5855   10.4851  -31.1258 O.2     1  UNL1       -0.2913
@<TRIPOS>BOND
     1    21    22    1
     2    22    23    2
     3    22     1    1
     4     1     2   ar
     5     2     3   ar
     6     3     4   ar
     7     4     5   ar
     8     5     6   ar
     9     6    11    1
    10    11    12   am
    11    12    13    2
    12    12    15    1
    13    15    16   ar
    14    16    17   ar
    15    17    18   ar
    16    18    19   ar
    17     6     7   ar
    18     7     8   ar
    19     8     9   ar
    20     9    10   ar
    21    10     1   ar
    22     9     4   ar
    23    19    15   ar
    24    11    14    1
    25    18    20    1
@<TRIPOS>MOLECULE
*****
 23 25 0 0 0
SMALL
GASTEIGER

@<TRIPOS>ATOM
      1 C          50.3404    7.4826  -30.7288 C.ar    1  UNL1        0.0348
      2 C          49.3721    7.6823  -29.7237 C.ar    1  UNL1        0.0044
      3 C          49.6391    8.5092  -28.6288 C.ar    1  UNL1        0.0192
      4 C          50.8749    9.1496  -28.5171 C.ar    1  UNL1        0.0827
      5 N          51.1343    9.9523  -27.4503 N.ar    1  UNL1       -0.2305
      6 C          52.3281   10.5880  -27.2950 C.ar    1  UNL1        0.1344
      7 C          53.3209   10.4416  -28.2795 C.ar    1  UNL1        0.0345
      8 C          53.0834    9.6215  -29.3839 C.ar    1  UNL1        0.0044
      9 C          51.8548    8.9626  -29.5128 C.ar    1  UNL1        0.0179
     10 C          51.5851    8.1329  -30.6111 C.ar    1  UNL1        0.0043
     11 N          52.5222   11.4348  -26.1514 N.am    1  UNL1       -0.2645
     12 C          52.5246   10.9761  -24.7916 C.2     1  UNL1        0.2700
     13 O          53.3676   11.4535  -23.9865 O.2     1  UNL1       -0.2681
     14 H          52.7431   12.4413  -26.3240 H       1  UNL1        0.1566
     15 C          51.5299   10.0079  -24.2944 C.ar    1  UNL1        0.1556
     16 C          50.3346   10.3007  -23.6601 C.ar    1  UNL1        0.0454
     17 C          49.7943    9.0684  -23.3635 C.ar    1  UNL1        0.0925
     18 N          50.6359    8.1131  -23.7955 N.ar    1  UNL1       -0.2742
     19 N          51.6953    8.6719  -24.3569 N.ar    1  UNL1       -0.1680
     20 H          50.4945    7.0831  -23.7039 H       1  UNL1        0.1890
     21 C          48.6792    6.1663  -32.2560 C.3     1  UNL1        0.0773
     22 C          50.0682    6.6045  -31.8993 C.2     1  UNL1        0.1735
     23 O          51.0239    6.2096  -32.6216 O.2     1  UNL1       -0.2913
@<TRIPOS>BOND
     1    21    22    1
     2    22    23    2
     3    22     1    1
     4     1     2   ar
     5     2     3   ar
     6     3     4   ar
     7     4     5   ar
     8     5     6   ar
     9     6    11    1
    10    11    12   am
    11    12    13    2
    12    12    15    1
    13    15    16   ar
    14    16    17   ar
    15    17    18   ar
    16    18    19   ar
    17     6     7   ar
    18     7     8   ar
    19     8     9   ar
    20     9    10   ar
    21    10     1   ar
    22     9     4   ar
    23    19    15   ar
    24    11    14    1
    25    18    20    1
@<TRIPOS>MOLECULE
*****
 23 25 0 0 0
SMALL
GASTEIGER

@<TRIPOS>ATOM
      1 C          46.4414   12.0008  -29.1329 C.ar    1  UNL1        0.0348
      2 C          46.9271   11.5264  -27.8972 C.ar    1  UNL1        0.0044
      3 C          47.0301   12.3799  -26.7950 C.ar    1  UNL1        0.0192
      4 C          46.6518   13.7194  -26.9061 C.ar    1  UNL1        0.0827
      5 N          46.7543   14.5494  -25.8336 N.ar    1  UNL1       -0.2305
      6 C          46.4072   15.8641  -25.8988 C.ar    1  UNL1        0.1344
      7 C          45.8954   16.3837  -27.1008 C.ar    1  UNL1        0.0345
      8 C          45.7818   15.5556  -28.2188 C.ar    1  UNL1        0.0044
      9 C          46.1630   14.2112  -28.1333 C.ar    1  UNL1        0.0179
     10 C          46.0598   13.3533  -29.2382 C.ar    1  UNL1        0.0043
     11 N          46.5253   16.6747  -24.7192 N.am    1  UNL1       -0.2645
     12 C          47.3420   17.8505  -24.6196 C.2     1  UNL1        0.2700
     13 O          46.8962   18.8543  -24.0028 O.2     1  UNL1       -0.2681
     14 H          45.9251   16.4303  -23.8996 H       1  UNL1        0.1566
     15 C          48.7111   17.8965  -25.1650 C.ar    1  UNL1        0.1556
     16 C          49.1766   18.7345  -26.1638 C.ar    1  UNL1        0.0454
     17 C          50.4927   18.3638  -26.3350 C.ar    1  UNL1        0.0925
     18 N          50.7717   17.3592  -25.4864 N.ar    1  UNL1       -0.2742
     19 N          49.6961   17.0635  -24.7754 N.ar    1  UNL1       -0.1680
     20 H          51.6893   16.8704  -25.3940 H       1  UNL1        0.1890
     21 C          46.9009    9.7165  -30.3143 C.3     1  UNL1        0.0773
     22 C          46.3273   11.1020  -30.3137 C.2     1  UNL1        0.1735
     23 O          45.7333   11.5038  -31.3513 O.2     1  UNL1       -0.2913
@<TRIPOS>BOND
     1    21    22    1
     2    22    23    2
     3    22     1    1
     4     1     2   ar
     5     2     3   ar
     6     3     4   ar
     7     4     5   ar
     8     5     6   ar
     9     6    11    1
    10    11    12   am
    11    12    13    2
    12    12    15    1
    13    15    16   ar
    14    16    17   ar
    15    17    18   ar
    16    18    19   ar
    17     6     7   ar
    18     7     8   ar
    19     8     9   ar
    20     9    10   ar
    21    10     1   ar
    22     9     4   ar
    23    19    15   ar
    24    11    14    1
    25    18    20    1
@<TRIPOS>MOLECULE
*****
 23 25 0 0 0
SMALL
GASTEIGER

@<TRIPOS>ATOM
      1 C          45.9328   12.7858  -30.6824 C.ar    1  UNL1        0.0348
      2 C          46.3359   11.4455  -30.5122 C.ar    1  UNL1        0.0044
      3 C          46.6843   10.9593  -29.2488 C.ar    1  UNL1        0.0192
      4 C          46.6375   11.8003  -28.1352 C.ar    1  UNL1        0.0827
      5 N          46.9786   11.3266  -26.9067 N.ar    1  UNL1       -0.2305
      6 C          46.9577   12.1127  -25.7955 C.ar    1  UNL1        0.1344
      7 C          46.5415   13.4511  -25.9049 C.ar    1  UNL1        0.0345
      8 C          46.1884   13.9652  -27.1538 C.ar    1  UNL1        0.0044
      9 C          46.2358   13.1429  -28.2859 C.ar    1  UNL1        0.0179
     10 C          45.8861   13.6290  -29.5543 C.ar    1  UNL1        0.0043
     11 N          47.3133   11.5370  -24.5287 N.am    1  UNL1       -0.2645
     12 C          48.6585   11.3973  -24.0485 C.2     1  UNL1        0.2700
     13 O          48.9022   11.6320  -22.8352 O.2     1  UNL1       -0.2681
     14 H          46.5377   11.2625  -23.8848 H       1  UNL1        0.1566
     15 C          49.7517   10.9280  -24.9196 C.ar    1  UNL1        0.1556
     16 C          50.3350    9.6725  -24.9126 C.ar    1  UNL1        0.0454
     17 C          51.3202    9.7481  -25.8729 C.ar    1  UNL1        0.0925
     18 N          51.3132   10.9840  -26.4017 N.ar    1  UNL1       -0.2742
     19 N          50.3691   11.7105  -25.8265 N.ar    1  UNL1       -0.1680
     20 H          51.9525   11.3363  -27.1478 H       1  UNL1        0.1890
     21 C          44.6442   12.5665  -32.9443 C.3     1  UNL1        0.0773
     22 C          45.5596   13.3153  -32.0224 C.2     1  UNL1        0.1735
     23 O          46.0190   14.4252  -32.4072 O.2     1  UNL1       -0.2913
@<TRIPOS>BOND
     1    21    22    1
     2    22    23    2
     3    22     1    1
     4     1     2   ar
     5     2     3   ar
     6     3     4   ar
     7     4     5   ar
     8     5     6   ar
     9     6    11    1
    10    11    12   am
    11    12    13    2
    12    12    15    1
    13    15    16   ar
    14    16    17   ar
    15    17    18   ar
    16    18    19   ar
    17     6     7   ar
    18     7     8   ar
    19     8     9   ar
    20     9    10   ar
    21    10     1   ar
    22     9     4   ar
    23    19    15   ar
    24    11    14    1
    25    18    20    1
@<TRIPOS>MOLECULE
*****
 23 25 0 0 0
SMALL
GASTEIGER

@<TRIPOS>ATOM
      1 C          46.0388   13.0442  -29.2584 C.ar    1  UNL1        0.0348
      2 C          45.7063   14.4113  -29.3498 C.ar    1  UNL1        0.0044
      3 C          45.7339   15.2305  -28.2175 C.ar    1  UNL1        0.0192
      4 C          46.0922   14.7010  -26.9762 C.ar    1  UNL1        0.0827
      5 N          46.1168   15.4985  -25.8747 N.ar    1  UNL1       -0.2305
      6 C          46.4498   15.0233  -24.6432 C.ar    1  UNL1        0.1344
      7 C          46.8122   13.6726  -24.4997 C.ar    1  UNL1        0.0345
      8 C          46.7931   12.8299  -25.6125 C.ar    1  UNL1        0.0044
      9 C          46.4289   13.3367  -26.8657 C.ar    1  UNL1        0.0179
     10 C          46.4011   12.5162  -28.0030 C.ar    1  UNL1        0.0043
     11 N          46.4718   15.9302  -23.5298 N.am    1  UNL1       -0.2645
     12 C          46.6275   17.3523  -23.6429 C.2     1  UNL1        0.2700
     13 O          45.9372   18.1037  -22.9044 O.2     1  UNL1       -0.2681
     14 H          46.2958   15.5358  -22.5784 H       1  UNL1        0.1566
     15 C          47.6156   17.9576  -24.5546 C.ar    1  UNL1        0.1556
     16 C          47.4773   19.1428  -25.2566 C.ar    1  UNL1        0.0454
     17 C          48.6426   19.2468  -25.9846 C.ar    1  UNL1        0.0925
     18 N          49.4108   18.1747  -25.7244 N.ar    1  UNL1       -0.2742
     19 N          48.7950   17.3827  -24.8623 N.ar    1  UNL1       -0.1680
     20 H          50.3494   17.9774  -26.1362 H       1  UNL1        0.1890
     21 C          45.6060   12.6702  -31.8074 C.3     1  UNL1        0.0773
     22 C          46.0130   12.1618  -30.4566 C.2     1  UNL1        0.1735
     23 O          46.3404   10.9485  -30.3480 O.2     1  UNL1       -0.2913
@<TRIPOS>BOND
     1    21    22    1
     2    22    23    2
     3    22     1    1
     4     1     2   ar
     5     2     3   ar
     6     3     4   ar
     7     4     5   ar
     8     5     6   ar
     9     6    11    1
    10    11    12   am
    11    12    13    2
    12    12    15    1
    13    15    16   ar
    14    16    17   ar
    15    17    18   ar
    16    18    19   ar
    17     6     7   ar
    18     7     8   ar
    19     8     9   ar
    20     9    10   ar
    21    10     1   ar
    22     9     4   ar
    23    19    15   ar
    24    11    14    1
    25    18    20    1
@<TRIPOS>MOLECULE
*****
 23 25 0 0 0
SMALL
GASTEIGER

@<TRIPOS>ATOM
      1 C          46.1317   12.2702  -30.9411 C.ar    1  UNL1        0.0348
      2 C          46.4777   10.9669  -30.5292 C.ar    1  UNL1        0.0044
      3 C          46.6322   10.6636  -29.1735 C.ar    1  UNL1        0.0192
      4 C          46.4453   11.6535  -28.2066 C.ar    1  UNL1        0.0827
      5 N          46.5979   11.3576  -26.8878 N.ar    1  UNL1       -0.2305
      6 C          46.4359   12.2928  -25.9119 C.ar    1  UNL1        0.1344
      7 C          46.0682   13.6028  -26.2658 C.ar    1  UNL1        0.0345
      8 C          45.9076   13.9358  -27.6119 C.ar    1  UNL1        0.0044
      9 C          46.0980   12.9618  -28.5994 C.ar    1  UNL1        0.0179
     10 C          45.9429   13.2644  -29.9602 C.ar    1  UNL1        0.0043
     11 N          46.5952   11.9013  -24.5393 N.am    1  UNL1       -0.2645
     12 C          46.7290   12.8178  -23.4432 C.2     1  UNL1        0.2700
     13 O          46.1348   12.5680  -22.3610 O.2     1  UNL1       -0.2681
     14 H          46.5430   10.8821  -24.3155 H       1  UNL1        0.1566
     15 C          47.5908   14.0113  -23.5266 C.ar    1  UNL1        0.1556
     16 C          47.2209   15.3196  -23.2653 C.ar    1  UNL1        0.0454
     17 C          48.3585   16.0539  -23.5207 C.ar    1  UNL1        0.0925
     18 N          49.3327   15.2163  -23.9167 N.ar    1  UNL1       -0.2742
     19 N          48.8763   13.9748  -23.9296 N.ar    1  UNL1       -0.1680
     20 H          50.3045   15.4875  -24.1841 H       1  UNL1        0.1890
     21 C          44.6117   12.7996  -32.9987 C.3     1  UNL1        0.0773
     22 C          45.9644   12.6057  -32.3814 C.2     1  UNL1        0.1735
     23 O          46.9813   12.7339  -33.1167 O.2     1  UNL1       -0.2913
@<TRIPOS>BOND
     1    21    22    1
     2    22    23    2
     3    22     1    1
     4     1     2   ar
     5     2     3   ar
     6     3     4   ar
     7     4     5   ar
     8     5     6   ar
     9     6    11    1
    10    11    12   am
    11    12    13    2
    12    12    15    1
    13    15    16   ar
    14    16    17   ar
    15    17    18   ar
    16    18    19   ar
    17     6     7   ar
    18     7     8   ar
    19     8     9   ar
    20     9    10   ar
    21    10     1   ar
    22     9     4   ar
    23    19    15   ar
    24    11    14    1
    25    18    20    1
@<TRIPOS>MOLECULE
*****
 23 25 0 0 0
SMALL
GASTEIGER

@<TRIPOS>ATOM
      1 C          46.2629   12.2510  -29.4331 C.ar    1  UNL1        0.0348
      2 C          46.4663   11.4437  -28.2952 C.ar    1  UNL1        0.0044
      3 C          46.4903   12.0059  -27.0156 C.ar    1  UNL1        0.0192
      4 C          46.3130   13.3809  -26.8491 C.ar    1  UNL1        0.0827
      5 N          46.3386   13.9270  -25.6038 N.ar    1  UNL1       -0.2305
      6 C          46.1807   15.2629  -25.3949 C.ar    1  UNL1        0.1344
      7 C          45.9519   16.1106  -26.4929 C.ar    1  UNL1        0.0345
      8 C          45.9235   15.5781  -27.7830 C.ar    1  UNL1        0.0044
      9 C          46.1073   14.2035  -27.9750 C.ar    1  UNL1        0.0179
     10 C          46.0830   13.6377  -29.2583 C.ar    1  UNL1        0.0043
     11 N          46.2008   15.7643  -24.0493 N.am    1  UNL1       -0.2645
     12 C          47.3673   16.2805  -23.3918 C.2     1  UNL1        0.2700
     13 O          47.2574   17.3035  -22.6651 O.2     1  UNL1       -0.2681
     14 H          45.2916   15.8190  -23.5375 H       1  UNL1        0.1566
     15 C          48.6780   15.6128  -23.4929 C.ar    1  UNL1        0.1556
     16 C          49.8565   16.1688  -23.9605 C.ar    1  UNL1        0.0454
     17 C          50.7709   15.1404  -23.8903 C.ar    1  UNL1        0.0925
     18 N          50.1528   14.0453  -23.4151 N.ar    1  UNL1       -0.2742
     19 N          48.8809   14.3188  -23.1760 N.ar    1  UNL1       -0.1680
     20 H          50.5920   13.1113  -23.2592 H       1  UNL1        0.1890
     21 C          45.7383   12.4375  -31.9855 C.3     1  UNL1        0.0773
     22 C          46.2354   11.6644  -30.8007 C.2     1  UNL1        0.1735
     23 O          46.6389   10.4835  -30.9837 O.2     1  UNL1       -0.2913
@<TRIPOS>BOND
     1    21    22    1
     2    22    23    2
     3    22     1    1
     4     1     2   ar
     5     2     3   ar
     6     3     4   ar
     7     4     5   ar
     8     5     6   ar
     9     6    11    1
    10    11    12   am
    11    12    13    2
    12    12    15    1
    13    15    16   ar
    14    16    17   ar
    15    17    18   ar
    16    18    19   ar
    17     6     7   ar
    18     7     8   ar
    19     8     9   ar
    20     9    10   ar
    21    10     1   ar
    22     9     4   ar
    23    19    15   ar
    24    11    14    1
    25    18    20    1
@<TRIPOS>MOLECULE
*****
 23 25 0 0 0
SMALL
GASTEIGER

@<TRIPOS>ATOM
      1 C          46.6731   16.0918  -24.8181 C.ar    1  UNL1        0.0348
      2 C          46.9001   14.8682  -24.1555 C.ar    1  UNL1        0.0044
      3 C          46.8435   13.6575  -24.8518 C.ar    1  UNL1        0.0192
      4 C          46.5591   13.6461  -26.2189 C.ar    1  UNL1        0.0827
      5 N          46.5023   12.4674  -26.8950 N.ar    1  UNL1       -0.2305
      6 C          46.2184   12.4078  -28.2250 C.ar    1  UNL1        0.1344
      7 C          46.0062   13.6000  -28.9393 C.ar    1  UNL1        0.0345
      8 C          46.0554   14.8244  -28.2706 C.ar    1  UNL1        0.0044
      9 C          46.3305   14.8597  -26.8983 C.ar    1  UNL1        0.0179
     10 C          46.3881   16.0737  -26.1981 C.ar    1  UNL1        0.0043
     11 N          46.1944   11.1274  -28.8751 N.am    1  UNL1       -0.2645
     12 C          46.4860   10.9157  -30.2642 C.2     1  UNL1        0.2700
     13 O          47.1672    9.9108  -30.5999 O.2     1  UNL1       -0.2681
     14 H          46.0183   10.2849  -28.2827 H       1  UNL1        0.1566
     15 C          45.9598   11.8061  -31.3150 C.ar    1  UNL1        0.1556
     16 C          46.6974   12.4925  -32.2644 C.ar    1  UNL1        0.0454
     17 C          45.7579   13.2044  -32.9780 C.ar    1  UNL1        0.0925
     18 N          44.5421   12.9502  -32.4638 N.ar    1  UNL1       -0.2742
     19 N          44.6533   12.1073  -31.4503 N.ar    1  UNL1       -0.1680
     20 H          43.6384   13.3531  -32.7961 H       1  UNL1        0.1890
     21 C          47.1242   18.6644  -24.7678 C.3     1  UNL1        0.0773
     22 C          46.7304   17.3873  -24.0877 C.2     1  UNL1        0.1735
     23 O          46.4419   17.4275  -22.8605 O.2     1  UNL1       -0.2913
@<TRIPOS>BOND
     1    21    22    1
     2    22    23    2
     3    22     1    1
     4     1     2   ar
     5     2     3   ar
     6     3     4   ar
     7     4     5   ar
     8     5     6   ar
     9     6    11    1
    10    11    12   am
    11    12    13    2
    12    12    15    1
    13    15    16   ar
    14    16    17   ar
    15    17    18   ar
    16    18    19   ar
    17     6     7   ar
    18     7     8   ar
    19     8     9   ar
    20     9    10   ar
    21    10     1   ar
    22     9     4   ar
    23    19    15   ar
    24    11    14    1
    25    18    20    1
