@<TRIPOS>MOLECULE
*****
 54 60 0 0 0
SMALL
GASTEIGER

@<TRIPOS>ATOM
      1 C          60.6806   86.5804   10.6808 C.ar    1  UNL1        0.0481
      2 C          62.0370   86.3419   10.9683 C.ar    1  UNL1        0.0176
      3 C          62.4115   85.6974   12.1508 C.ar    1  UNL1        0.0382
      4 C          61.4333   85.2756   13.0692 C.ar    1  UNL1        0.1388
      5 C          60.0850   85.5144   12.7870 C.ar    1  UNL1        0.0382
      6 C          59.7086   86.1571   11.6048 C.ar    1  UNL1        0.0176
      7 N          59.7809   88.5142    6.9766 N.pl3   1  UNL1       -0.3040
      8 C          59.5388   89.2573    8.2188 C.3     1  UNL1        0.1122
      9 C          60.4134   88.7021    9.3458 C.3     1  UNL1        0.1122
     10 N          60.2911   87.2383    9.4545 N.pl3   1  UNL1       -0.3041
     11 C          59.6702   86.4668    8.3662 C.3     1  UNL1        0.1122
     12 C          60.0263   87.0673    7.0028 C.3     1  UNL1        0.1122
     13 C          60.2008   90.8221    3.4284 C.ar    1  UNL1        0.0700
     14 C          61.3206   90.2648    4.0647 C.ar    1  UNL1        0.0190
     15 C          61.1670   89.4816    5.2091 C.ar    1  UNL1        0.0161
     16 C          59.8931   89.2272    5.7347 C.ar    1  UNL1        0.0508
     17 C          58.7538   89.7518    5.0829 C.ar    1  UNL1        0.0495
     18 C          58.9216   90.5567    3.9443 C.ar    1  UNL1        0.0218
     19 N          60.6635   92.3249    0.1567 N.ar    1  UNL1       -0.2024
     20 N          60.5096   93.4113    0.8989 N.ar    1  UNL1       -0.1442
     21 C          60.3251   92.9851    2.1674 C.ar    1  UNL1        0.2073
     22 N          60.3536   91.6355    2.2491 N.ar    1  UNL1       -0.2398
     23 C          60.5731   91.2574    0.9742 C.ar    1  UNL1        0.3522
     24 O          60.7123   90.0620    0.5993 O.2     1  UNL1       -0.2444
     25 C          60.9056   92.3535   -1.2907 C.3     1  UNL1        0.1099
     26 C          59.7915   93.1381   -1.9967 C.3     1  UNL1        0.0265
     27 C          63.4258   92.1132   -0.9304 C.3     1  UNL1        0.0021
     28 C          62.3084   92.9249   -1.5858 C.3     1  UNL1        0.0245
     29 C          57.3806   89.4547    5.5430 C.2     1  UNL1        0.1747
     30 C          56.2179   90.3018    5.1260 C.3     1  UNL1        0.0773
     31 O          57.1854   88.4897    6.3295 O.2     1  UNL1       -0.2913
     32 O          61.7562   84.6138   14.2621 O.3     1  UNL1       -0.4727
     33 C          62.9271   83.8241   14.4554 C.3     1  UNL1        0.2374
     34 C          62.5883   82.3492   14.2229 C.3     1  UNL1        0.1909
     35 C          63.6884   81.6047   13.5100 C.3     1  UNL1        0.1783
     36 O          63.0957   80.9642   12.4253 O.3     1  UNL1       -0.3271
     37 C          61.8283   81.5657   12.2472 C.3     1  UNL1        0.2232
     38 O          61.4513   82.2479   13.4231 O.3     1  UNL1       -0.3258
     39 C          60.8019   80.4794   11.9064 C.ar    1  UNL1        0.0404
     40 C          59.6578   80.3568   12.7257 C.ar    1  UNL1        0.0021
     41 C          58.7099   79.3586   12.4985 C.ar    1  UNL1        0.0113
     42 C          58.8897   78.4455   11.4620 C.ar    1  UNL1        0.0585
     43 CL         57.6990   77.1878   11.1832 Cl      1  UNL1       -0.0822
     44 C          60.0262   78.5226   10.6574 C.ar    1  UNL1        0.0226
     45 C          60.9889   79.5177   10.8710 C.ar    1  UNL1        0.0591
     46 CL         62.4084   79.4653    9.8255 Cl      1  UNL1       -0.0824
     47 C          61.9207   82.5708   11.0787 C.3     1  UNL1        0.1338
     48 N          60.8039   82.3591   10.1280 N.3     1  UNL1       -0.2659
     49 C          59.5482   82.9801   10.5988 C.3     1  UNL1        0.0896
     50 C          58.4343   82.8755    9.5381 C.3     1  UNL1        0.0862
     51 N          58.8176   81.9447    8.4713 N.3     1  UNL1       -0.2951
     52 C          60.0241   82.4211    7.7778 C.3     1  UNL1        0.0862
     53 C          61.1346   82.8247    8.7693 C.3     1  UNL1        0.0896
     54 H          58.0367   81.9076    7.7752 H       1  UNL1        0.1233
@<TRIPOS>BOND
     1    27    28    1
     2    28    25    1
     3    25    26    1
     4    25    19    1
     5    19    20   ar
     6    20    21   ar
     7    21    22   ar
     8    22    13    1
     9    13    14   ar
    10    14    15   ar
    11    15    16   ar
    12    16     7    1
    13     7     8    1
    14     8     9    1
    15     9    10    1
    16    10     1    1
    17     1     2   ar
    18     2     3   ar
    19     3     4   ar
    20     4    32    1
    21    32    33    1
    22    33    34    1
    23    34    35    1
    24    35    36    1
    25    36    37    1
    26    37    47    1
    27    47    48    1
    28    48    49    1
    29    49    50    1
    30    50    51    1
    31    51    52    1
    32    52    53    1
    33    37    39    1
    34    39    40   ar
    35    40    41   ar
    36    41    42   ar
    37    42    43    1
    38    42    44   ar
    39    44    45   ar
    40    45    46    1
    41    37    38    1
    42     4     5   ar
    43     5     6   ar
    44    10    11    1
    45    11    12    1
    46    16    17   ar
    47    17    29    1
    48    29    30    1
    49    29    31    2
    50    17    18   ar
    51    22    23   ar
    52    23    24    2
    53    23    19   ar
    54    18    13   ar
    55    12     7    1
    56     6     1   ar
    57    38    34    1
    58    53    48    1
    59    45    39   ar
    60    51    54    1
@<TRIPOS>MOLECULE
*****
 54 60 0 0 0
SMALL
GASTEIGER

@<TRIPOS>ATOM
      1 C          59.9201   84.5666    8.8895 C.ar    1  UNL1        0.0481
      2 C          58.5473   84.4918    9.1882 C.ar    1  UNL1        0.0176
      3 C          57.8044   83.3591    8.8432 C.ar    1  UNL1        0.0382
      4 C          58.4230   82.2759    8.1935 C.ar    1  UNL1        0.1388
      5 C          59.7864   82.3494    7.8929 C.ar    1  UNL1        0.0382
      6 C          60.5310   83.4801    8.2384 C.ar    1  UNL1        0.0176
      7 N          62.3109   87.8738   10.1608 N.pl3   1  UNL1       -0.3040
      8 C          60.8514   88.0137   10.2242 C.3     1  UNL1        0.1122
      9 C          60.1914   86.6349   10.3051 C.3     1  UNL1        0.1122
     10 N          60.6917   85.7329    9.2537 N.pl3   1  UNL1       -0.3041
     11 C          61.9083   86.0792    8.5018 C.3     1  UNL1        0.1122
     12 C          62.9281   86.7746    9.4089 C.3     1  UNL1        0.1122
     13 C          64.9702   90.3735   12.3455 C.ar    1  UNL1        0.0700
     14 C          64.6993   90.6165   10.9902 C.ar    1  UNL1        0.0190
     15 C          63.7994   89.8099   10.2929 C.ar    1  UNL1        0.0161
     16 C          63.1414   88.7529   10.9360 C.ar    1  UNL1        0.0508
     17 C          63.3770   88.5195   12.3100 C.ar    1  UNL1        0.0495
     18 C          64.3011   89.3240   12.9966 C.ar    1  UNL1        0.0218
     19 N          67.4484   91.9324   14.4914 N.ar    1  UNL1       -0.2024
     20 N          67.0740   92.9738   13.7633 N.ar    1  UNL1       -0.1442
     21 C          66.1336   92.5224   12.9050 C.ar    1  UNL1        0.2073
     22 N          65.9021   91.2002   13.0694 N.ar    1  UNL1       -0.2398
     23 C          66.7371   90.8668   14.0733 C.ar    1  UNL1        0.3522
     24 O          66.8176   89.7158   14.5811 O.2     1  UNL1       -0.2444
     25 C          68.4516   92.0031   15.5605 C.3     1  UNL1        0.1099
     26 C          69.7085   91.2202   15.1574 C.3     1  UNL1        0.0265
     27 C          70.2549   93.7874   15.8818 C.3     1  UNL1        0.0021
     28 C          68.7587   93.4751   15.9074 C.3     1  UNL1        0.0245
     29 C          62.6560   87.4708   13.0625 C.2     1  UNL1        0.1747
     30 C          62.0993   87.7336   14.4278 C.3     1  UNL1        0.0773
     31 O          62.5349   86.3208   12.5618 O.2     1  UNL1       -0.2913
     32 O          57.7252   81.1130    7.8386 O.3     1  UNL1       -0.4727
     33 C          57.4724   80.0224    8.7210 C.3     1  UNL1        0.2374
     34 C          58.7343   79.7265    9.5362 C.3     1  UNL1        0.1909
     35 C          58.4595   78.8634   10.7413 C.3     1  UNL1        0.1783
     36 O          59.0146   79.5213   11.8354 O.3     1  UNL1       -0.3271
     37 C          59.2642   80.8501   11.4208 C.3     1  UNL1        0.2232
     38 O          59.2777   80.9187   10.0117 O.3     1  UNL1       -0.3258
     39 C          60.6110   81.3083   11.9918 C.ar    1  UNL1        0.0404
     40 C          61.3543   82.2679   11.2692 C.ar    1  UNL1        0.0021
     41 C          62.6086   82.6914   11.7096 C.ar    1  UNL1        0.0113
     42 C          63.1616   82.1536   12.8695 C.ar    1  UNL1        0.0585
     43 CL         64.7417   82.6839   13.4166 Cl      1  UNL1       -0.0822
     44 C          62.4644   81.1808   13.5852 C.ar    1  UNL1        0.0226
     45 C          61.2041   80.7428   13.1580 C.ar    1  UNL1        0.0591
     46 CL         60.4579   79.4639   14.1164 Cl      1  UNL1       -0.0824
     47 C          58.1391   81.7554   11.9673 C.3     1  UNL1        0.1338
     48 N          58.6930   83.0589   12.4029 N.3     1  UNL1       -0.2659
     49 C          57.7120   84.1550   12.2606 C.3     1  UNL1        0.0896
     50 C          58.2506   85.4746   12.8482 C.3     1  UNL1        0.0862
     51 N          59.6868   85.3716   13.1280 N.3     1  UNL1       -0.2951
     52 C          59.9455   84.3228   14.1262 C.3     1  UNL1        0.0862
     53 C          59.2170   83.0081   13.7797 C.3     1  UNL1        0.0896
     54 H          60.0073   86.2849   13.5266 H       1  UNL1        0.1233
@<TRIPOS>BOND
     1    27    28    1
     2    28    25    1
     3    25    26    1
     4    25    19    1
     5    19    20   ar
     6    20    21   ar
     7    21    22   ar
     8    22    13    1
     9    13    14   ar
    10    14    15   ar
    11    15    16   ar
    12    16     7    1
    13     7     8    1
    14     8     9    1
    15     9    10    1
    16    10     1    1
    17     1     2   ar
    18     2     3   ar
    19     3     4   ar
    20     4    32    1
    21    32    33    1
    22    33    34    1
    23    34    35    1
    24    35    36    1
    25    36    37    1
    26    37    47    1
    27    47    48    1
    28    48    49    1
    29    49    50    1
    30    50    51    1
    31    51    52    1
    32    52    53    1
    33    37    39    1
    34    39    40   ar
    35    40    41   ar
    36    41    42   ar
    37    42    43    1
    38    42    44   ar
    39    44    45   ar
    40    45    46    1
    41    37    38    1
    42     4     5   ar
    43     5     6   ar
    44    10    11    1
    45    11    12    1
    46    16    17   ar
    47    17    29    1
    48    29    30    1
    49    29    31    2
    50    17    18   ar
    51    22    23   ar
    52    23    24    2
    53    23    19   ar
    54    18    13   ar
    55    12     7    1
    56     6     1   ar
    57    38    34    1
    58    53    48    1
    59    45    39   ar
    60    51    54    1
@<TRIPOS>MOLECULE
*****
 54 60 0 0 0
SMALL
GASTEIGER

@<TRIPOS>ATOM
      1 C          58.2964   82.7551   10.8586 C.ar    1  UNL1        0.0481
      2 C          58.2180   82.8504   12.2601 C.ar    1  UNL1        0.0176
      3 C          58.2080   81.6991   13.0525 C.ar    1  UNL1        0.0382
      4 C          58.2791   80.4271   12.4565 C.ar    1  UNL1        0.1388
      5 C          58.3538   80.3298   11.0638 C.ar    1  UNL1        0.0382
      6 C          58.3656   81.4797   10.2701 C.ar    1  UNL1        0.0176
      7 N          58.5778   86.1839    8.3220 N.pl3   1  UNL1       -0.3040
      8 C          58.6345   86.3936    9.7734 C.3     1  UNL1        0.1122
      9 C          59.0978   85.1142   10.4746 C.3     1  UNL1        0.1122
     10 N          58.3162   83.9446   10.0382 N.pl3   1  UNL1       -0.3041
     11 C          57.4715   84.0282    8.8362 C.3     1  UNL1        0.1122
     12 C          58.1351   84.8998    7.7655 C.3     1  UNL1        0.1122
     13 C          60.0057   89.0444    5.5165 C.ar    1  UNL1        0.0700
     14 C          58.6394   88.7363    5.6025 C.ar    1  UNL1        0.0190
     15 C          58.1789   87.8211    6.5496 C.ar    1  UNL1        0.0161
     16 C          59.0693   87.2045    7.4388 C.ar    1  UNL1        0.0508
     17 C          60.4431   87.5331    7.3877 C.ar    1  UNL1        0.0495
     18 C          60.8987   88.4392    6.4161 C.ar    1  UNL1        0.0218
     19 N          60.6248   91.6153    3.0298 N.ar    1  UNL1       -0.2024
     20 N          61.8371   91.0928    3.1399 N.ar    1  UNL1       -0.1442
     21 C          61.7453   90.1024    4.0540 C.ar    1  UNL1        0.2073
     22 N          60.4878   89.9852    4.5374 N.ar    1  UNL1       -0.2398
     23 C          59.8139   90.9427    3.8700 C.ar    1  UNL1        0.3522
     24 O          58.5776   91.1585    3.9886 O.2     1  UNL1       -0.2444
     25 C          60.2914   92.7174    2.1195 C.3     1  UNL1        0.1099
     26 C          61.5728   93.4152    1.6439 C.3     1  UNL1        0.0265
     27 C          60.1643   91.1704    0.0874 C.3     1  UNL1        0.0021
     28 C          59.4312   92.1997    0.9476 C.3     1  UNL1        0.0245
     29 C          61.4191   86.9761    8.3483 C.2     1  UNL1        0.1747
     30 C          62.0267   87.8241    9.4230 C.3     1  UNL1        0.0773
     31 O          61.7750   85.7718    8.2427 O.2     1  UNL1       -0.2913
     32 O          58.2855   79.2433   13.2073 O.3     1  UNL1       -0.4727
     33 C          59.4519   78.6571   13.7800 C.3     1  UNL1        0.2374
     34 C          60.6560   78.9368   12.8763 C.3     1  UNL1        0.1909
     35 C          61.9713   78.7974   13.5997 C.3     1  UNL1        0.1783
     36 O          62.6811   79.9712   13.3619 O.3     1  UNL1       -0.3271
     37 C          61.7474   80.9125   12.8699 C.3     1  UNL1        0.2232
     38 O          60.5949   80.2462   12.4028 O.3     1  UNL1       -0.3258
     39 C          62.3964   81.7167   11.7377 C.ar    1  UNL1        0.0404
     40 C          61.5767   82.1655   10.6785 C.ar    1  UNL1        0.0021
     41 C          62.1132   82.8608    9.5944 C.ar    1  UNL1        0.0113
     42 C          63.4826   83.1076    9.5295 C.ar    1  UNL1        0.0585
     43 CL         64.1544   83.9767    8.1618 Cl      1  UNL1       -0.0822
     44 C          64.3203   82.6478   10.5451 C.ar    1  UNL1        0.0226
     45 C          63.7997   81.9473   11.6410 C.ar    1  UNL1        0.0591
     46 CL         64.9731   81.3661   12.8226 Cl      1  UNL1       -0.0824
     47 C          61.3575   81.8660   14.0201 C.3     1  UNL1        0.1338
     48 N          61.8868   83.2260   13.7631 N.3     1  UNL1       -0.2659
     49 C          60.8178   84.2465   13.7587 C.3     1  UNL1        0.0896
     50 C          61.3966   85.6698   13.6326 C.3     1  UNL1        0.0862
     51 N          62.8150   85.6237   13.2618 N.3     1  UNL1       -0.2951
     52 C          63.5986   84.9345   14.2983 C.3     1  UNL1        0.0862
     53 C          62.9526   83.5962   14.7116 C.3     1  UNL1        0.0896
     54 H          63.1652   86.6076   13.1908 H       1  UNL1        0.1233
@<TRIPOS>BOND
     1    27    28    1
     2    28    25    1
     3    25    26    1
     4    25    19    1
     5    19    20   ar
     6    20    21   ar
     7    21    22   ar
     8    22    13    1
     9    13    14   ar
    10    14    15   ar
    11    15    16   ar
    12    16     7    1
    13     7     8    1
    14     8     9    1
    15     9    10    1
    16    10     1    1
    17     1     2   ar
    18     2     3   ar
    19     3     4   ar
    20     4    32    1
    21    32    33    1
    22    33    34    1
    23    34    35    1
    24    35    36    1
    25    36    37    1
    26    37    47    1
    27    47    48    1
    28    48    49    1
    29    49    50    1
    30    50    51    1
    31    51    52    1
    32    52    53    1
    33    37    39    1
    34    39    40   ar
    35    40    41   ar
    36    41    42   ar
    37    42    43    1
    38    42    44   ar
    39    44    45   ar
    40    45    46    1
    41    37    38    1
    42     4     5   ar
    43     5     6   ar
    44    10    11    1
    45    11    12    1
    46    16    17   ar
    47    17    29    1
    48    29    30    1
    49    29    31    2
    50    17    18   ar
    51    22    23   ar
    52    23    24    2
    53    23    19   ar
    54    18    13   ar
    55    12     7    1
    56     6     1   ar
    57    38    34    1
    58    53    48    1
    59    45    39   ar
    60    51    54    1
@<TRIPOS>MOLECULE
*****
 54 60 0 0 0
SMALL
GASTEIGER

@<TRIPOS>ATOM
      1 C          60.3218   86.3352   10.2880 C.ar    1  UNL1        0.0481
      2 C          61.6079   86.3338   10.8584 C.ar    1  UNL1        0.0176
      3 C          61.8783   85.5782   12.0028 C.ar    1  UNL1        0.0382
      4 C          60.8652   84.8054   12.5983 C.ar    1  UNL1        0.1388
      5 C          59.5857   84.8077   12.0351 C.ar    1  UNL1        0.0382
      6 C          59.3138   85.5611   10.8901 C.ar    1  UNL1        0.0176
      7 N          59.7458   88.5799    6.6964 N.pl3   1  UNL1       -0.3040
      8 C          59.5908   89.2780    7.9780 C.3     1  UNL1        0.1122
      9 C          60.3657   88.5453    9.0761 C.3     1  UNL1        0.1122
     10 N          60.0428   87.1084    9.0995 N.pl3   1  UNL1       -0.3041
     11 C          59.3369   86.4921    7.9649 C.3     1  UNL1        0.1122
     12 C          59.7905   87.1139    6.6404 C.3     1  UNL1        0.1122
     13 C          60.5413   90.9958    3.2871 C.ar    1  UNL1        0.0700
     14 C          61.5417   90.1885    3.8500 C.ar    1  UNL1        0.0190
     15 C          61.2596   89.3749    4.9478 C.ar    1  UNL1        0.0161
     16 C          59.9714   89.3396    5.4984 C.ar    1  UNL1        0.0508
     17 C          58.9452   90.1197    4.9186 C.ar    1  UNL1        0.0495
     18 C          59.2455   90.9515    3.8274 C.ar    1  UNL1        0.0218
     19 N          61.7242   92.7168    0.3180 N.ar    1  UNL1       -0.2024
     20 N          60.7392   93.5230    0.6848 N.ar    1  UNL1       -0.1442
     21 C          60.2022   92.9872    1.8026 C.ar    1  UNL1        0.2073
     22 N          60.8278   91.8416    2.1564 N.ar    1  UNL1       -0.2398
     23 C          61.7772   91.7074    1.2093 C.ar    1  UNL1        0.3522
     24 O          62.6284   90.7781    1.1800 O.2     1  UNL1       -0.2444
     25 C          62.5785   92.9527   -0.8520 C.3     1  UNL1        0.1099
     26 C          61.7512   93.5521   -1.9972 C.3     1  UNL1        0.0265
     27 C          64.3214   93.5241    0.9297 C.3     1  UNL1        0.0021
     28 C          63.7805   93.8397   -0.4648 C.3     1  UNL1        0.0245
     29 C          57.5499   90.0665    5.4044 C.2     1  UNL1        0.1747
     30 C          56.8818   88.7629    5.7163 C.3     1  UNL1        0.0773
     31 O          56.8951   91.1361    5.5275 O.2     1  UNL1       -0.2913
     32 O          61.0889   84.0207   13.7383 O.3     1  UNL1       -0.4727
     33 C          61.1786   82.5981   13.7339 C.3     1  UNL1        0.2374
     34 C          60.0194   82.0192   12.9180 C.3     1  UNL1        0.1909
     35 C          59.6976   80.5951   13.2936 C.3     1  UNL1        0.1783
     36 O          59.6907   79.8642   12.1088 O.3     1  UNL1       -0.3271
     37 C          60.3322   80.6675   11.1376 C.3     1  UNL1        0.2232
     38 O          60.3538   82.0118   11.5649 O.3     1  UNL1       -0.3258
     39 C          59.5810   80.5408    9.8074 C.ar    1  UNL1        0.0404
     40 C          60.2066   79.8483    8.7470 C.ar    1  UNL1        0.0021
     41 C          59.5973   79.7386    7.4967 C.ar    1  UNL1        0.0113
     42 C          58.3592   80.3341    7.2667 C.ar    1  UNL1        0.0585
     43 CL         57.5991   80.1995    5.6915 Cl      1  UNL1       -0.0822
     44 C          57.7334   81.0517    8.2856 C.ar    1  UNL1        0.0226
     45 C          58.3302   81.1730    9.5473 C.ar    1  UNL1        0.0591
     46 CL         57.4655   82.1593   10.7264 Cl      1  UNL1       -0.0824
     47 C          61.7806   80.1626   10.9605 C.3     1  UNL1        0.1338
     48 N          62.7449   81.2181   11.3499 N.3     1  UNL1       -0.2659
     49 C          63.5432   80.8326   12.5323 C.3     1  UNL1        0.0896
     50 C          64.6366   81.8750   12.8397 C.3     1  UNL1        0.0862
     51 N          64.4166   83.1027   12.0679 N.3     1  UNL1       -0.2951
     52 C          64.4842   82.8259   10.6249 C.3     1  UNL1        0.0862
     53 C          63.6261   81.6053   10.2336 C.3     1  UNL1        0.0896
     54 H          65.1807   83.7778   12.3049 H       1  UNL1        0.1233
@<TRIPOS>BOND
     1    27    28    1
     2    28    25    1
     3    25    26    1
     4    25    19    1
     5    19    20   ar
     6    20    21   ar
     7    21    22   ar
     8    22    13    1
     9    13    14   ar
    10    14    15   ar
    11    15    16   ar
    12    16     7    1
    13     7     8    1
    14     8     9    1
    15     9    10    1
    16    10     1    1
    17     1     2   ar
    18     2     3   ar
    19     3     4   ar
    20     4    32    1
    21    32    33    1
    22    33    34    1
    23    34    35    1
    24    35    36    1
    25    36    37    1
    26    37    47    1
    27    47    48    1
    28    48    49    1
    29    49    50    1
    30    50    51    1
    31    51    52    1
    32    52    53    1
    33    37    39    1
    34    39    40   ar
    35    40    41   ar
    36    41    42   ar
    37    42    43    1
    38    42    44   ar
    39    44    45   ar
    40    45    46    1
    41    37    38    1
    42     4     5   ar
    43     5     6   ar
    44    10    11    1
    45    11    12    1
    46    16    17   ar
    47    17    29    1
    48    29    30    1
    49    29    31    2
    50    17    18   ar
    51    22    23   ar
    52    23    24    2
    53    23    19   ar
    54    18    13   ar
    55    12     7    1
    56     6     1   ar
    57    38    34    1
    58    53    48    1
    59    45    39   ar
    60    51    54    1
