@<TRIPOS>MOLECULE
*****
 50 55 0 0 0
SMALL
GASTEIGER

@<TRIPOS>ATOM
      1 C          10.8090   79.0292   25.2963 C.3     1  UNL1        0.1535
      2 N           9.7072   78.5887   24.4332 N.am    1  UNL1       -0.2945
      3 C           9.5784   79.0416   23.0761 C.2     1  UNL1        0.2483
      4 O          10.5181   79.6912   22.5409 O.2     1  UNL1       -0.2701
      5 H           9.0239   77.8860   24.7960 H       1  UNL1        0.1501
      6 C           8.3704   78.7270   22.2814 C.ar    1  UNL1        0.0808
      7 C           7.8214   79.7068   21.4376 C.ar    1  UNL1        0.0080
      8 C           6.6853   79.4306   20.6727 C.ar    1  UNL1        0.0148
      9 C           6.0653   78.1745   20.7489 C.ar    1  UNL1        0.0502
     10 C           6.6047   77.1973   21.6004 C.ar    1  UNL1        0.0443
     11 C           7.7429   77.4689   22.3659 C.ar    1  UNL1        0.1457
     12 F           8.1982   76.5154   23.2175 F       1  UNL1       -0.2040
     13 N           4.9019   77.8852   19.9503 N.pl3   1  UNL1       -0.3040
     14 C           3.6126   78.5282   20.2415 C.3     1  UNL1        0.1122
     15 C           2.5330   77.4578   20.4382 C.3     1  UNL1        0.1122
     16 N           2.6462   76.3898   19.4312 N.pl3   1  UNL1       -0.3040
     17 C           3.6027   76.5324   18.3241 C.3     1  UNL1        0.1122
     18 C           4.9889   76.8790   18.8792 C.3     1  UNL1        0.1122
     19 C           1.8723   75.1846   19.5837 C.ar    1  UNL1        0.0488
     20 C           2.3477   74.1297   20.3794 C.ar    1  UNL1        0.0154
     21 C           1.6015   72.9562   20.5162 C.ar    1  UNL1        0.0135
     22 C           0.3758   72.8176   19.8570 C.ar    1  UNL1        0.0683
     23 CL         -0.5335   71.3254   20.0535 Cl      1  UNL1       -0.0814
     24 C          -0.1048   73.8638   19.0523 C.ar    1  UNL1        0.0694
     25 CL         -1.6352   73.7265   18.1970 Cl      1  UNL1       -0.0813
     26 C           0.6436   75.0389   18.9173 C.ar    1  UNL1        0.0268
     27 C          10.2678   79.3985   26.6525 C.2     1  UNL1        0.2443
     28 O           9.8001   80.5555   26.8381 O.2     1  UNL1       -0.2730
     29 N          10.3107   78.4492   27.7301 N.am    1  UNL1       -0.2825
     30 H          10.9586   77.6341   27.6398 H       1  UNL1        0.1549
     31 C           9.6033   78.6105   28.9713 C.ar    1  UNL1        0.0535
     32 C           8.4724   77.8352   29.2795 C.ar    1  UNL1        0.0353
     33 C           7.8323   78.0093   30.5092 C.ar    1  UNL1        0.1002
     34 N           8.3099   78.9125   31.4058 N.ar    1  UNL1       -0.2422
     35 C           9.4125   79.6623   31.1420 C.ar    1  UNL1        0.1002
     36 C          10.0831   79.5187   29.9250 C.ar    1  UNL1        0.0353
     37 C          11.8735   77.9226   25.4464 C.3     1  UNL1        0.0569
     38 C          10.4051   75.0409   24.7761 C.ar    1  UNL1        0.0084
     39 C           9.9565   73.8201   24.2100 C.ar    1  UNL1       -0.0018
     40 C          10.4488   73.3670   22.9718 C.ar    1  UNL1        0.0012
     41 C          11.3944   74.1185   22.2652 C.ar    1  UNL1        0.0169
     42 C          11.8222   75.3207   22.8189 C.ar    1  UNL1        0.0561
     43 N          12.7221   76.1598   22.2848 N.ar    1  UNL1       -0.3523
     44 C          12.8406   77.1853   23.1500 C.ar    1  UNL1        0.0681
     45 C          11.9948   77.0072   24.2473 C.ar    1  UNL1       -0.0019
     46 C          11.3487   75.7860   24.0283 C.ar    1  UNL1        0.0115
     47 H          13.2363   76.0428   21.3834 H       1  UNL1        0.1660
     48 C           9.8632   75.5269   26.1037 C.3     1  UNL1        0.1687
     49 C           7.5698   75.7948   26.3794 C.3     1  UNL1        0.1746
     50 O           8.7628   76.4055   25.9381 O.3     1  UNL1       -0.3463
@<TRIPOS>BOND
     1    49    50    1
     2    50    48    1
     3    48    38    1
     4    38    39   ar
     5    39    40   ar
     6    40    41   ar
     7    41    42   ar
     8    42    43   ar
     9    43    44   ar
    10    44    45   ar
    11    45    37    1
    12    37     1    1
    13     1     2    1
    14     2     3   am
    15     3     4    2
    16     3     6    1
    17     6     7   ar
    18     7     8   ar
    19     8     9   ar
    20     9    13    1
    21    13    14    1
    22    14    15    1
    23    15    16    1
    24    16    19    1
    25    19    20   ar
    26    20    21   ar
    27    21    22   ar
    28    22    23    1
    29    22    24   ar
    30    24    25    1
    31    24    26   ar
    32    16    17    1
    33    17    18    1
    34     9    10   ar
    35    10    11   ar
    36    11    12    1
    37     1    27    1
    38    27    28    2
    39    27    29   am
    40    29    31    1
    41    31    32   ar
    42    32    33   ar
    43    33    34   ar
    44    34    35   ar
    45    35    36   ar
    46    45    46   ar
    47    46    38   ar
    48    46    42   ar
    49    11     6   ar
    50    36    31   ar
    51    18    13    1
    52    26    19   ar
    53    43    47    1
    54     2     5    1
    55    29    30    1
@<TRIPOS>MOLECULE
*****
 50 55 0 0 0
SMALL
GASTEIGER

@<TRIPOS>ATOM
      1 C          10.6045   76.9630   25.4434 C.3     1  UNL1        0.1535
      2 N          11.1030   78.2506   24.9470 N.am    1  UNL1       -0.2945
      3 C          12.3825   78.7717   25.3402 C.2     1  UNL1        0.2483
      4 O          13.1851   78.0415   25.9840 O.2     1  UNL1       -0.2701
      5 H          10.5367   78.7822   24.2477 H       1  UNL1        0.1501
      6 C          12.7898   80.1455   24.9705 C.ar    1  UNL1        0.0808
      7 C          14.1547   80.4742   24.9217 C.ar    1  UNL1        0.0080
      8 C          14.5633   81.7628   24.5688 C.ar    1  UNL1        0.0148
      9 C          13.6147   82.7535   24.2739 C.ar    1  UNL1        0.0502
     10 C          12.2496   82.4311   24.3337 C.ar    1  UNL1        0.0443
     11 C          11.8366   81.1420   24.6842 C.ar    1  UNL1        0.1457
     12 F          10.5072   80.8883   24.7843 F       1  UNL1       -0.2040
     13 N          14.0361   84.0783   23.8971 N.pl3   1  UNL1       -0.3040
     14 C          13.5069   85.2606   24.5919 C.3     1  UNL1        0.1122
     15 C          12.8946   86.2288   23.5733 C.3     1  UNL1        0.1122
     16 N          13.7446   86.3592   22.3783 N.pl3   1  UNL1       -0.3040
     17 C          15.0717   85.7274   22.3573 C.3     1  UNL1        0.1122
     18 C          14.9489   84.2521   22.7551 C.3     1  UNL1        0.1122
     19 C          13.2363   87.0411   21.2158 C.ar    1  UNL1        0.0488
     20 C          12.1454   87.9184   21.3258 C.ar    1  UNL1        0.0154
     21 C          11.6456   88.5695   20.1950 C.ar    1  UNL1        0.0135
     22 C          12.2230   88.3495   18.9403 C.ar    1  UNL1        0.0683
     23 CL         11.5652   89.1868   17.5409 Cl      1  UNL1       -0.0814
     24 C          13.3094   87.4676   18.8181 C.ar    1  UNL1        0.0694
     25 CL         14.0576   87.1537   17.2580 Cl      1  UNL1       -0.0813
     26 C          13.8094   86.8171   19.9523 C.ar    1  UNL1        0.0268
     27 C           9.7156   77.1948   26.6369 C.2     1  UNL1        0.2443
     28 O           8.9661   76.2636   27.0406 O.2     1  UNL1       -0.2730
     29 N           9.7031   78.4744   27.2903 N.am    1  UNL1       -0.2825
     30 H          10.0886   79.2945   26.7696 H       1  UNL1        0.1549
     31 C           9.0914   78.7176   28.5684 C.ar    1  UNL1        0.0535
     32 C           7.7002   78.8657   28.7017 C.ar    1  UNL1        0.0353
     33 C           7.1480   79.0754   29.9680 C.ar    1  UNL1        0.1002
     34 N           7.9509   79.1211   31.0639 N.ar    1  UNL1       -0.2422
     35 C           9.2973   78.9623   30.9669 C.ar    1  UNL1        0.1002
     36 C           9.8899   78.7493   29.7199 C.ar    1  UNL1        0.0353
     37 C           9.8176   76.2128   24.3487 C.3     1  UNL1        0.0569
     38 C           8.8107   73.3796   22.9817 C.ar    1  UNL1        0.0084
     39 C           8.7030   72.1224   22.3334 C.ar    1  UNL1       -0.0018
     40 C           9.8435   71.4467   21.8604 C.ar    1  UNL1        0.0012
     41 C          11.1165   72.0064   22.0161 C.ar    1  UNL1        0.0169
     42 C          11.2156   73.2448   22.6418 C.ar    1  UNL1        0.0561
     43 N          12.3495   73.9211   22.8785 N.ar    1  UNL1       -0.3523
     44 C          11.9866   75.0570   23.5049 C.ar    1  UNL1        0.0681
     45 C          10.5997   75.1155   23.6596 C.ar    1  UNL1       -0.0019
     46 C          10.1105   73.9267   23.1079 C.ar    1  UNL1        0.0115
     47 H          13.3217   73.6272   22.6353 H       1  UNL1        0.1660
     48 C           7.5783   74.1053   23.4786 C.3     1  UNL1        0.1687
     49 C           6.5505   74.1938   25.5625 C.3     1  UNL1        0.1746
     50 O           6.8912   73.3644   24.4731 O.3     1  UNL1       -0.3463
@<TRIPOS>BOND
     1    49    50    1
     2    50    48    1
     3    48    38    1
     4    38    39   ar
     5    39    40   ar
     6    40    41   ar
     7    41    42   ar
     8    42    43   ar
     9    43    44   ar
    10    44    45   ar
    11    45    37    1
    12    37     1    1
    13     1     2    1
    14     2     3   am
    15     3     4    2
    16     3     6    1
    17     6     7   ar
    18     7     8   ar
    19     8     9   ar
    20     9    13    1
    21    13    14    1
    22    14    15    1
    23    15    16    1
    24    16    19    1
    25    19    20   ar
    26    20    21   ar
    27    21    22   ar
    28    22    23    1
    29    22    24   ar
    30    24    25    1
    31    24    26   ar
    32    16    17    1
    33    17    18    1
    34     9    10   ar
    35    10    11   ar
    36    11    12    1
    37     1    27    1
    38    27    28    2
    39    27    29   am
    40    29    31    1
    41    31    32   ar
    42    32    33   ar
    43    33    34   ar
    44    34    35   ar
    45    35    36   ar
    46    45    46   ar
    47    46    38   ar
    48    46    42   ar
    49    11     6   ar
    50    36    31   ar
    51    18    13    1
    52    26    19   ar
    53    43    47    1
    54     2     5    1
    55    29    30    1
@<TRIPOS>MOLECULE
*****
 50 55 0 0 0
SMALL
GASTEIGER

@<TRIPOS>ATOM
      1 C           9.7399   77.1696   25.2431 C.3     1  UNL1        0.1535
      2 N          10.4276   78.3791   24.7770 N.am    1  UNL1       -0.2945
      3 C          11.6118   78.8749   25.4212 C.2     1  UNL1        0.2483
      4 O          12.1895   78.1728   26.2958 O.2     1  UNL1       -0.2701
      5 H          10.0783   78.8674   23.9214 H       1  UNL1        0.1501
      6 C          12.1871   80.1865   25.0487 C.ar    1  UNL1        0.0808
      7 C          13.5818   80.3540   25.0396 C.ar    1  UNL1        0.0080
      8 C          14.1480   81.5811   24.6850 C.ar    1  UNL1        0.0148
      9 C          13.3304   82.6704   24.3485 C.ar    1  UNL1        0.0502
     10 C          11.9359   82.5093   24.3686 C.ar    1  UNL1        0.0443
     11 C          11.3654   81.2822   24.7207 C.ar    1  UNL1        0.1457
     12 F          10.0130   81.1859   24.7814 F       1  UNL1       -0.2040
     13 N          13.9142   83.9316   23.9700 N.pl3   1  UNL1       -0.3040
     14 C          13.5853   85.1618   24.7042 C.3     1  UNL1        0.1122
     15 C          13.0686   86.2248   23.7281 C.3     1  UNL1        0.1122
     16 N          13.8747   86.2600   22.4966 N.pl3   1  UNL1       -0.3040
     17 C          15.0992   85.4518   22.4055 C.3     1  UNL1        0.1122
     18 C          14.7908   84.0001   22.7891 C.3     1  UNL1        0.1122
     19 C          13.4149   87.0280   21.3681 C.ar    1  UNL1        0.0488
     20 C          12.4881   88.0680   21.5453 C.ar    1  UNL1        0.0154
     21 C          12.0335   88.8038   20.4479 C.ar    1  UNL1        0.0135
     22 C          12.4924   88.5081   19.1602 C.ar    1  UNL1        0.0683
     23 CL         11.8963   89.4563   17.8046 Cl      1  UNL1       -0.0814
     24 C          13.4133   87.4645   18.9712 C.ar    1  UNL1        0.0694
     25 CL         14.0072   87.0522   17.3681 Cl      1  UNL1       -0.0813
     26 C          13.8683   86.7292   20.0720 C.ar    1  UNL1        0.0268
     27 C           8.4978   77.5584   26.0010 C.2     1  UNL1        0.2443
     28 O           8.2722   78.7774   26.2357 O.2     1  UNL1       -0.2730
     29 N           7.5946   76.5466   26.4750 N.am    1  UNL1       -0.2825
     30 H           7.9465   75.5643   26.5344 H       1  UNL1        0.1549
     31 C           6.2759   76.8192   26.9785 C.ar    1  UNL1        0.0535
     32 C           6.0609   77.1813   28.3193 C.ar    1  UNL1        0.0353
     33 C           4.7641   77.4619   28.7575 C.ar    1  UNL1        0.1002
     34 N           3.7210   77.3985   27.8883 N.ar    1  UNL1       -0.2422
     35 C           3.9021   77.0693   26.5821 C.ar    1  UNL1        0.1002
     36 C           5.1824   76.7826   26.1025 C.ar    1  UNL1        0.0353
     37 C           9.3605   76.2555   24.0595 C.3     1  UNL1        0.0569
     38 C           9.3269   73.1984   22.8096 C.ar    1  UNL1        0.0084
     39 C           9.6419   71.9312   22.2553 C.ar    1  UNL1       -0.0018
     40 C          10.9734   71.5666   21.9812 C.ar    1  UNL1        0.0012
     41 C          12.0221   72.4541   22.2467 C.ar    1  UNL1        0.0169
     42 C          11.7070   73.7000   22.7791 C.ar    1  UNL1        0.0561
     43 N          12.5812   74.6659   23.0985 N.ar    1  UNL1       -0.3523
     44 C          11.8513   75.6890   23.5831 C.ar    1  UNL1        0.0681
     45 C          10.4895   75.3794   23.5612 C.ar    1  UNL1       -0.0019
     46 C          10.4087   74.0798   23.0503 C.ar    1  UNL1        0.0115
     47 H          13.6204   74.6336   23.0005 H       1  UNL1        0.1660
     48 C           7.8913   73.5874   23.0921 C.3     1  UNL1        0.1687
     49 C           7.1885   74.4457   21.0485 C.3     1  UNL1        0.1746
     50 O           7.0545   73.3823   21.9661 O.3     1  UNL1       -0.3463
@<TRIPOS>BOND
     1    49    50    1
     2    50    48    1
     3    48    38    1
     4    38    39   ar
     5    39    40   ar
     6    40    41   ar
     7    41    42   ar
     8    42    43   ar
     9    43    44   ar
    10    44    45   ar
    11    45    37    1
    12    37     1    1
    13     1     2    1
    14     2     3   am
    15     3     4    2
    16     3     6    1
    17     6     7   ar
    18     7     8   ar
    19     8     9   ar
    20     9    13    1
    21    13    14    1
    22    14    15    1
    23    15    16    1
    24    16    19    1
    25    19    20   ar
    26    20    21   ar
    27    21    22   ar
    28    22    23    1
    29    22    24   ar
    30    24    25    1
    31    24    26   ar
    32    16    17    1
    33    17    18    1
    34     9    10   ar
    35    10    11   ar
    36    11    12    1
    37     1    27    1
    38    27    28    2
    39    27    29   am
    40    29    31    1
    41    31    32   ar
    42    32    33   ar
    43    33    34   ar
    44    34    35   ar
    45    35    36   ar
    46    45    46   ar
    47    46    38   ar
    48    46    42   ar
    49    11     6   ar
    50    36    31   ar
    51    18    13    1
    52    26    19   ar
    53    43    47    1
    54     2     5    1
    55    29    30    1
@<TRIPOS>MOLECULE
*****
 50 55 0 0 0
SMALL
GASTEIGER

@<TRIPOS>ATOM
      1 C           8.0957   77.5114   30.5740 C.3     1  UNL1        0.1535
      2 N           7.7534   77.0003   29.2418 N.am    1  UNL1       -0.2945
      3 C           8.7563   76.5216   28.3318 C.2     1  UNL1        0.2483
      4 O           9.9419   76.3635   28.7331 O.2     1  UNL1       -0.2701
      5 H           6.7482   76.9334   28.9633 H       1  UNL1        0.1501
      6 C           8.4122   76.1766   26.9345 C.ar    1  UNL1        0.0808
      7 C           8.9959   76.8967   25.8790 C.ar    1  UNL1        0.0080
      8 C           8.6914   76.5846   24.5516 C.ar    1  UNL1        0.0148
      9 C           7.7839   75.5570   24.2533 C.ar    1  UNL1        0.0502
     10 C           7.1898   74.8438   25.3064 C.ar    1  UNL1        0.0443
     11 C           7.4937   75.1515   26.6362 C.ar    1  UNL1        0.1457
     12 F           6.8547   74.4749   27.6239 F       1  UNL1       -0.2040
     13 N           7.4801   75.2264   22.8847 N.pl3   1  UNL1       -0.3040
     14 C           7.7051   76.2022   21.8087 C.3     1  UNL1        0.1122
     15 C           6.4085   76.4087   21.0175 C.3     1  UNL1        0.1122
     16 N           5.7265   75.1294   20.7611 N.pl3   1  UNL1       -0.3040
     17 C           6.3910   73.8671   21.1158 C.3     1  UNL1        0.1122
     18 C           6.8680   73.9245   22.5714 C.3     1  UNL1        0.1122
     19 C           4.3858   75.1320   20.2345 C.ar    1  UNL1        0.0488
     20 C           3.4214   74.2450   20.7396 C.ar    1  UNL1        0.0154
     21 C           2.1246   74.2401   20.2192 C.ar    1  UNL1        0.0135
     22 C           1.7752   75.1147   19.1852 C.ar    1  UNL1        0.0683
     23 CL          0.1335   75.0780   18.5563 Cl      1  UNL1       -0.0814
     24 C           2.7347   76.0003   18.6674 C.ar    1  UNL1        0.0694
     25 CL          2.3407   77.1084   17.3600 Cl      1  UNL1       -0.0813
     26 C           4.0329   76.0044   19.1909 C.ar    1  UNL1        0.0268
     27 C           8.3682   78.9903   30.4899 C.2     1  UNL1        0.2443
     28 O           7.7943   79.6756   29.5994 O.2     1  UNL1       -0.2730
     29 N           9.2945   79.6067   31.3988 N.am    1  UNL1       -0.2825
     30 H           9.9654   78.9887   31.9090 H       1  UNL1        0.1549
     31 C           9.4316   81.0282   31.5645 C.ar    1  UNL1        0.0535
     32 C           9.0548   81.6693   32.7570 C.ar    1  UNL1        0.0353
     33 C           9.2302   83.0499   32.8819 C.ar    1  UNL1        0.1002
     34 N           9.7749   83.7640   31.8616 N.ar    1  UNL1       -0.2422
     35 C          10.1655   83.1675   30.7045 C.ar    1  UNL1        0.1002
     36 C          10.0090   81.7892   30.5389 C.ar    1  UNL1        0.0353
     37 C           6.9544   77.2506   31.5789 C.3     1  UNL1        0.0569
     38 C           5.7693   74.3666   30.4894 C.ar    1  UNL1        0.0084
     39 C           4.9951   73.3123   29.9403 C.ar    1  UNL1       -0.0018
     40 C           3.7178   73.5516   29.3998 C.ar    1  UNL1        0.0012
     41 C           3.1781   74.8426   29.3967 C.ar    1  UNL1        0.0169
     42 C           3.9361   75.8709   29.9471 C.ar    1  UNL1        0.0561
     43 N           3.5792   77.1617   30.0223 N.ar    1  UNL1       -0.3523
     44 C           4.6044   77.8018   30.6169 C.ar    1  UNL1        0.0681
     45 C           5.6267   76.9064   30.9393 C.ar    1  UNL1       -0.0019
     46 C           5.1878   75.6576   30.4870 C.ar    1  UNL1        0.0115
     47 H           2.6898   77.5909   29.6827 H       1  UNL1        0.1660
     48 C           7.1382   74.0997   31.0783 C.3     1  UNL1        0.1687
     49 C           9.3075   73.4073   30.6070 C.3     1  UNL1        0.1746
     50 O           8.1336   73.9822   30.0755 O.3     1  UNL1       -0.3463
@<TRIPOS>BOND
     1    49    50    1
     2    50    48    1
     3    48    38    1
     4    38    39   ar
     5    39    40   ar
     6    40    41   ar
     7    41    42   ar
     8    42    43   ar
     9    43    44   ar
    10    44    45   ar
    11    45    37    1
    12    37     1    1
    13     1     2    1
    14     2     3   am
    15     3     4    2
    16     3     6    1
    17     6     7   ar
    18     7     8   ar
    19     8     9   ar
    20     9    13    1
    21    13    14    1
    22    14    15    1
    23    15    16    1
    24    16    19    1
    25    19    20   ar
    26    20    21   ar
    27    21    22   ar
    28    22    23    1
    29    22    24   ar
    30    24    25    1
    31    24    26   ar
    32    16    17    1
    33    17    18    1
    34     9    10   ar
    35    10    11   ar
    36    11    12    1
    37     1    27    1
    38    27    28    2
    39    27    29   am
    40    29    31    1
    41    31    32   ar
    42    32    33   ar
    43    33    34   ar
    44    34    35   ar
    45    35    36   ar
    46    45    46   ar
    47    46    38   ar
    48    46    42   ar
    49    11     6   ar
    50    36    31   ar
    51    18    13    1
    52    26    19   ar
    53    43    47    1
    54     2     5    1
    55    29    30    1
@<TRIPOS>MOLECULE
*****
 50 55 0 0 0
SMALL
GASTEIGER

@<TRIPOS>ATOM
      1 C           9.3037   77.0482   28.6999 C.3     1  UNL1        0.1535
      2 N           8.5727   76.7878   27.4546 N.am    1  UNL1       -0.2945
      3 C           9.1576   76.0469   26.3719 C.2     1  UNL1        0.2483
      4 O          10.2543   75.4475   26.5437 O.2     1  UNL1       -0.2701
      5 H           7.5804   77.1046   27.3693 H       1  UNL1        0.1501
      6 C           8.4740   75.9464   25.0632 C.ar    1  UNL1        0.0808
      7 C           8.8241   76.8301   24.0289 C.ar    1  UNL1        0.0080
      8 C           8.1973   76.7499   22.7828 C.ar    1  UNL1        0.0148
      9 C           7.1957   75.7952   22.5512 C.ar    1  UNL1        0.0502
     10 C           6.8353   74.9187   23.5869 C.ar    1  UNL1        0.0443
     11 C           7.4619   74.9942   24.8347 C.ar    1  UNL1        0.1457
     12 F           7.0442   74.1652   25.8248 F       1  UNL1       -0.2040
     13 N           6.5588   75.7036   21.2625 N.pl3   1  UNL1       -0.3040
     14 C           6.1463   76.9161   20.5410 C.3     1  UNL1        0.1122
     15 C           4.6565   76.8283   20.1905 C.3     1  UNL1        0.1122
     16 N           4.2982   75.4867   19.7015 N.pl3   1  UNL1       -0.3040
     17 C           5.3555   74.4945   19.4589 C.3     1  UNL1        0.1122
     18 C           6.2512   74.3794   20.6976 C.3     1  UNL1        0.1122
     19 C           2.9105   75.1374   19.5375 C.ar    1  UNL1        0.0488
     20 C           2.0277   76.0156   18.8885 C.ar    1  UNL1        0.0154
     21 C           0.6791   75.6809   18.7412 C.ar    1  UNL1        0.0135
     22 C           0.1929   74.4697   19.2442 C.ar    1  UNL1        0.0683
     23 CL         -1.5106   74.0846   19.0398 Cl      1  UNL1       -0.0814
     24 C           1.0661   73.5878   19.9021 C.ar    1  UNL1        0.0694
     25 CL          0.4941   72.0603   20.5594 Cl      1  UNL1       -0.0813
     26 C           2.4169   73.9246   20.0477 C.ar    1  UNL1        0.0268
     27 C           9.3159   78.5290   28.9750 C.2     1  UNL1        0.2443
     28 O           8.7717   79.3157   28.1524 O.2     1  UNL1       -0.2730
     29 N           9.9661   79.0399   30.1500 N.am    1  UNL1       -0.2825
     30 H          10.6508   78.4205   30.6398 H       1  UNL1        0.1549
     31 C           9.8187   80.3879   30.6275 C.ar    1  UNL1        0.0535
     32 C          10.4043   81.4744   29.9555 C.ar    1  UNL1        0.0353
     33 C          10.2125   82.7699   30.4426 C.ar    1  UNL1        0.1002
     34 N           9.4528   82.9773   31.5505 N.ar    1  UNL1       -0.2422
     35 C           8.8593   81.9472   32.2095 C.ar    1  UNL1        0.1002
     36 C           9.0244   80.6366   31.7552 C.ar    1  UNL1        0.0353
     37 C           8.6587   76.3052   29.8883 C.3     1  UNL1        0.0569
     38 C           5.4024   75.9474   30.3099 C.ar    1  UNL1        0.0084
     39 C           4.0557   75.5025   30.3381 C.ar    1  UNL1       -0.0018
     40 C           3.6913   74.2495   29.8107 C.ar    1  UNL1        0.0012
     41 C           4.6552   73.4118   29.2389 C.ar    1  UNL1        0.0169
     42 C           5.9723   73.8577   29.2029 C.ar    1  UNL1        0.0561
     43 N           7.0195   73.1867   28.7005 N.ar    1  UNL1       -0.3523
     44 C           8.0943   73.9789   28.8774 C.ar    1  UNL1        0.0681
     45 C           7.7286   75.1799   29.4895 C.ar    1  UNL1       -0.0019
     46 C           6.3504   75.0842   29.7090 C.ar    1  UNL1        0.0115
     47 H           7.0103   72.2373   28.2655 H       1  UNL1        0.1660
     48 C           5.7850   77.3010   30.8699 C.3     1  UNL1        0.1687
     49 C           5.4348   78.5612   28.9474 C.3     1  UNL1        0.1746
     50 O           5.0328   78.3499   30.2833 O.3     1  UNL1       -0.3463
@<TRIPOS>BOND
     1    49    50    1
     2    50    48    1
     3    48    38    1
     4    38    39   ar
     5    39    40   ar
     6    40    41   ar
     7    41    42   ar
     8    42    43   ar
     9    43    44   ar
    10    44    45   ar
    11    45    37    1
    12    37     1    1
    13     1     2    1
    14     2     3   am
    15     3     4    2
    16     3     6    1
    17     6     7   ar
    18     7     8   ar
    19     8     9   ar
    20     9    13    1
    21    13    14    1
    22    14    15    1
    23    15    16    1
    24    16    19    1
    25    19    20   ar
    26    20    21   ar
    27    21    22   ar
    28    22    23    1
    29    22    24   ar
    30    24    25    1
    31    24    26   ar
    32    16    17    1
    33    17    18    1
    34     9    10   ar
    35    10    11   ar
    36    11    12    1
    37     1    27    1
    38    27    28    2
    39    27    29   am
    40    29    31    1
    41    31    32   ar
    42    32    33   ar
    43    33    34   ar
    44    34    35   ar
    45    35    36   ar
    46    45    46   ar
    47    46    38   ar
    48    46    42   ar
    49    11     6   ar
    50    36    31   ar
    51    18    13    1
    52    26    19   ar
    53    43    47    1
    54     2     5    1
    55    29    30    1
@<TRIPOS>MOLECULE
*****
 50 55 0 0 0
SMALL
GASTEIGER

@<TRIPOS>ATOM
      1 C          10.6069   76.1822   26.9415 C.3     1  UNL1        0.1535
      2 N           9.3885   76.3086   26.1337 N.am    1  UNL1       -0.2945
      3 C           9.2817   75.7264   24.8249 C.2     1  UNL1        0.2483
      4 O          10.1763   74.9365   24.4160 O.2     1  UNL1       -0.2701
      5 H           8.5547   76.7911   26.5393 H       1  UNL1        0.1501
      6 C           8.1166   76.0127   23.9586 C.ar    1  UNL1        0.0808
      7 C           8.2869   76.7950   22.8044 C.ar    1  UNL1        0.0080
      8 C           7.2030   77.0729   21.9677 C.ar    1  UNL1        0.0148
      9 C           5.9234   76.5880   22.2774 C.ar    1  UNL1        0.0502
     10 C           5.7480   75.8160   23.4368 C.ar    1  UNL1        0.0443
     11 C           6.8306   75.5337   24.2755 C.ar    1  UNL1        0.1457
     12 F           6.6064   74.8314   25.4149 F       1  UNL1       -0.2040
     13 N           4.8085   76.8632   21.4079 N.pl3   1  UNL1       -0.3040
     14 C           3.5870   77.4929   21.9296 C.3     1  UNL1        0.1122
     15 C           2.3713   76.6219   21.5929 C.3     1  UNL1        0.1122
     16 N           2.4413   76.1125   20.2134 N.pl3   1  UNL1       -0.3040
     17 C           3.5021   76.5900   19.3147 C.3     1  UNL1        0.1122
     18 C           4.8658   76.4409   19.9987 C.3     1  UNL1        0.1122
     19 C           1.5151   75.0968   19.7832 C.ar    1  UNL1        0.0488
     20 C           0.5480   75.3836   18.8063 C.ar    1  UNL1        0.0154
     21 C          -0.3579   74.4008   18.3990 C.ar    1  UNL1        0.0135
     22 C          -0.3147   73.1223   18.9646 C.ar    1  UNL1        0.0683
     23 CL         -1.4720   71.9128   18.4263 Cl      1  UNL1       -0.0814
     24 C           0.6437   72.8276   19.9483 C.ar    1  UNL1        0.0694
     25 CL          0.7255   71.2369   20.6935 Cl      1  UNL1       -0.0813
     26 C           1.5509   73.8133   20.3542 C.ar    1  UNL1        0.0268
     27 C          11.6167   77.2046   26.4907 C.2     1  UNL1        0.2443
     28 O          11.9649   78.1220   27.2838 O.2     1  UNL1       -0.2730
     29 N          12.1558   77.1493   25.1601 N.am    1  UNL1       -0.2825
     30 H          11.6419   76.5851   24.4460 H       1  UNL1        0.1549
     31 C          13.2933   77.9117   24.7219 C.ar    1  UNL1        0.0535
     32 C          13.4729   79.2515   25.1062 C.ar    1  UNL1        0.0353
     33 C          14.6073   79.9450   24.6767 C.ar    1  UNL1        0.1002
     34 N          15.5366   79.3223   23.9045 N.ar    1  UNL1       -0.2422
     35 C          15.3980   78.0221   23.5334 C.ar    1  UNL1        0.1002
     36 C          14.2794   77.2920   23.9423 C.ar    1  UNL1        0.0353
     37 C          10.3022   76.3802   28.4409 C.3     1  UNL1        0.0569
     38 C           7.8647   77.4137   30.4157 C.ar    1  UNL1        0.0084
     39 C           6.6988   77.5509   31.2121 C.ar    1  UNL1       -0.0018
     40 C           5.7940   76.4843   31.3687 C.ar    1  UNL1        0.0012
     41 C           6.0238   75.2586   30.7340 C.ar    1  UNL1        0.0169
     42 C           7.1621   75.1330   29.9445 C.ar    1  UNL1        0.0561
     43 N           7.5394   74.0353   29.2723 N.ar    1  UNL1       -0.3523
     44 C           8.6935   74.3507   28.6536 C.ar    1  UNL1        0.0681
     45 C           9.0536   75.6732   28.9223 C.ar    1  UNL1       -0.0019
     46 C           8.0592   76.1671   29.7731 C.ar    1  UNL1        0.0115
     47 H           7.0455   73.1157   29.2382 H       1  UNL1        0.1660
     48 C           8.8281   78.5689   30.2437 C.3     1  UNL1        0.1687
     49 C           9.2533   80.6437   31.2034 C.3     1  UNL1        0.1746
     50 O           9.0342   79.2731   31.4569 O.3     1  UNL1       -0.3463
@<TRIPOS>BOND
     1    49    50    1
     2    50    48    1
     3    48    38    1
     4    38    39   ar
     5    39    40   ar
     6    40    41   ar
     7    41    42   ar
     8    42    43   ar
     9    43    44   ar
    10    44    45   ar
    11    45    37    1
    12    37     1    1
    13     1     2    1
    14     2     3   am
    15     3     4    2
    16     3     6    1
    17     6     7   ar
    18     7     8   ar
    19     8     9   ar
    20     9    13    1
    21    13    14    1
    22    14    15    1
    23    15    16    1
    24    16    19    1
    25    19    20   ar
    26    20    21   ar
    27    21    22   ar
    28    22    23    1
    29    22    24   ar
    30    24    25    1
    31    24    26   ar
    32    16    17    1
    33    17    18    1
    34     9    10   ar
    35    10    11   ar
    36    11    12    1
    37     1    27    1
    38    27    28    2
    39    27    29   am
    40    29    31    1
    41    31    32   ar
    42    32    33   ar
    43    33    34   ar
    44    34    35   ar
    45    35    36   ar
    46    45    46   ar
    47    46    38   ar
    48    46    42   ar
    49    11     6   ar
    50    36    31   ar
    51    18    13    1
    52    26    19   ar
    53    43    47    1
    54     2     5    1
    55    29    30    1
@<TRIPOS>MOLECULE
*****
 50 55 0 0 0
SMALL
GASTEIGER

@<TRIPOS>ATOM
      1 C          10.9198   76.7547   26.1028 C.3     1  UNL1        0.1535
      2 N           9.6996   76.7127   25.2889 N.am    1  UNL1       -0.2945
      3 C           9.7432   76.7465   23.8536 C.2     1  UNL1        0.2483
      4 O          10.8491   76.6307   23.2577 O.2     1  UNL1       -0.2701
      5 H           8.7739   76.6034   25.7618 H       1  UNL1        0.1501
      6 C           8.5022   76.8806   23.0586 C.ar    1  UNL1        0.0808
      7 C           7.4657   75.9479   23.2292 C.ar    1  UNL1        0.0080
      8 C           6.2823   76.0580   22.4947 C.ar    1  UNL1        0.0148
      9 C           6.1182   77.0935   21.5624 C.ar    1  UNL1        0.0502
     10 C           7.1573   78.0200   21.3811 C.ar    1  UNL1        0.0443
     11 C           8.3423   77.9146   22.1159 C.ar    1  UNL1        0.1457
     12 F           9.3427   78.7978   21.8692 F       1  UNL1       -0.2040
     13 N           4.8930   77.2149   20.8148 N.pl3   1  UNL1       -0.3040
     14 C           3.6923   77.7978   21.4306 C.3     1  UNL1        0.1122
     15 C           2.5201   76.8176   21.3084 C.3     1  UNL1        0.1122
     16 N           2.4732   76.2006   19.9725 N.pl3   1  UNL1       -0.3040
     17 C           3.3829   76.6751   18.9198 C.3     1  UNL1        0.1122
     18 C           4.8232   76.6811   19.4445 C.3     1  UNL1        0.1122
     19 C           1.5886   75.0891   19.7338 C.ar    1  UNL1        0.0488
     20 C           1.8733   73.8246   20.2739 C.ar    1  UNL1        0.0154
     21 C           1.0208   72.7444   20.0311 C.ar    1  UNL1        0.0135
     22 C          -0.1222   72.9101   19.2423 C.ar    1  UNL1        0.0683
     23 CL         -1.1699   71.5266   18.9590 Cl      1  UNL1       -0.0814
     24 C          -0.4117   74.1691   18.6907 C.ar    1  UNL1        0.0694
     25 CL         -1.8319   74.4184   17.6841 Cl      1  UNL1       -0.0813
     26 C           0.4430   75.2501   18.9360 C.ar    1  UNL1        0.0268
     27 C          11.8673   77.7787   25.5352 C.2     1  UNL1        0.2443
     28 O          11.6372   79.0052   25.7216 O.2     1  UNL1       -0.2730
     29 N          13.0061   77.3605   24.7656 N.am    1  UNL1       -0.2825
     30 H          13.0064   76.3897   24.3784 H       1  UNL1        0.1549
     31 C          14.0917   78.2295   24.4004 C.ar    1  UNL1        0.0535
     32 C          14.2931   79.4640   25.0411 C.ar    1  UNL1        0.0353
     33 C          15.3770   80.2638   24.6700 C.ar    1  UNL1        0.1002
     34 N          16.2378   79.8428   23.7060 N.ar    1  UNL1       -0.2422
     35 C          16.0781   78.6454   23.0829 C.ar    1  UNL1        0.1002
     36 C          15.0084   77.8146   23.4247 C.ar    1  UNL1        0.0353
     37 C          10.5967   77.1044   27.5704 C.3     1  UNL1        0.0569
     38 C           7.6557   76.5717   28.9762 C.ar    1  UNL1        0.0084
     39 C           6.5366   76.0607   29.6824 C.ar    1  UNL1       -0.0018
     40 C           6.6049   74.8313   30.3642 C.ar    1  UNL1        0.0012
     41 C           7.7847   74.0788   30.3560 C.ar    1  UNL1        0.0169
     42 C           8.8754   74.5785   29.6520 C.ar    1  UNL1        0.0561
     43 N          10.0787   73.9959   29.5433 N.ar    1  UNL1       -0.3523
     44 C          10.8286   74.8195   28.7858 C.ar    1  UNL1        0.0681
     45 C          10.0913   75.9386   28.3925 C.ar    1  UNL1       -0.0019
     46 C           8.8285   75.7783   28.9726 C.ar    1  UNL1        0.0115
     47 H          10.3813   73.0900   29.9655 H       1  UNL1        0.1660
     48 C           7.5714   77.8900   28.2366 C.3     1  UNL1        0.1687
     49 C           6.2429   77.0360   26.5300 C.3     1  UNL1        0.1746
     50 O           7.4463   77.7060   26.8363 O.3     1  UNL1       -0.3463
@<TRIPOS>BOND
     1    49    50    1
     2    50    48    1
     3    48    38    1
     4    38    39   ar
     5    39    40   ar
     6    40    41   ar
     7    41    42   ar
     8    42    43   ar
     9    43    44   ar
    10    44    45   ar
    11    45    37    1
    12    37     1    1
    13     1     2    1
    14     2     3   am
    15     3     4    2
    16     3     6    1
    17     6     7   ar
    18     7     8   ar
    19     8     9   ar
    20     9    13    1
    21    13    14    1
    22    14    15    1
    23    15    16    1
    24    16    19    1
    25    19    20   ar
    26    20    21   ar
    27    21    22   ar
    28    22    23    1
    29    22    24   ar
    30    24    25    1
    31    24    26   ar
    32    16    17    1
    33    17    18    1
    34     9    10   ar
    35    10    11   ar
    36    11    12    1
    37     1    27    1
    38    27    28    2
    39    27    29   am
    40    29    31    1
    41    31    32   ar
    42    32    33   ar
    43    33    34   ar
    44    34    35   ar
    45    35    36   ar
    46    45    46   ar
    47    46    38   ar
    48    46    42   ar
    49    11     6   ar
    50    36    31   ar
    51    18    13    1
    52    26    19   ar
    53    43    47    1
    54     2     5    1
    55    29    30    1
@<TRIPOS>MOLECULE
*****
 50 55 0 0 0
SMALL
GASTEIGER

@<TRIPOS>ATOM
      1 C           5.8559   73.3788   21.4822 C.3     1  UNL1        0.1535
      2 N           6.0683   73.8126   22.8677 N.am    1  UNL1       -0.2945
      3 C           6.1236   75.2020   23.2280 C.2     1  UNL1        0.2483
      4 O           5.8086   76.0817   22.3805 O.2     1  UNL1       -0.2701
      5 H           6.1304   73.0939   23.6241 H       1  UNL1        0.1501
      6 C           6.5125   75.6180   24.5940 C.ar    1  UNL1        0.0808
      7 C           7.7300   75.1715   25.1341 C.ar    1  UNL1        0.0080
      8 C           8.1213   75.5566   26.4189 C.ar    1  UNL1        0.0148
      9 C           7.2951   76.3823   27.1960 C.ar    1  UNL1        0.0502
     10 C           6.0722   76.8201   26.6634 C.ar    1  UNL1        0.0443
     11 C           5.6780   76.4389   25.3770 C.ar    1  UNL1        0.1457
     12 F           4.4633   76.8385   24.9225 F       1  UNL1       -0.2040
     13 N           7.7045   76.7901   28.5154 N.pl3   1  UNL1       -0.3040
     14 C           6.7069   77.1451   29.5349 C.3     1  UNL1        0.1122
     15 C           6.9987   78.5486   30.0781 C.3     1  UNL1        0.1122
     16 N           8.4386   78.7442   30.3145 N.pl3   1  UNL1       -0.3040
     17 C           9.3595   77.6068   30.1757 C.3     1  UNL1        0.1122
     18 C           9.1384   76.9242   28.8211 C.3     1  UNL1        0.1122
     19 C           8.9381   80.0634   30.6061 C.ar    1  UNL1        0.0488
     20 C           9.7681   80.7285   29.6893 C.ar    1  UNL1        0.0154
     21 C          10.2620   82.0031   29.9790 C.ar    1  UNL1        0.0135
     22 C           9.9396   82.6275   31.1883 C.ar    1  UNL1        0.0683
     23 CL         10.5811   84.2314   31.5168 Cl      1  UNL1       -0.0814
     24 C           9.1165   81.9674   32.1156 C.ar    1  UNL1        0.0694
     25 CL          8.6959   82.7114   33.6525 Cl      1  UNL1       -0.0813
     26 C           8.6220   80.6910   31.8230 C.ar    1  UNL1        0.0268
     27 C           4.9359   74.3482   20.7878 C.2     1  UNL1        0.2443
     28 O           3.7351   74.4396   21.1640 O.2     1  UNL1       -0.2730
     29 N           5.4168   75.1398   19.6895 N.am    1  UNL1       -0.2825
     30 H           6.2963   74.8354   19.2139 H       1  UNL1        0.1549
     31 C           4.7046   76.2576   19.1325 C.ar    1  UNL1        0.0535
     32 C           3.5690   76.0773   18.3244 C.ar    1  UNL1        0.0353
     33 C           2.8938   77.1945   17.8262 C.ar    1  UNL1        0.1002
     34 N           3.3253   78.4463   18.1337 N.ar    1  UNL1       -0.2422
     35 C           4.4092   78.6504   18.9280 C.ar    1  UNL1        0.1002
     36 C           5.1121   77.5610   19.4480 C.ar    1  UNL1        0.0353
     37 C           7.1924   73.2925   20.7162 C.3     1  UNL1        0.0569
     38 C           9.7777   74.8713   22.0325 C.ar    1  UNL1        0.0084
     39 C          10.9708   75.2444   22.7031 C.ar    1  UNL1       -0.0018
     40 C          11.7752   74.2853   23.3465 C.ar    1  UNL1        0.0012
     41 C          11.4106   72.9343   23.3428 C.ar    1  UNL1        0.0169
     42 C          10.2337   72.5752   22.6942 C.ar    1  UNL1        0.0561
     43 N           9.7383   71.3333   22.5877 N.ar    1  UNL1       -0.3523
     44 C           8.5974   71.4424   21.8802 C.ar    1  UNL1        0.0681
     45 C           8.3512   72.7745   21.5403 C.ar    1  UNL1       -0.0019
     46 C           9.4277   73.4996   22.0620 C.ar    1  UNL1        0.0115
     47 H          10.1537   70.4539   22.9681 H       1  UNL1        0.1660
     48 C           8.9122   75.9101   21.3514 C.3     1  UNL1        0.1687
     49 C           8.7097   78.2216   21.1999 C.3     1  UNL1        0.1746
     50 O           8.8757   77.1282   22.0761 O.3     1  UNL1       -0.3463
@<TRIPOS>BOND
     1    49    50    1
     2    50    48    1
     3    48    38    1
     4    38    39   ar
     5    39    40   ar
     6    40    41   ar
     7    41    42   ar
     8    42    43   ar
     9    43    44   ar
    10    44    45   ar
    11    45    37    1
    12    37     1    1
    13     1     2    1
    14     2     3   am
    15     3     4    2
    16     3     6    1
    17     6     7   ar
    18     7     8   ar
    19     8     9   ar
    20     9    13    1
    21    13    14    1
    22    14    15    1
    23    15    16    1
    24    16    19    1
    25    19    20   ar
    26    20    21   ar
    27    21    22   ar
    28    22    23    1
    29    22    24   ar
    30    24    25    1
    31    24    26   ar
    32    16    17    1
    33    17    18    1
    34     9    10   ar
    35    10    11   ar
    36    11    12    1
    37     1    27    1
    38    27    28    2
    39    27    29   am
    40    29    31    1
    41    31    32   ar
    42    32    33   ar
    43    33    34   ar
    44    34    35   ar
    45    35    36   ar
    46    45    46   ar
    47    46    38   ar
    48    46    42   ar
    49    11     6   ar
    50    36    31   ar
    51    18    13    1
    52    26    19   ar
    53    43    47    1
    54     2     5    1
    55    29    30    1
@<TRIPOS>MOLECULE
*****
 50 55 0 0 0
SMALL
GASTEIGER

@<TRIPOS>ATOM
      1 C           9.4120   77.2226   28.7647 C.3     1  UNL1        0.1535
      2 N           8.7200   76.9422   27.5016 N.am    1  UNL1       -0.2945
      3 C           9.3028   76.1111   26.4852 C.2     1  UNL1        0.2483
      4 O          10.3511   75.4559   26.7369 O.2     1  UNL1       -0.2701
      5 H           7.7542   77.3138   27.3550 H       1  UNL1        0.1501
      6 C           8.6710   75.9838   25.1530 C.ar    1  UNL1        0.0808
      7 C           9.1231   74.9953   24.2633 C.ar    1  UNL1        0.0080
      8 C           8.5375   74.8517   23.0029 C.ar    1  UNL1        0.0148
      9 C           7.4991   75.7049   22.6004 C.ar    1  UNL1        0.0502
     10 C           7.0534   76.7016   23.4829 C.ar    1  UNL1        0.0443
     11 C           7.6353   76.8471   24.7460 C.ar    1  UNL1        0.1457
     12 F           7.2125   77.8588   25.5456 F       1  UNL1       -0.2040
     13 N           6.8864   75.5485   21.3062 N.pl3   1  UNL1       -0.3040
     14 C           6.5950   76.7196   20.4669 C.3     1  UNL1        0.1122
     15 C           5.1116   76.7234   20.0805 C.3     1  UNL1        0.1122
     16 N           4.6517   75.3768   19.7028 N.pl3   1  UNL1       -0.3040
     17 C           5.6260   74.2826   19.5823 C.3     1  UNL1        0.1122
     18 C           6.4802   74.2079   20.8530 C.3     1  UNL1        0.1122
     19 C           3.2434   75.1298   19.5285 C.ar    1  UNL1        0.0488
     20 C           2.4353   76.0620   18.8578 C.ar    1  UNL1        0.0154
     21 C           1.0670   75.8268   18.7004 C.ar    1  UNL1        0.0135
     22 C           0.4865   74.6628   19.2148 C.ar    1  UNL1        0.0683
     23 CL         -1.2389   74.4031   18.9972 Cl      1  UNL1       -0.0814
     24 C           1.2847   73.7279   19.8944 C.ar    1  UNL1        0.0694
     25 CL          0.5936   72.2571   20.5665 Cl      1  UNL1       -0.0813
     26 C           2.6554   73.9648   20.0500 C.ar    1  UNL1        0.0268
     27 C           9.2702   78.6838   29.1015 C.2     1  UNL1        0.2443
     28 O           8.4818   79.4008   28.4261 O.2     1  UNL1       -0.2730
     29 N          10.0473   79.2586   30.1645 N.am    1  UNL1       -0.2825
     30 H          10.8885   78.7342   30.4956 H       1  UNL1        0.1549
     31 C           9.8053   80.5613   30.7225 C.ar    1  UNL1        0.0535
     32 C           9.1414   80.7236   31.9505 C.ar    1  UNL1        0.0353
     33 C           8.9514   82.0083   32.4661 C.ar    1  UNL1        0.1002
     34 N           9.4187   83.0912   31.7905 N.ar    1  UNL1       -0.2422
     35 C          10.0806   82.9626   30.6103 C.ar    1  UNL1        0.1002
     36 C          10.2931   81.6962   30.0603 C.ar    1  UNL1        0.0353
     37 C           8.8386   76.3675   29.9138 C.3     1  UNL1        0.0569
     38 C           5.8725   74.9882   29.4562 C.ar    1  UNL1        0.0084
     39 C           4.4933   74.6571   29.4374 C.ar    1  UNL1       -0.0018
     40 C           3.5375   75.4818   30.0596 C.ar    1  UNL1        0.0012
     41 C           3.9303   76.6519   30.7191 C.ar    1  UNL1        0.0169
     42 C           5.2851   76.9659   30.7450 C.ar    1  UNL1        0.0561
     43 N           5.8345   78.0444   31.3231 N.ar    1  UNL1       -0.3523
     44 C           7.1603   77.9553   31.1030 C.ar    1  UNL1        0.0681
     45 C           7.4661   76.7966   30.3856 C.ar    1  UNL1       -0.0019
     46 C           6.2390   76.1690   30.1464 C.ar    1  UNL1        0.0115
     47 H           5.3380   78.8071   31.8354 H       1  UNL1        0.1660
     48 C           6.8959   74.0907   28.7935 C.3     1  UNL1        0.1687
     49 C           6.2441   73.8048   26.5798 C.3     1  UNL1        0.1746
     50 O           6.3005   73.2081   27.8571 O.3     1  UNL1       -0.3463
@<TRIPOS>BOND
     1    49    50    1
     2    50    48    1
     3    48    38    1
     4    38    39   ar
     5    39    40   ar
     6    40    41   ar
     7    41    42   ar
     8    42    43   ar
     9    43    44   ar
    10    44    45   ar
    11    45    37    1
    12    37     1    1
    13     1     2    1
    14     2     3   am
    15     3     4    2
    16     3     6    1
    17     6     7   ar
    18     7     8   ar
    19     8     9   ar
    20     9    13    1
    21    13    14    1
    22    14    15    1
    23    15    16    1
    24    16    19    1
    25    19    20   ar
    26    20    21   ar
    27    21    22   ar
    28    22    23    1
    29    22    24   ar
    30    24    25    1
    31    24    26   ar
    32    16    17    1
    33    17    18    1
    34     9    10   ar
    35    10    11   ar
    36    11    12    1
    37     1    27    1
    38    27    28    2
    39    27    29   am
    40    29    31    1
    41    31    32   ar
    42    32    33   ar
    43    33    34   ar
    44    34    35   ar
    45    35    36   ar
    46    45    46   ar
    47    46    38   ar
    48    46    42   ar
    49    11     6   ar
    50    36    31   ar
    51    18    13    1
    52    26    19   ar
    53    43    47    1
    54     2     5    1
    55    29    30    1
