@<TRIPOS>MOLECULE
*****
 20 22 0 0 0
SMALL
GASTEIGER

@<TRIPOS>ATOM
      1 O         -21.8552   -7.7777  -12.4933 O.2     1  UNL1       -0.2681
      2 C         -21.7160   -8.6722  -13.3697 C.2     1  UNL1        0.2700
      3 N         -21.5429  -10.0343  -12.9528 N.am    1  UNL1       -0.2645
      4 H         -21.0763  -10.2030  -12.0328 H       1  UNL1        0.1566
      5 C         -22.1155  -11.1568  -13.6418 C.ar    1  UNL1        0.1344
      6 C         -21.3270  -11.9170  -14.5166 C.ar    1  UNL1        0.0345
      7 C         -21.8824  -13.0200  -15.1688 C.ar    1  UNL1        0.0044
      8 C         -23.2197  -13.3644  -14.9389 C.ar    1  UNL1        0.0178
      9 C         -23.8111  -14.4644  -15.5780 C.ar    1  UNL1        0.0015
     10 C         -25.1496  -14.7821  -15.3245 C.ar    1  UNL1        0.0001
     11 C         -25.9012  -14.0069  -14.4350 C.ar    1  UNL1        0.0015
     12 C         -25.3188  -12.9091  -13.7934 C.ar    1  UNL1        0.0191
     13 C         -23.9806  -12.5834  -14.0411 C.ar    1  UNL1        0.0827
     14 N         -23.4112  -11.5164  -13.4203 N.ar    1  UNL1       -0.2305
     15 C         -21.6735   -8.2856  -14.7922 C.ar    1  UNL1        0.1556
     16 C         -22.7688   -7.9984  -15.5863 C.ar    1  UNL1        0.0454
     17 C         -22.2263   -7.6599  -16.8072 C.ar    1  UNL1        0.0925
     18 N         -20.8869   -7.7390  -16.7207 N.ar    1  UNL1       -0.2742
     19 N         -20.5399   -8.1123  -15.5002 N.ar    1  UNL1       -0.1680
     20 H         -20.2087   -7.5355  -17.4877 H       1  UNL1        0.1890
@<TRIPOS>BOND
     1     1     2    2
     2     2     3   am
     3     3     5    1
     4     5     6   ar
     5     6     7   ar
     6     7     8   ar
     7     8     9   ar
     8     9    10   ar
     9    10    11   ar
    10    11    12   ar
    11    12    13   ar
    12    13    14   ar
    13     2    15    1
    14    15    16   ar
    15    16    17   ar
    16    17    18   ar
    17    18    19   ar
    18    14     5   ar
    19    19    15   ar
    20    13     8   ar
    21     3     4    1
    22    18    20    1
@<TRIPOS>MOLECULE
*****
 20 22 0 0 0
SMALL
GASTEIGER

@<TRIPOS>ATOM
      1 O         -21.4698   -7.5779  -12.4834 O.2     1  UNL1       -0.2681
      2 C         -21.6376   -8.5331  -13.2878 C.2     1  UNL1        0.2700
      3 N         -21.6652   -9.8746  -12.7795 N.am    1  UNL1       -0.2645
      4 H         -21.1050  -10.0781  -11.9207 H       1  UNL1        0.1566
      5 C         -22.5383  -10.8985  -13.2814 C.ar    1  UNL1        0.1344
      6 C         -23.9278  -10.7453  -13.1784 C.ar    1  UNL1        0.0345
      7 C         -24.7733  -11.7340  -13.6862 C.ar    1  UNL1        0.0044
      8 C         -24.2288  -12.8673  -14.3018 C.ar    1  UNL1        0.0178
      9 C         -25.0477  -13.8811  -14.8213 C.ar    1  UNL1        0.0015
     10 C         -24.4710  -14.9998  -15.4319 C.ar    1  UNL1        0.0001
     11 C         -23.0797  -15.1113  -15.5271 C.ar    1  UNL1        0.0015
     12 C         -22.2565  -14.1047  -15.0123 C.ar    1  UNL1        0.0191
     13 C         -22.8244  -12.9821  -14.3994 C.ar    1  UNL1        0.0827
     14 N         -22.0276  -12.0021  -13.8967 N.ar    1  UNL1       -0.2305
     15 C         -21.7387   -8.2490  -14.7314 C.ar    1  UNL1        0.1556
     16 C         -22.9051   -7.9792  -15.4238 C.ar    1  UNL1        0.0454
     17 C         -22.4889   -7.7467  -16.7169 C.ar    1  UNL1        0.0925
     18 N         -21.1507   -7.8674  -16.7674 N.ar    1  UNL1       -0.2742
     19 N         -20.6841   -8.1664  -15.5664 N.ar    1  UNL1       -0.1680
     20 H         -20.5542   -7.7426  -17.6149 H       1  UNL1        0.1890
@<TRIPOS>BOND
     1     1     2    2
     2     2     3   am
     3     3     5    1
     4     5     6   ar
     5     6     7   ar
     6     7     8   ar
     7     8     9   ar
     8     9    10   ar
     9    10    11   ar
    10    11    12   ar
    11    12    13   ar
    12    13    14   ar
    13     2    15    1
    14    15    16   ar
    15    16    17   ar
    16    17    18   ar
    17    18    19   ar
    18    14     5   ar
    19    19    15   ar
    20    13     8   ar
    21     3     4    1
    22    18    20    1
@<TRIPOS>MOLECULE
*****
 20 22 0 0 0
SMALL
GASTEIGER

@<TRIPOS>ATOM
      1 O         -26.0219  -14.0889  -12.9971 O.2     1  UNL1       -0.2681
      2 C         -25.5092  -13.5938  -14.0361 C.2     1  UNL1        0.2700
      3 N         -25.6724  -12.1915  -14.2928 N.am    1  UNL1       -0.2645
      4 H         -26.5397  -11.7318  -13.9335 H       1  UNL1        0.1566
      5 C         -24.6481  -11.3618  -14.8628 C.ar    1  UNL1        0.1344
      6 C         -24.3696  -11.4372  -16.2346 C.ar    1  UNL1        0.0345
      7 C         -23.3868  -10.6138  -16.7882 C.ar    1  UNL1        0.0044
      8 C         -22.6921   -9.7130  -15.9722 C.ar    1  UNL1        0.0178
      9 C         -21.6974   -8.8723  -16.4937 C.ar    1  UNL1        0.0015
     10 C         -21.0234   -7.9823  -15.6508 C.ar    1  UNL1        0.0001
     11 C         -21.3380   -7.9270  -14.2888 C.ar    1  UNL1        0.0015
     12 C         -22.3287   -8.7613  -13.7613 C.ar    1  UNL1        0.0191
     13 C         -23.0081   -9.6551  -14.5968 C.ar    1  UNL1        0.0827
     14 N         -23.9709  -10.4686  -14.0876 N.ar    1  UNL1       -0.2305
     15 C         -24.8110  -14.4795  -14.9863 C.ar    1  UNL1        0.1556
     16 C         -23.5012  -14.9105  -14.8789 C.ar    1  UNL1        0.0454
     17 C         -23.3225  -15.7354  -15.9684 C.ar    1  UNL1        0.0925
     18 N         -24.4718  -15.7854  -16.6645 N.ar    1  UNL1       -0.2742
     19 N         -25.3841  -15.0313  -16.0742 N.ar    1  UNL1       -0.1680
     20 H         -24.6383  -16.3341  -17.5367 H       1  UNL1        0.1890
@<TRIPOS>BOND
     1     1     2    2
     2     2     3   am
     3     3     5    1
     4     5     6   ar
     5     6     7   ar
     6     7     8   ar
     7     8     9   ar
     8     9    10   ar
     9    10    11   ar
    10    11    12   ar
    11    12    13   ar
    12    13    14   ar
    13     2    15    1
    14    15    16   ar
    15    16    17   ar
    16    17    18   ar
    17    18    19   ar
    18    14     5   ar
    19    19    15   ar
    20    13     8   ar
    21     3     4    1
    22    18    20    1
@<TRIPOS>MOLECULE
*****
 20 22 0 0 0
SMALL
GASTEIGER

@<TRIPOS>ATOM
      1 O         -31.5795   -1.6106  -17.6224 O.2     1  UNL1       -0.2681
      2 C         -31.2146   -2.5190  -16.8292 C.2     1  UNL1        0.2700
      3 N         -30.2757   -3.5043  -17.2836 N.am    1  UNL1       -0.2645
      4 H         -30.2813   -3.7450  -18.3008 H       1  UNL1        0.1566
      5 C         -29.2322   -4.0490  -16.4608 C.ar    1  UNL1        0.1344
      6 C         -27.9752   -3.4297  -16.4240 C.ar    1  UNL1        0.0345
      7 C         -26.9698   -3.9510  -15.6068 C.ar    1  UNL1        0.0044
      8 C         -27.2256   -5.0828  -14.8237 C.ar    1  UNL1        0.0178
      9 C         -26.2390   -5.6346  -13.9929 C.ar    1  UNL1        0.0015
     10 C         -26.5283   -6.7654  -13.2218 C.ar    1  UNL1        0.0001
     11 C         -27.7990   -7.3482  -13.2757 C.ar    1  UNL1        0.0015
     12 C         -28.7882   -6.8038  -14.1009 C.ar    1  UNL1        0.0191
     13 C         -28.5078   -5.6730  -14.8761 C.ar    1  UNL1        0.0827
     14 N         -29.4662   -5.1415  -15.6804 N.ar    1  UNL1       -0.2305
     15 C         -31.8087   -2.5782  -15.4807 C.ar    1  UNL1        0.1556
     16 C         -32.7339   -3.5088  -15.0436 C.ar    1  UNL1        0.0454
     17 C         -32.9530   -3.1787  -13.7236 C.ar    1  UNL1        0.0925
     18 N         -32.1878   -2.1180  -13.4116 N.ar    1  UNL1       -0.2742
     19 N         -31.4846   -1.7487  -14.4692 N.ar    1  UNL1       -0.1680
     20 H         -32.1395   -1.6480  -12.4808 H       1  UNL1        0.1890
@<TRIPOS>BOND
     1     1     2    2
     2     2     3   am
     3     3     5    1
     4     5     6   ar
     5     6     7   ar
     6     7     8   ar
     7     8     9   ar
     8     9    10   ar
     9    10    11   ar
    10    11    12   ar
    11    12    13   ar
    12    13    14   ar
    13     2    15    1
    14    15    16   ar
    15    16    17   ar
    16    17    18   ar
    17    18    19   ar
    18    14     5   ar
    19    19    15   ar
    20    13     8   ar
    21     3     4    1
    22    18    20    1
@<TRIPOS>MOLECULE
*****
 20 22 0 0 0
SMALL
GASTEIGER

@<TRIPOS>ATOM
      1 O         -20.8928   -7.6101  -16.7831 O.2     1  UNL1       -0.2681
      2 C         -21.7884   -8.3284  -16.2640 C.2     1  UNL1        0.2700
      3 N         -22.4396   -9.3205  -17.0706 N.am    1  UNL1       -0.2645
      4 H         -22.5264   -9.1305  -18.0948 H       1  UNL1        0.1566
      5 C         -22.8250  -10.6154  -16.5833 C.ar    1  UNL1        0.1344
      6 C         -21.9690  -11.7117  -16.7578 C.ar    1  UNL1        0.0345
      7 C         -22.3388  -12.9647  -16.2642 C.ar    1  UNL1        0.0044
      8 C         -23.5572  -13.1164  -15.5916 C.ar    1  UNL1        0.0178
      9 C         -23.9617  -14.3604  -15.0844 C.ar    1  UNL1        0.0015
     10 C         -25.1848  -14.4770  -14.4156 C.ar    1  UNL1        0.0001
     11 C         -26.0065  -13.3570  -14.2500 C.ar    1  UNL1        0.0015
     12 C         -25.6102  -12.1134  -14.7521 C.ar    1  UNL1        0.0191
     13 C         -24.3885  -11.9872  -15.4228 C.ar    1  UNL1        0.0827
     14 N         -24.0003  -10.7803  -15.9134 N.ar    1  UNL1       -0.2305
     15 C         -22.1828   -8.0870  -14.8637 C.ar    1  UNL1        0.1556
     16 C         -21.3359   -8.0991  -13.7703 C.ar    1  UNL1        0.0454
     17 C         -22.1508   -7.7874  -12.7034 C.ar    1  UNL1        0.0925
     18 N         -23.4018   -7.5967  -13.1577 N.ar    1  UNL1       -0.2742
     19 N         -23.4318   -7.7702  -14.4686 N.ar    1  UNL1       -0.1680
     20 H         -24.2335   -7.3446  -12.5795 H       1  UNL1        0.1890
@<TRIPOS>BOND
     1     1     2    2
     2     2     3   am
     3     3     5    1
     4     5     6   ar
     5     6     7   ar
     6     7     8   ar
     7     8     9   ar
     8     9    10   ar
     9    10    11   ar
    10    11    12   ar
    11    12    13   ar
    12    13    14   ar
    13     2    15    1
    14    15    16   ar
    15    16    17   ar
    16    17    18   ar
    17    18    19   ar
    18    14     5   ar
    19    19    15   ar
    20    13     8   ar
    21     3     4    1
    22    18    20    1
@<TRIPOS>MOLECULE
*****
 20 22 0 0 0
SMALL
GASTEIGER

@<TRIPOS>ATOM
      1 O         -22.7309  -16.0542  -15.5217 O.2     1  UNL1       -0.2681
      2 C         -23.0146  -14.8530  -15.2681 C.2     1  UNL1        0.2700
      3 N         -21.9856  -13.8582  -15.3696 N.am    1  UNL1       -0.2645
      4 H         -21.0026  -14.1578  -15.1784 H       1  UNL1        0.1566
      5 C         -22.2072  -12.5318  -15.8738 C.ar    1  UNL1        0.1344
      6 C         -22.8186  -12.3511  -17.1222 C.ar    1  UNL1        0.0345
      7 C         -23.0506  -11.0593  -17.5993 C.ar    1  UNL1        0.0044
      8 C         -22.6792   -9.9536  -16.8252 C.ar    1  UNL1        0.0178
      9 C         -22.8952   -8.6420  -17.2737 C.ar    1  UNL1        0.0015
     10 C         -22.5136   -7.5593  -16.4742 C.ar    1  UNL1        0.0001
     11 C         -21.9173   -7.7797  -15.2280 C.ar    1  UNL1        0.0015
     12 C         -21.6991   -9.0841  -14.7735 C.ar    1  UNL1        0.0191
     13 C         -22.0772  -10.1734  -15.5665 C.ar    1  UNL1        0.0827
     14 N         -21.8657  -11.4430  -15.1288 N.ar    1  UNL1       -0.2305
     15 C         -24.3772  -14.5154  -14.8161 C.ar    1  UNL1        0.1556
     16 C         -24.7044  -13.8955  -13.6238 C.ar    1  UNL1        0.0454
     17 C         -26.0755  -13.7639  -13.6722 C.ar    1  UNL1        0.0925
     18 N         -26.5167  -14.2735  -14.8356 N.ar    1  UNL1       -0.2742
     19 N         -25.4937  -14.7272  -15.5405 N.ar    1  UNL1       -0.1680
     20 H         -27.5105  -14.3093  -15.1529 H       1  UNL1        0.1890
@<TRIPOS>BOND
     1     1     2    2
     2     2     3   am
     3     3     5    1
     4     5     6   ar
     5     6     7   ar
     6     7     8   ar
     7     8     9   ar
     8     9    10   ar
     9    10    11   ar
    10    11    12   ar
    11    12    13   ar
    12    13    14   ar
    13     2    15    1
    14    15    16   ar
    15    16    17   ar
    16    17    18   ar
    17    18    19   ar
    18    14     5   ar
    19    19    15   ar
    20    13     8   ar
    21     3     4    1
    22    18    20    1
@<TRIPOS>MOLECULE
*****
 20 22 0 0 0
SMALL
GASTEIGER

@<TRIPOS>ATOM
      1 O         -27.7875   -2.6639  -18.4611 O.2     1  UNL1       -0.2681
      2 C         -27.1973   -3.4630  -17.6860 C.2     1  UNL1        0.2700
      3 N         -27.4145   -3.3497  -16.2722 N.am    1  UNL1       -0.2645
      4 H         -27.6315   -2.4011  -15.8906 H       1  UNL1        0.1566
      5 C         -27.5126   -4.4778  -15.3888 C.ar    1  UNL1        0.1344
      6 C         -28.7040   -5.2135  -15.3234 C.ar    1  UNL1        0.0345
      7 C         -28.7881   -6.3220  -14.4781 C.ar    1  UNL1        0.0044
      8 C         -27.6805   -6.6964  -13.7081 C.ar    1  UNL1        0.0178
      9 C         -27.7298   -7.8028  -12.8469 C.ar    1  UNL1        0.0015
     10 C         -26.6042   -8.1508  -12.0926 C.ar    1  UNL1        0.0001
     11 C         -25.4286   -7.3994  -12.1943 C.ar    1  UNL1        0.0015
     12 C         -25.3712   -6.2954  -13.0509 C.ar    1  UNL1        0.0191
     13 C         -26.4923   -5.9396  -13.8091 C.ar    1  UNL1        0.0827
     14 N         -26.4409   -4.8665  -14.6421 N.ar    1  UNL1       -0.2305
     15 C         -26.2557   -4.4484  -18.2491 C.ar    1  UNL1        0.1556
     16 C         -25.2969   -5.1491  -17.5401 C.ar    1  UNL1        0.0454
     17 C         -24.7018   -5.9615  -18.4812 C.ar    1  UNL1        0.0925
     18 N         -25.2919   -5.7477  -19.6703 N.ar    1  UNL1       -0.2742
     19 N         -26.2406   -4.8354  -19.5400 N.ar    1  UNL1       -0.1680
     20 H         -25.0541   -6.2236  -20.5683 H       1  UNL1        0.1890
@<TRIPOS>BOND
     1     1     2    2
     2     2     3   am
     3     3     5    1
     4     5     6   ar
     5     6     7   ar
     6     7     8   ar
     7     8     9   ar
     8     9    10   ar
     9    10    11   ar
    10    11    12   ar
    11    12    13   ar
    12    13    14   ar
    13     2    15    1
    14    15    16   ar
    15    16    17   ar
    16    17    18   ar
    17    18    19   ar
    18    14     5   ar
    19    19    15   ar
    20    13     8   ar
    21     3     4    1
    22    18    20    1
@<TRIPOS>MOLECULE
*****
 20 22 0 0 0
SMALL
GASTEIGER

@<TRIPOS>ATOM
      1 O         -12.6153    3.3458  -16.1380 O.2     1  UNL1       -0.2681
      2 C         -13.3988    2.4219  -15.7914 C.2     1  UNL1        0.2700
      3 N         -13.6436    2.2041  -14.3945 N.am    1  UNL1       -0.2645
      4 H         -12.8765    2.4432  -13.7259 H       1  UNL1        0.1566
      5 C         -14.9244    1.8374  -13.8582 C.ar    1  UNL1        0.1344
      6 C         -15.3502    0.5030  -13.9141 C.ar    1  UNL1        0.0345
      7 C         -16.5876    0.1474  -13.3730 C.ar    1  UNL1        0.0044
      8 C         -17.3909    1.1232  -12.7711 C.ar    1  UNL1        0.0178
      9 C         -18.6402    0.8025  -12.2192 C.ar    1  UNL1        0.0015
     10 C         -19.4172    1.8016  -11.6235 C.ar    1  UNL1        0.0001
     11 C         -18.9527    3.1203  -11.5756 C.ar    1  UNL1        0.0015
     12 C         -17.7083    3.4481  -12.1230 C.ar    1  UNL1        0.0191
     13 C         -16.9241    2.4554  -12.7213 C.ar    1  UNL1        0.0827
     14 N         -15.7144    2.7702  -13.2556 N.ar    1  UNL1       -0.2305
     15 C         -13.9914    1.5547  -16.8266 C.ar    1  UNL1        0.1556
     16 C         -13.7476    0.2028  -16.9873 C.ar    1  UNL1        0.0454
     17 C         -14.5474   -0.1650  -18.0477 C.ar    1  UNL1        0.0925
     18 N         -15.2247    0.9161  -18.4722 N.ar    1  UNL1       -0.2742
     19 N         -14.8994    1.9645  -17.7344 N.ar    1  UNL1       -0.1680
     20 H         -15.9104    0.9416  -19.2589 H       1  UNL1        0.1890
@<TRIPOS>BOND
     1     1     2    2
     2     2     3   am
     3     3     5    1
     4     5     6   ar
     5     6     7   ar
     6     7     8   ar
     7     8     9   ar
     8     9    10   ar
     9    10    11   ar
    10    11    12   ar
    11    12    13   ar
    12    13    14   ar
    13     2    15    1
    14    15    16   ar
    15    16    17   ar
    16    17    18   ar
    17    18    19   ar
    18    14     5   ar
    19    19    15   ar
    20    13     8   ar
    21     3     4    1
    22    18    20    1
@<TRIPOS>MOLECULE
*****
 20 22 0 0 0
SMALL
GASTEIGER

@<TRIPOS>ATOM
      1 O         -12.8481    1.8992  -13.1736 O.2     1  UNL1       -0.2681
      2 C         -14.0355    1.4963  -13.2972 C.2     1  UNL1        0.2700
      3 N         -14.8947    1.4990  -12.1480 N.am    1  UNL1       -0.2645
      4 H         -14.4501    1.3667  -11.2113 H       1  UNL1        0.1566
      5 C         -16.2903    1.8343  -12.1980 C.ar    1  UNL1        0.1344
      6 C         -16.6892    3.1773  -12.1500 C.ar    1  UNL1        0.0345
      7 C         -18.0463    3.4997  -12.2196 C.ar    1  UNL1        0.0044
      8 C         -18.9986    2.4814  -12.3451 C.ar    1  UNL1        0.0178
      9 C         -20.3701    2.7683  -12.4158 C.ar    1  UNL1        0.0015
     10 C         -21.2953    1.7268  -12.5428 C.ar    1  UNL1        0.0001
     11 C         -20.8579    0.3992  -12.6001 C.ar    1  UNL1        0.0015
     12 C         -19.4924    0.1049  -12.5309 C.ar    1  UNL1        0.0191
     13 C         -18.5595    1.1402  -12.4034 C.ar    1  UNL1        0.0827
     14 N         -17.2314    0.8582  -12.3347 N.ar    1  UNL1       -0.2305
     15 C         -14.4873    0.9774  -14.6016 C.ar    1  UNL1        0.1556
     16 C         -14.1564    1.4988  -15.8391 C.ar    1  UNL1        0.0454
     17 C         -14.7796    0.6625  -16.7400 C.ar    1  UNL1        0.0925
     18 N         -15.4297   -0.2973  -16.0589 N.ar    1  UNL1       -0.2742
     19 N         -15.2543   -0.1194  -14.7600 N.ar    1  UNL1       -0.1680
     20 H         -15.9882   -1.0748  -16.4750 H       1  UNL1        0.1890
@<TRIPOS>BOND
     1     1     2    2
     2     2     3   am
     3     3     5    1
     4     5     6   ar
     5     6     7   ar
     6     7     8   ar
     7     8     9   ar
     8     9    10   ar
     9    10    11   ar
    10    11    12   ar
    11    12    13   ar
    12    13    14   ar
    13     2    15    1
    14    15    16   ar
    15    16    17   ar
    16    17    18   ar
    17    18    19   ar
    18    14     5   ar
    19    19    15   ar
    20    13     8   ar
    21     3     4    1
    22    18    20    1
