@<TRIPOS>MOLECULE
*****
 32 35 0 0 0
SMALL
GASTEIGER

@<TRIPOS>ATOM
      1 N         -21.3878  -10.8628  -11.1208 N.ar    1  UNL1       -0.3243
      2 C         -22.5426  -10.3043  -10.6976 C.ar    1  UNL1        0.0600
      3 C         -22.6971   -9.3993   -9.6405 C.ar    1  UNL1        0.0177
      4 C         -23.9788   -8.9107   -9.3606 C.ar    1  UNL1        0.0082
      5 C         -25.0806   -9.3292  -10.1258 C.ar    1  UNL1        0.0347
      6 BR        -26.8204   -8.6465   -9.7326 Br      1  UNL1       -0.0490
      7 C         -24.9111  -10.2413  -11.1803 C.ar    1  UNL1        0.0082
      8 C         -23.6210  -10.7257  -11.4599 C.ar    1  UNL1        0.0174
      9 C         -23.1052  -11.6081  -12.4263 C.ar    1  UNL1        0.0137
     10 C         -23.6732  -12.3591  -13.5025 C.ar    1  UNL1       -0.0148
     11 C         -22.7714  -13.1459  -14.2834 C.ar    1  UNL1        0.0307
     12 BR        -23.3161  -14.2312  -15.7767 Br      1  UNL1       -0.0493
     13 C         -21.3967  -13.1655  -13.9956 C.ar    1  UNL1        0.0079
     14 C         -20.8694  -12.4226  -12.9427 C.ar    1  UNL1        0.0177
     15 C         -21.7352  -11.6521  -12.1676 C.ar    1  UNL1        0.0597
     16 C         -25.1602  -12.3476  -13.8437 C.3     1  UNL1        0.0229
     17 C         -25.4295  -11.7019  -15.2164 C.3     1  UNL1        0.0047
     18 C         -25.8117  -13.7251  -13.6153 C.3     1  UNL1        0.0047
     19 C         -20.0387  -10.5842  -10.6019 C.3     1  UNL1        0.1429
     20 C         -19.8027   -9.0730  -10.4587 C.3     1  UNL1        0.2027
     21 F         -18.6698   -8.8612   -9.6916 F       1  UNL1       -0.2334
     22 C         -19.6257   -8.3761  -11.8173 C.3     1  UNL1        0.1259
     23 N         -20.6642   -7.3659  -12.0091 N.pl3   1  UNL1       -0.3157
     24 H         -20.5083   -6.4087  -11.6191 H       1  UNL1        0.1483
     25 C         -22.9006   -8.7963  -14.5769 C.ar    1  UNL1        0.2261
     26 C         -24.1295   -8.1862  -14.2673 C.ar    1  UNL1        0.0578
     27 C         -24.2000   -7.2915  -13.1978 C.ar    1  UNL1        0.0077
     28 C         -23.0586   -7.0109  -12.4456 C.ar    1  UNL1        0.0343
     29 C         -21.8499   -7.6355  -12.7736 C.ar    1  UNL1        0.1317
     30 N         -21.8070   -8.5026  -13.8245 N.ar    1  UNL1       -0.1969
     31 C         -21.5083  -10.0852  -16.2040 C.3     1  UNL1        0.2542
     32 O         -22.7564   -9.7004  -15.6380 O.3     1  UNL1       -0.4561
@<TRIPOS>BOND
     1    31    32    1
     2    32    25    1
     3    25    26   ar
     4    26    27   ar
     5    27    28   ar
     6    28    29   ar
     7    29    23    1
     8    23    22    1
     9    22    20    1
    10    20    21    1
    11    20    19    1
    12    19     1    1
    13     1     2   ar
    14     2     3   ar
    15     3     4   ar
    16     4     5   ar
    17     5     6    1
    18     5     7   ar
    19     7     8   ar
    20     8     9   ar
    21     9    10   ar
    22    10    16    1
    23    16    17    1
    24    16    18    1
    25    10    11   ar
    26    11    12    1
    27    11    13   ar
    28    13    14   ar
    29    14    15   ar
    30    29    30   ar
    31    30    25   ar
    32    15     1   ar
    33     8     2   ar
    34    15     9   ar
    35    23    24    1
@<TRIPOS>MOLECULE
*****
 32 35 0 0 0
SMALL
GASTEIGER

@<TRIPOS>ATOM
      1 N         -21.7035  -12.5519  -14.6434 N.ar    1  UNL1       -0.3243
      2 C         -22.1282  -11.5631  -15.4599 C.ar    1  UNL1        0.0600
      3 C         -22.5647  -11.6992  -16.7832 C.ar    1  UNL1        0.0177
      4 C         -22.9880  -10.5543  -17.4686 C.ar    1  UNL1        0.0082
      5 C         -22.9668   -9.2998  -16.8358 C.ar    1  UNL1        0.0347
      6 BR        -23.5543   -7.7504  -17.7855 Br      1  UNL1       -0.0490
      7 C         -22.5218   -9.1779  -15.5093 C.ar    1  UNL1        0.0082
      8 C         -22.1016  -10.3315  -14.8240 C.ar    1  UNL1        0.0174
      9 C         -21.6282  -10.5663  -13.5205 C.ar    1  UNL1        0.0137
     10 C         -21.3866   -9.7408  -12.3780 C.ar    1  UNL1       -0.0148
     11 C         -20.9055  -10.3951  -11.2024 C.ar    1  UNL1        0.0307
     12 BR        -20.5150   -9.4821   -9.5537 Br      1  UNL1       -0.0493
     13 C         -20.6896  -11.7830  -11.1868 C.ar    1  UNL1        0.0079
     14 C         -20.9353  -12.5640  -12.3131 C.ar    1  UNL1        0.0177
     15 C         -21.4014  -11.9418  -13.4704 C.ar    1  UNL1        0.0597
     16 C         -21.6227   -8.2335  -12.3642 C.3     1  UNL1        0.0229
     17 C         -22.6526   -7.8232  -11.2942 C.3     1  UNL1        0.0047
     18 C         -20.2984   -7.4457  -12.3519 C.3     1  UNL1        0.0047
     19 C         -21.6751  -13.9909  -14.9523 C.3     1  UNL1        0.1429
     20 C         -23.0506  -14.4811  -15.4294 C.3     1  UNL1        0.2027
     21 F         -22.8928  -15.6655  -16.1289 F       1  UNL1       -0.2334
     22 C         -24.0265  -14.7131  -14.2647 C.3     1  UNL1        0.1259
     23 N         -25.1808  -13.8249  -14.3847 N.pl3   1  UNL1       -0.3157
     24 H         -26.0498  -14.1929  -14.8343 H       1  UNL1        0.1483
     25 C         -24.6953  -11.0366  -12.0118 C.ar    1  UNL1        0.2261
     26 C         -25.1333   -9.9321  -12.7646 C.ar    1  UNL1        0.0578
     27 C         -25.5952  -10.1307  -14.0671 C.ar    1  UNL1        0.0077
     28 C         -25.6177  -11.4151  -14.6121 C.ar    1  UNL1        0.0343
     29 C         -25.1721  -12.4952  -13.8417 C.ar    1  UNL1        0.1317
     30 N         -24.7289  -12.2751  -12.5716 N.ar    1  UNL1       -0.1969
     31 C         -24.9252  -10.2530   -9.6496 C.3     1  UNL1        0.2542
     32 O         -24.2231  -10.9113  -10.6983 O.3     1  UNL1       -0.4561
@<TRIPOS>BOND
     1    31    32    1
     2    32    25    1
     3    25    26   ar
     4    26    27   ar
     5    27    28   ar
     6    28    29   ar
     7    29    23    1
     8    23    22    1
     9    22    20    1
    10    20    21    1
    11    20    19    1
    12    19     1    1
    13     1     2   ar
    14     2     3   ar
    15     3     4   ar
    16     4     5   ar
    17     5     6    1
    18     5     7   ar
    19     7     8   ar
    20     8     9   ar
    21     9    10   ar
    22    10    16    1
    23    16    17    1
    24    16    18    1
    25    10    11   ar
    26    11    12    1
    27    11    13   ar
    28    13    14   ar
    29    14    15   ar
    30    29    30   ar
    31    30    25   ar
    32    15     1   ar
    33     8     2   ar
    34    15     9   ar
    35    23    24    1
@<TRIPOS>MOLECULE
*****
 32 35 0 0 0
SMALL
GASTEIGER

@<TRIPOS>ATOM
      1 N         -21.7738  -12.7510  -15.0922 N.ar    1  UNL1       -0.3243
      2 C         -21.4376  -12.2596  -13.8797 C.ar    1  UNL1        0.0600
      3 C         -20.9059  -12.9788  -12.8026 C.ar    1  UNL1        0.0177
      4 C         -20.6003  -12.2887  -11.6236 C.ar    1  UNL1        0.0082
      5 C         -20.8305  -10.9056  -11.5309 C.ar    1  UNL1        0.0347
      6 BR        -20.4011   -9.9806   -9.9160 Br      1  UNL1       -0.0490
      7 C         -21.3689  -10.1980  -12.6180 C.ar    1  UNL1        0.0082
      8 C         -21.6702  -10.8952  -13.8013 C.ar    1  UNL1        0.0174
      9 C         -22.1869  -10.5067  -15.0506 C.ar    1  UNL1        0.0137
     10 C         -22.6082   -9.2637  -15.6183 C.ar    1  UNL1       -0.0148
     11 C         -23.0677   -9.2977  -16.9709 C.ar    1  UNL1        0.0307
     12 BR        -23.6794   -7.7466  -17.9324 Br      1  UNL1       -0.0493
     13 C         -23.0939  -10.5019  -17.6934 C.ar    1  UNL1        0.0079
     14 C         -22.6755  -11.6984  -17.1170 C.ar    1  UNL1        0.0177
     15 C         -22.2276  -11.6846  -15.7967 C.ar    1  UNL1        0.0597
     16 C         -22.5801   -7.9400  -14.8601 C.3     1  UNL1        0.0229
     17 C         -23.7983   -7.7851  -13.9296 C.3     1  UNL1        0.0047
     18 C         -21.2073   -7.6804  -14.2101 C.3     1  UNL1        0.0047
     19 C         -21.5876  -14.1348  -15.5584 C.3     1  UNL1        0.1429
     20 C         -22.9382  -14.8461  -15.7317 C.3     1  UNL1        0.2027
     21 F         -22.7447  -16.0221  -16.4363 F       1  UNL1       -0.2334
     22 C         -23.6058  -15.1722  -14.3860 C.3     1  UNL1        0.1259
     23 N         -24.9221  -14.5425  -14.3063 N.pl3   1  UNL1       -0.3157
     24 H         -25.7704  -15.1404  -14.4314 H       1  UNL1        0.1483
     25 C         -24.7921  -11.3582  -12.4396 C.ar    1  UNL1        0.2261
     26 C         -25.3531  -10.4557  -13.3610 C.ar    1  UNL1        0.0578
     27 C         -25.7778  -10.9233  -14.6061 C.ar    1  UNL1        0.0077
     28 C         -25.6422  -12.2743  -14.9282 C.ar    1  UNL1        0.0343
     29 C         -25.0767  -13.1492  -13.9936 C.ar    1  UNL1        0.1317
     30 N         -24.6730  -12.6681  -12.7837 N.ar    1  UNL1       -0.1969
     31 C         -24.6130   -9.6875  -10.5892 C.3     1  UNL1        0.2542
     32 O         -24.3486  -10.9593  -11.1714 O.3     1  UNL1       -0.4561
@<TRIPOS>BOND
     1    31    32    1
     2    32    25    1
     3    25    26   ar
     4    26    27   ar
     5    27    28   ar
     6    28    29   ar
     7    29    23    1
     8    23    22    1
     9    22    20    1
    10    20    21    1
    11    20    19    1
    12    19     1    1
    13     1     2   ar
    14     2     3   ar
    15     3     4   ar
    16     4     5   ar
    17     5     6    1
    18     5     7   ar
    19     7     8   ar
    20     8     9   ar
    21     9    10   ar
    22    10    16    1
    23    16    17    1
    24    16    18    1
    25    10    11   ar
    26    11    12    1
    27    11    13   ar
    28    13    14   ar
    29    14    15   ar
    30    29    30   ar
    31    30    25   ar
    32    15     1   ar
    33     8     2   ar
    34    15     9   ar
    35    23    24    1
@<TRIPOS>MOLECULE
*****
 32 35 0 0 0
SMALL
GASTEIGER

@<TRIPOS>ATOM
      1 N         -23.7799  -11.2347  -13.1800 N.ar    1  UNL1       -0.3243
      2 C         -24.3826  -10.0275  -13.2444 C.ar    1  UNL1        0.0600
      3 C         -25.5990   -9.7311  -13.8710 C.ar    1  UNL1        0.0177
      4 C         -26.0766   -8.4164  -13.8156 C.ar    1  UNL1        0.0082
      5 C         -25.3419   -7.4219  -13.1479 C.ar    1  UNL1        0.0347
      6 BR        -26.0132   -5.6353  -13.0778 Br      1  UNL1       -0.0490
      7 C         -24.1207   -7.7330  -12.5279 C.ar    1  UNL1        0.0082
      8 C         -23.6475   -9.0560  -12.5830 C.ar    1  UNL1        0.0174
      9 C         -22.5071   -9.6998  -12.0696 C.ar    1  UNL1        0.0137
     10 C         -21.3826   -9.2785  -11.2930 C.ar    1  UNL1       -0.0148
     11 C         -20.4223  -10.2815  -10.9560 C.ar    1  UNL1        0.0307
     12 BR        -18.8368   -9.9394   -9.9199 Br      1  UNL1       -0.0493
     13 C         -20.5927  -11.6120  -11.3727 C.ar    1  UNL1        0.0079
     14 C         -21.6988  -11.9959  -12.1264 C.ar    1  UNL1        0.0177
     15 C         -22.6441  -11.0296  -12.4679 C.ar    1  UNL1        0.0597
     16 C         -21.1784   -7.8430  -10.8183 C.3     1  UNL1        0.0229
     17 C         -21.0075   -6.8668  -11.9979 C.3     1  UNL1        0.0047
     18 C         -22.2219   -7.4348   -9.7606 C.3     1  UNL1        0.0047
     19 C         -24.3102  -12.5067  -13.6975 C.3     1  UNL1        0.1429
     20 C         -23.5772  -12.9306  -14.9793 C.3     1  UNL1        0.2027
     21 F         -23.5932  -14.3117  -15.0757 F       1  UNL1       -0.2334
     22 C         -24.2142  -12.3325  -16.2438 C.3     1  UNL1        0.1259
     23 N         -23.2250  -11.5629  -16.9955 N.pl3   1  UNL1       -0.3157
     24 H         -22.9113  -11.9248  -17.9246 H       1  UNL1        0.1483
     25 C         -23.0543   -7.9469  -16.2628 C.ar    1  UNL1        0.2261
     26 C         -21.8111   -7.8382  -15.6139 C.ar    1  UNL1        0.0578
     27 C         -21.0323   -8.9822  -15.4295 C.ar    1  UNL1        0.0077
     28 C         -21.4895  -10.2194  -15.8852 C.ar    1  UNL1        0.0343
     29 C         -22.7323  -10.2988  -16.5239 C.ar    1  UNL1        0.1317
     30 N         -23.4719   -9.1666  -16.6944 N.ar    1  UNL1       -0.1969
     31 C         -24.1649   -6.2880  -17.7666 C.3     1  UNL1        0.2542
     32 O         -23.8855   -6.8407  -16.4850 O.3     1  UNL1       -0.4561
@<TRIPOS>BOND
     1    31    32    1
     2    32    25    1
     3    25    26   ar
     4    26    27   ar
     5    27    28   ar
     6    28    29   ar
     7    29    23    1
     8    23    22    1
     9    22    20    1
    10    20    21    1
    11    20    19    1
    12    19     1    1
    13     1     2   ar
    14     2     3   ar
    15     3     4   ar
    16     4     5   ar
    17     5     6    1
    18     5     7   ar
    19     7     8   ar
    20     8     9   ar
    21     9    10   ar
    22    10    16    1
    23    16    17    1
    24    16    18    1
    25    10    11   ar
    26    11    12    1
    27    11    13   ar
    28    13    14   ar
    29    14    15   ar
    30    29    30   ar
    31    30    25   ar
    32    15     1   ar
    33     8     2   ar
    34    15     9   ar
    35    23    24    1
@<TRIPOS>MOLECULE
*****
 32 35 0 0 0
SMALL
GASTEIGER

@<TRIPOS>ATOM
      1 N         -23.2168  -11.5924  -13.3022 N.ar    1  UNL1       -0.3243
      2 C         -22.1332  -11.4908  -12.5021 C.ar    1  UNL1        0.0600
      3 C         -21.2058  -12.4999  -12.2160 C.ar    1  UNL1        0.0177
      4 C         -20.1289  -12.1989  -11.3736 C.ar    1  UNL1        0.0082
      5 C         -19.9930  -10.9111  -10.8280 C.ar    1  UNL1        0.0347
      6 BR        -18.5135  -10.5181   -9.6860 Br      1  UNL1       -0.0490
      7 C         -20.9338   -9.9101  -11.1202 C.ar    1  UNL1        0.0082
      8 C         -22.0113  -10.2165  -11.9701 C.ar    1  UNL1        0.0174
      9 C         -23.0927   -9.4700  -12.4721 C.ar    1  UNL1        0.0137
     10 C         -23.5294   -8.1161  -12.3265 C.ar    1  UNL1       -0.0148
     11 C         -24.7077   -7.7404  -13.0422 C.ar    1  UNL1        0.0307
     12 BR        -25.4719   -5.9746  -12.9930 Br      1  UNL1       -0.0493
     13 C         -25.3887   -8.6680  -13.8477 C.ar    1  UNL1        0.0079
     14 C         -24.9403   -9.9802  -13.9737 C.ar    1  UNL1        0.0177
     15 C         -23.7943  -10.3655  -13.2794 C.ar    1  UNL1        0.0597
     16 C         -22.8031   -7.0856  -11.4673 C.3     1  UNL1        0.0229
     17 C         -22.7819   -7.4897   -9.9807 C.3     1  UNL1        0.0047
     18 C         -21.4408   -6.6932  -12.0712 C.3     1  UNL1        0.0047
     19 C         -23.6121  -12.7676  -14.0956 C.3     1  UNL1        0.1429
     20 C         -22.9172  -12.7689  -15.4657 C.3     1  UNL1        0.2027
     21 F         -22.4273  -14.0376  -15.7251 F       1  UNL1       -0.2334
     22 C         -23.8641  -12.3549  -16.6035 C.3     1  UNL1        0.1259
     23 N         -23.2341  -11.3393  -17.4445 N.pl3   1  UNL1       -0.3157
     24 H         -23.1941  -11.4999  -18.4766 H       1  UNL1        0.1483
     25 C         -23.0450   -7.7709  -16.5109 C.ar    1  UNL1        0.2261
     26 C         -21.8076   -7.7077  -15.8453 C.ar    1  UNL1        0.0578
     27 C         -21.0386   -8.8661  -15.7173 C.ar    1  UNL1        0.0077
     28 C         -21.5001  -10.0726  -16.2451 C.ar    1  UNL1        0.0343
     29 C         -22.7371  -10.1071  -16.8990 C.ar    1  UNL1        0.1317
     30 N         -23.4670   -8.9616  -17.0134 N.ar    1  UNL1       -0.1969
     31 C         -24.3097   -6.1562  -17.9395 C.3     1  UNL1        0.2542
     32 O         -23.8661   -6.6477  -16.6793 O.3     1  UNL1       -0.4561
@<TRIPOS>BOND
     1    31    32    1
     2    32    25    1
     3    25    26   ar
     4    26    27   ar
     5    27    28   ar
     6    28    29   ar
     7    29    23    1
     8    23    22    1
     9    22    20    1
    10    20    21    1
    11    20    19    1
    12    19     1    1
    13     1     2   ar
    14     2     3   ar
    15     3     4   ar
    16     4     5   ar
    17     5     6    1
    18     5     7   ar
    19     7     8   ar
    20     8     9   ar
    21     9    10   ar
    22    10    16    1
    23    16    17    1
    24    16    18    1
    25    10    11   ar
    26    11    12    1
    27    11    13   ar
    28    13    14   ar
    29    14    15   ar
    30    29    30   ar
    31    30    25   ar
    32    15     1   ar
    33     8     2   ar
    34    15     9   ar
    35    23    24    1
@<TRIPOS>MOLECULE
*****
 32 35 0 0 0
SMALL
GASTEIGER

@<TRIPOS>ATOM
      1 N         -21.8680  -10.3742  -10.8313 N.ar    1  UNL1       -0.3243
      2 C         -23.0955   -9.8112  -10.8004 C.ar    1  UNL1        0.0600
      3 C         -23.5653   -8.8774   -9.8689 C.ar    1  UNL1        0.0177
      4 C         -24.8696   -8.3893  -10.0113 C.ar    1  UNL1        0.0082
      5 C         -25.6836   -8.8364  -11.0658 C.ar    1  UNL1        0.0347
      6 BR        -27.4581   -8.1540  -11.2469 Br      1  UNL1       -0.0490
      7 C         -25.2004   -9.7772  -11.9899 C.ar    1  UNL1        0.0082
      8 C         -23.8882  -10.2612  -11.8448 C.ar    1  UNL1        0.0174
      9 C         -23.1024  -11.1675  -12.5795 C.ar    1  UNL1        0.0137
     10 C         -23.3137  -11.9525  -13.7560 C.ar    1  UNL1       -0.0148
     11 C         -22.2176  -12.7554  -14.1983 C.ar    1  UNL1        0.0307
     12 BR        -22.2793  -13.8864  -15.7544 Br      1  UNL1       -0.0493
     13 C         -20.9982  -12.7581  -13.5011 C.ar    1  UNL1        0.0079
     14 C         -20.8184  -11.9820  -12.3591 C.ar    1  UNL1        0.0177
     15 C         -21.8786  -11.1953  -11.9107 C.ar    1  UNL1        0.0597
     16 C         -24.6235  -11.9602  -14.5383 C.3     1  UNL1        0.0229
     17 C         -24.3983  -11.6901  -16.0383 C.3     1  UNL1        0.0047
     18 C         -25.4835  -13.1944  -14.2047 C.3     1  UNL1        0.0047
     19 C         -20.7433  -10.0723   -9.9309 C.3     1  UNL1        0.1429
     20 C         -20.2257   -8.6431  -10.1530 C.3     1  UNL1        0.2027
     21 F         -19.2549   -8.3598   -9.2073 F       1  UNL1       -0.2334
     22 C         -19.6305   -8.4468  -11.5566 C.3     1  UNL1        0.1259
     23 N         -20.3165   -7.3597  -12.2518 N.pl3   1  UNL1       -0.3157
     24 H         -19.9606   -6.3847  -12.1285 H       1  UNL1        0.1483
     25 C         -23.7068   -7.2606  -13.7138 C.ar    1  UNL1        0.2261
     26 C         -23.5533   -8.0570  -14.8629 C.ar    1  UNL1        0.0578
     27 C         -22.3098   -8.6287  -15.1391 C.ar    1  UNL1        0.0077
     28 C         -21.2326   -8.4066  -14.2802 C.ar    1  UNL1        0.0343
     29 C         -21.4129   -7.6065  -13.1461 C.ar    1  UNL1        0.1317
     30 N         -22.6378   -7.0626  -12.8974 N.ar    1  UNL1       -0.1969
     31 C         -25.0564   -5.5379  -12.5064 C.3     1  UNL1        0.2542
     32 O         -24.9260   -6.6594  -13.3733 O.3     1  UNL1       -0.4561
@<TRIPOS>BOND
     1    31    32    1
     2    32    25    1
     3    25    26   ar
     4    26    27   ar
     5    27    28   ar
     6    28    29   ar
     7    29    23    1
     8    23    22    1
     9    22    20    1
    10    20    21    1
    11    20    19    1
    12    19     1    1
    13     1     2   ar
    14     2     3   ar
    15     3     4   ar
    16     4     5   ar
    17     5     6    1
    18     5     7   ar
    19     7     8   ar
    20     8     9   ar
    21     9    10   ar
    22    10    16    1
    23    16    17    1
    24    16    18    1
    25    10    11   ar
    26    11    12    1
    27    11    13   ar
    28    13    14   ar
    29    14    15   ar
    30    29    30   ar
    31    30    25   ar
    32    15     1   ar
    33     8     2   ar
    34    15     9   ar
    35    23    24    1
@<TRIPOS>MOLECULE
*****
 32 35 0 0 0
SMALL
GASTEIGER

@<TRIPOS>ATOM
      1 N         -23.0097  -12.3406  -13.6656 N.ar    1  UNL1       -0.3243
      2 C         -22.1088  -11.9471  -12.7393 C.ar    1  UNL1        0.0600
      3 C         -20.8961  -12.5751  -12.4307 C.ar    1  UNL1        0.0177
      4 C         -20.0793  -12.0051  -11.4470 C.ar    1  UNL1        0.0082
      5 C         -20.4786  -10.8314  -10.7856 C.ar    1  UNL1        0.0347
      6 BR        -19.3476  -10.0653   -9.4508 Br      1  UNL1       -0.0490
      7 C         -21.7002  -10.2150  -11.1023 C.ar    1  UNL1        0.0082
      8 C         -22.5149  -10.7894  -12.0940 C.ar    1  UNL1        0.0174
      9 C         -23.7547  -10.4343  -12.6556 C.ar    1  UNL1        0.0137
     10 C         -24.6768   -9.3605  -12.4515 C.ar    1  UNL1       -0.0148
     11 C         -25.8507   -9.3577  -13.2662 C.ar    1  UNL1        0.0307
     12 BR        -27.2222   -8.0114  -13.1618 Br      1  UNL1       -0.0493
     13 C         -26.0698  -10.3665  -14.2187 C.ar    1  UNL1        0.0079
     14 C         -25.1540  -11.3998  -14.3988 C.ar    1  UNL1        0.0177
     15 C         -24.0047  -11.4208  -13.6097 C.ar    1  UNL1        0.0597
     16 C         -24.4586   -8.2465  -11.4321 C.3     1  UNL1        0.0229
     17 C         -24.7832   -6.8594  -12.0188 C.3     1  UNL1        0.0047
     18 C         -25.1207   -8.5698  -10.0787 C.3     1  UNL1        0.0047
     19 C         -22.8730  -13.4754  -14.5933 C.3     1  UNL1        0.1429
     20 C         -21.7988  -13.1952  -15.6550 C.3     1  UNL1        0.2027
     21 F         -21.4249  -14.3888  -16.2485 F       1  UNL1       -0.2334
     22 C         -22.2888  -12.2263  -16.7431 C.3     1  UNL1        0.1259
     23 N         -21.4666  -11.0182  -16.7552 N.pl3   1  UNL1       -0.3157
     24 H         -20.5919  -11.0148  -17.3276 H       1  UNL1        0.1483
     25 C         -21.4622   -8.2387  -14.3230 C.ar    1  UNL1        0.2261
     26 C         -22.6042   -7.5126  -14.7064 C.ar    1  UNL1        0.0578
     27 C         -23.3746   -7.9640  -15.7798 C.ar    1  UNL1        0.0077
     28 C         -23.0086   -9.1244  -16.4630 C.ar    1  UNL1        0.0343
     29 C         -21.8651   -9.8248  -16.0624 C.ar    1  UNL1        0.1317
     30 N         -21.1318   -9.3648  -15.0094 N.ar    1  UNL1       -0.1969
     31 C         -21.0160   -6.8893  -12.2671 C.3     1  UNL1        0.2542
     32 O         -20.6458   -7.8462  -13.2538 O.3     1  UNL1       -0.4561
@<TRIPOS>BOND
     1    31    32    1
     2    32    25    1
     3    25    26   ar
     4    26    27   ar
     5    27    28   ar
     6    28    29   ar
     7    29    23    1
     8    23    22    1
     9    22    20    1
    10    20    21    1
    11    20    19    1
    12    19     1    1
    13     1     2   ar
    14     2     3   ar
    15     3     4   ar
    16     4     5   ar
    17     5     6    1
    18     5     7   ar
    19     7     8   ar
    20     8     9   ar
    21     9    10   ar
    22    10    16    1
    23    16    17    1
    24    16    18    1
    25    10    11   ar
    26    11    12    1
    27    11    13   ar
    28    13    14   ar
    29    14    15   ar
    30    29    30   ar
    31    30    25   ar
    32    15     1   ar
    33     8     2   ar
    34    15     9   ar
    35    23    24    1
@<TRIPOS>MOLECULE
*****
 32 35 0 0 0
SMALL
GASTEIGER

@<TRIPOS>ATOM
      1 N         -23.8311  -11.0019  -14.4775 N.ar    1  UNL1       -0.3243
      2 C         -22.7912  -11.5379  -13.8023 C.ar    1  UNL1        0.0600
      3 C         -21.7616  -12.3226  -14.3356 C.ar    1  UNL1        0.0177
      4 C         -20.7528  -12.7754  -13.4771 C.ar    1  UNL1        0.0082
      5 C         -20.7842  -12.4488  -12.1107 C.ar    1  UNL1        0.0347
      6 BR        -19.3954  -13.0706  -10.9565 Br      1  UNL1       -0.0490
      7 C         -21.8260  -11.6646  -11.5889 C.ar    1  UNL1        0.0082
      8 C         -22.8345  -11.2089  -12.4563 C.ar    1  UNL1        0.0174
      9 C         -23.9799  -10.4123  -12.2776 C.ar    1  UNL1        0.0137
     10 C         -24.5755   -9.7500  -11.1589 C.ar    1  UNL1       -0.0148
     11 C         -25.7675   -9.0043  -11.4134 C.ar    1  UNL1        0.0307
     12 BR        -26.7333   -8.0358  -10.0592 Br      1  UNL1       -0.0493
     13 C         -26.3115   -8.9334  -12.7065 C.ar    1  UNL1        0.0079
     14 C         -25.7097   -9.5863  -13.7790 C.ar    1  UNL1        0.0177
     15 C         -24.5479  -10.3219  -13.5484 C.ar    1  UNL1        0.0597
     16 C         -24.0001   -9.8014   -9.7467 C.3     1  UNL1        0.0229
     17 C         -23.5661   -8.4082   -9.2523 C.3     1  UNL1        0.0047
     18 C         -24.9057  -10.5973   -8.7872 C.3     1  UNL1        0.0047
     19 C         -24.0629  -11.0740  -15.9293 C.3     1  UNL1        0.1429
     20 C         -22.8894  -10.4601  -16.7077 C.3     1  UNL1        0.2027
     21 F         -23.0213  -10.7737  -18.0498 F       1  UNL1       -0.2334
     22 C         -22.8198   -8.9322  -16.5545 C.3     1  UNL1        0.1259
     23 N         -21.6206   -8.5503  -15.8116 N.pl3   1  UNL1       -0.3157
     24 H         -20.7047   -8.5354  -16.3150 H       1  UNL1        0.1483
     25 C         -20.7039   -8.1144  -12.2605 C.ar    1  UNL1        0.2261
     26 C         -21.7668   -7.3296  -11.7781 C.ar    1  UNL1        0.0578
     27 C         -22.7912   -6.9539  -12.6491 C.ar    1  UNL1        0.0077
     28 C         -22.7541   -7.3546  -13.9853 C.ar    1  UNL1        0.0343
     29 C         -21.6822   -8.1318  -14.4390 C.ar    1  UNL1        0.1317
     30 N         -20.6963   -8.4880  -13.5677 N.ar    1  UNL1       -0.1969
     31 C         -19.7863   -8.9268  -10.0822 C.3     1  UNL1        0.2542
     32 O         -19.6451   -8.5307  -11.4421 O.3     1  UNL1       -0.4561
@<TRIPOS>BOND
     1    31    32    1
     2    32    25    1
     3    25    26   ar
     4    26    27   ar
     5    27    28   ar
     6    28    29   ar
     7    29    23    1
     8    23    22    1
     9    22    20    1
    10    20    21    1
    11    20    19    1
    12    19     1    1
    13     1     2   ar
    14     2     3   ar
    15     3     4   ar
    16     4     5   ar
    17     5     6    1
    18     5     7   ar
    19     7     8   ar
    20     8     9   ar
    21     9    10   ar
    22    10    16    1
    23    16    17    1
    24    16    18    1
    25    10    11   ar
    26    11    12    1
    27    11    13   ar
    28    13    14   ar
    29    14    15   ar
    30    29    30   ar
    31    30    25   ar
    32    15     1   ar
    33     8     2   ar
    34    15     9   ar
    35    23    24    1
@<TRIPOS>MOLECULE
*****
 32 35 0 0 0
SMALL
GASTEIGER

@<TRIPOS>ATOM
      1 N         -23.3600  -11.7686  -14.3879 N.ar    1  UNL1       -0.3243
      2 C         -22.3064  -12.1135  -13.6161 C.ar    1  UNL1        0.0600
      3 C         -21.2282  -12.9267  -13.9855 C.ar    1  UNL1        0.0177
      4 C         -20.2134  -13.1575  -13.0493 C.ar    1  UNL1        0.0082
      5 C         -20.2865  -12.5857  -11.7678 C.ar    1  UNL1        0.0347
      6 BR        -18.8889  -12.9072  -10.5065 Br      1  UNL1       -0.0490
      7 C         -21.3766  -11.7758  -11.4097 C.ar    1  UNL1        0.0082
      8 C         -22.3912  -11.5438  -12.3551 C.ar    1  UNL1        0.0174
      9 C         -23.5792  -10.7908  -12.3373 C.ar    1  UNL1        0.0137
     10 C         -24.2284   -9.9658  -11.3663 C.ar    1  UNL1       -0.0148
     11 C         -25.4524   -9.3456  -11.7650 C.ar    1  UNL1        0.0307
     12 BR        -26.4913   -8.1966  -10.6227 Br      1  UNL1       -0.0493
     13 C         -25.9755   -9.5448  -13.0533 C.ar    1  UNL1        0.0079
     14 C         -25.3214  -10.3516  -13.9806 C.ar    1  UNL1        0.0177
     15 C         -24.1277  -10.9681  -13.6075 C.ar    1  UNL1        0.0597
     16 C         -23.6771   -9.7237   -9.9644 C.3     1  UNL1        0.0229
     17 C         -23.2208   -8.2649   -9.7706 C.3     1  UNL1        0.0047
     18 C         -24.6151  -10.2792   -8.8754 C.3     1  UNL1        0.0047
     19 C         -23.5612  -12.1208  -15.8029 C.3     1  UNL1        0.1429
     20 C         -22.6589  -11.2772  -16.7162 C.3     1  UNL1        0.2027
     21 F         -22.3384  -12.0141  -17.8437 F       1  UNL1       -0.2334
     22 C         -23.3284   -9.9633  -17.1498 C.3     1  UNL1        0.1259
     23 N         -22.4848   -8.8230  -16.7978 N.pl3   1  UNL1       -0.3157
     24 H         -21.9354   -8.3556  -17.5543 H       1  UNL1        0.1483
     25 C         -23.5427   -7.1030  -13.7053 C.ar    1  UNL1        0.2261
     26 C         -22.4134   -7.2606  -12.8819 C.ar    1  UNL1        0.0578
     27 C         -21.2975   -7.9415  -13.3724 C.ar    1  UNL1        0.0077
     28 C         -21.3095   -8.4602  -14.6678 C.ar    1  UNL1        0.0343
     29 C         -22.4484   -8.2921  -15.4637 C.ar    1  UNL1        0.1317
     30 N         -23.5235   -7.6207  -14.9623 N.ar    1  UNL1       -0.1969
     31 C         -25.8090   -6.1318  -14.1149 C.3     1  UNL1        0.2542
     32 O         -24.6949   -6.4282  -13.2798 O.3     1  UNL1       -0.4561
@<TRIPOS>BOND
     1    31    32    1
     2    32    25    1
     3    25    26   ar
     4    26    27   ar
     5    27    28   ar
     6    28    29   ar
     7    29    23    1
     8    23    22    1
     9    22    20    1
    10    20    21    1
    11    20    19    1
    12    19     1    1
    13     1     2   ar
    14     2     3   ar
    15     3     4   ar
    16     4     5   ar
    17     5     6    1
    18     5     7   ar
    19     7     8   ar
    20     8     9   ar
    21     9    10   ar
    22    10    16    1
    23    16    17    1
    24    16    18    1
    25    10    11   ar
    26    11    12    1
    27    11    13   ar
    28    13    14   ar
    29    14    15   ar
    30    29    30   ar
    31    30    25   ar
    32    15     1   ar
    33     8     2   ar
    34    15     9   ar
    35    23    24    1
