@<TRIPOS>MOLECULE
*****
 42 46 0 0 0
SMALL
GASTEIGER

@<TRIPOS>ATOM
      1 C         -24.8336   50.7004   -8.2907 C.ar    1  UNL1        0.0922
      2 C         -23.5468   51.0470   -7.8201 C.ar    1  UNL1        0.0284
      3 C         -22.6758   51.6964   -8.6914 C.ar    1  UNL1        0.1033
      4 N         -21.4282   52.1216   -8.4241 N.ar    1  UNL1       -0.2134
      5 C         -21.0401   52.6779   -9.5997 C.ar    1  UNL1        0.2019
      6 N         -21.9758   52.5840  -10.5857 N.ar    1  UNL1       -0.2950
      7 C         -21.8640   52.9845  -11.9889 C.3     1  UNL1        0.1333
      8 C         -23.0173   51.9809   -9.9824 C.ar    1  UNL1        0.1173
      9 C         -24.2688   51.6309  -10.4968 C.ar    1  UNL1        0.1897
     10 C         -25.1888   50.9950   -9.6363 C.ar    1  UNL1        0.1782
     11 O         -26.4428   50.6444  -10.1515 O.3     1  UNL1       -0.4682
     12 C         -26.9190   51.1891  -11.3840 C.3     1  UNL1        0.2526
     13 C         -25.7786   51.2635  -12.4055 C.3     1  UNL1        0.2527
     14 O         -24.6331   51.8869  -11.8220 O.3     1  UNL1       -0.4669
     15 N         -26.4940   50.7853   -6.3764 N.am    1  UNL1       -0.2803
     16 C         -25.7785   50.0319   -7.3722 C.2     1  UNL1        0.2526
     17 O         -25.9455   48.7859   -7.4712 O.2     1  UNL1       -0.2697
     18 H         -26.3675   51.8214   -6.3443 H       1  UNL1        0.1552
     19 C         -29.7544   50.0263   -4.7089 C.ar    1  UNL1        0.0359
     20 C         -28.8010   50.5407   -5.5993 C.ar    1  UNL1        0.0150
     21 C         -27.4469   50.2113   -5.4665 C.ar    1  UNL1        0.0504
     22 C         -27.0403   49.3790   -4.4108 C.ar    1  UNL1        0.0208
     23 C         -27.9852   48.8312   -3.5239 C.ar    1  UNL1        0.0998
     24 C         -29.3450   49.1568   -3.6834 C.ar    1  UNL1        0.1424
     25 F         -30.2692   48.6349   -2.8342 F       1  UNL1       -0.2045
     26 C         -27.5610   47.9273   -2.3901 C.3     1  UNL1        0.4207
     27 F         -26.1818   47.8258   -2.3754 F       1  UNL1       -0.1658
     28 F         -27.9874   48.4603   -1.1869 F       1  UNL1       -0.1658
     29 F         -28.0957   46.6567   -2.5170 F       1  UNL1       -0.1658
     30 C         -31.2104   50.3538   -4.8948 C.3     1  UNL1        0.1710
     31 C         -31.5840   52.6007   -4.5587 C.3     1  UNL1        0.1746
     32 O         -31.3178   51.6111   -5.5269 O.3     1  UNL1       -0.3463
     33 N         -19.7528   53.2901   -9.7575 N.pl3   1  UNL1       -0.2814
     34 H         -19.7145   54.2038  -10.2621 H       1  UNL1        0.1551
     35 C         -18.5119   52.6490   -9.4136 C.ar    1  UNL1        0.0889
     36 C         -18.0723   52.5892   -8.0743 C.ar    1  UNL1        0.1543
     37 F         -18.8202   53.1137   -7.0711 F       1  UNL1       -0.2028
     38 C         -16.8671   51.9562   -7.7569 C.ar    1  UNL1        0.0310
     39 C         -16.0961   51.3692   -8.7611 C.ar    1  UNL1        0.0033
     40 C         -16.5297   51.4072  -10.0874 C.ar    1  UNL1        0.0128
     41 C         -17.7346   52.0381  -10.4182 C.ar    1  UNL1        0.0733
     42 CL        -18.2268   52.0858  -12.1061 Cl      1  UNL1       -0.0809
@<TRIPOS>BOND
     1    31    32    1
     2    32    30    1
     3    30    19    1
     4    19    20   ar
     5    20    21   ar
     6    21    15    1
     7    15    16   am
     8    16    17    2
     9    16     1    1
    10     1     2   ar
    11     2     3   ar
    12     3     4   ar
    13     4     5   ar
    14     5    33    1
    15    33    35    1
    16    35    36   ar
    17    36    37    1
    18    36    38   ar
    19    38    39   ar
    20    39    40   ar
    21    40    41   ar
    22    41    42    1
    23     5     6   ar
    24     6     7    1
    25     6     8   ar
    26     8     9   ar
    27     9    10   ar
    28    10    11    1
    29    11    12    1
    30    12    13    1
    31    13    14    1
    32    21    22   ar
    33    22    23   ar
    34    23    26    1
    35    26    27    1
    36    26    28    1
    37    26    29    1
    38    23    24   ar
    39    24    25    1
    40    24    19   ar
    41    10     1   ar
    42     8     3   ar
    43    14     9    1
    44    41    35   ar
    45    15    18    1
    46    33    34    1
@<TRIPOS>MOLECULE
*****
 42 46 0 0 0
SMALL
GASTEIGER

@<TRIPOS>ATOM
      1 C         -24.9213   50.3363   -8.2285 C.ar    1  UNL1        0.0922
      2 C         -23.6254   50.6972   -7.7951 C.ar    1  UNL1        0.0284
      3 C         -22.8350   51.4698   -8.6424 C.ar    1  UNL1        0.1033
      4 N         -21.5933   51.9267   -8.4011 N.ar    1  UNL1       -0.2134
      5 C         -21.2983   52.6130   -9.5342 C.ar    1  UNL1        0.2019
      6 N         -22.2848   52.5707  -10.4731 N.ar    1  UNL1       -0.2950
      7 C         -22.2718   53.1110  -11.8331 C.3     1  UNL1        0.1333
      8 C         -23.2628   51.8620   -9.8783 C.ar    1  UNL1        0.1173
      9 C         -24.5259   51.5038  -10.3574 C.ar    1  UNL1        0.1897
     10 C         -25.3663   50.7433   -9.5169 C.ar    1  UNL1        0.1782
     11 O         -26.6320   50.3843   -9.9967 O.3     1  UNL1       -0.4682
     12 C         -27.2017   51.0230  -11.1413 C.3     1  UNL1        0.2526
     13 C         -26.1268   51.2517  -12.2098 C.3     1  UNL1        0.2527
     14 O         -24.9771   51.8699  -11.6290 O.3     1  UNL1       -0.4669
     15 N         -25.6811   48.1012   -7.3035 N.am    1  UNL1       -0.2803
     16 C         -25.7818   49.5365   -7.3322 C.2     1  UNL1        0.2526
     17 O         -26.6121   50.1325   -6.5936 O.2     1  UNL1       -0.2697
     18 H         -24.9564   47.6371   -7.8951 H       1  UNL1        0.1552
     19 C         -28.5763   46.1357   -5.9839 C.ar    1  UNL1        0.0359
     20 C         -27.7719   46.9278   -6.8156 C.ar    1  UNL1        0.0150
     21 C         -26.4639   47.2585   -6.4418 C.ar    1  UNL1        0.0504
     22 C         -25.9667   46.8132   -5.2061 C.ar    1  UNL1        0.0208
     23 C         -26.7487   45.9948   -4.3705 C.ar    1  UNL1        0.0998
     24 C         -28.0547   45.6554   -4.7703 C.ar    1  UNL1        0.1424
     25 F         -28.8219   44.8655   -3.9734 F       1  UNL1       -0.2045
     26 C         -26.2215   45.5020   -3.0433 C.3     1  UNL1        0.4207
     27 F         -27.0377   45.9618   -2.0259 F       1  UNL1       -0.1658
     28 F         -26.2186   44.1188   -3.0295 F       1  UNL1       -0.1658
     29 F         -24.9306   45.9423   -2.8066 F       1  UNL1       -0.1658
     30 C         -29.9626   45.7519   -6.4227 C.3     1  UNL1        0.1710
     31 C         -30.4124   44.3771   -8.2141 C.3     1  UNL1        0.1746
     32 O         -29.9415   44.4189   -6.8859 O.3     1  UNL1       -0.3463
     33 N         -20.0497   53.2992   -9.6986 N.pl3   1  UNL1       -0.2814
     34 H         -20.0720   54.2291  -10.1738 H       1  UNL1        0.1551
     35 C         -18.7687   52.7162   -9.4015 C.ar    1  UNL1        0.0889
     36 C         -18.2650   52.7029   -8.0837 C.ar    1  UNL1        0.1543
     37 F         -18.9863   53.2181   -7.0565 F       1  UNL1       -0.2028
     38 C         -17.0212   52.1260   -7.8116 C.ar    1  UNL1        0.0310
     39 C         -16.2742   51.5494   -8.8397 C.ar    1  UNL1        0.0033
     40 C         -16.7704   51.5414  -10.1444 C.ar    1  UNL1        0.0128
     41 C         -18.0144   52.1159  -10.4299 C.ar    1  UNL1        0.0733
     42 CL        -18.5864   52.1076  -12.0931 Cl      1  UNL1       -0.0809
@<TRIPOS>BOND
     1    31    32    1
     2    32    30    1
     3    30    19    1
     4    19    20   ar
     5    20    21   ar
     6    21    15    1
     7    15    16   am
     8    16    17    2
     9    16     1    1
    10     1     2   ar
    11     2     3   ar
    12     3     4   ar
    13     4     5   ar
    14     5    33    1
    15    33    35    1
    16    35    36   ar
    17    36    37    1
    18    36    38   ar
    19    38    39   ar
    20    39    40   ar
    21    40    41   ar
    22    41    42    1
    23     5     6   ar
    24     6     7    1
    25     6     8   ar
    26     8     9   ar
    27     9    10   ar
    28    10    11    1
    29    11    12    1
    30    12    13    1
    31    13    14    1
    32    21    22   ar
    33    22    23   ar
    34    23    26    1
    35    26    27    1
    36    26    28    1
    37    26    29    1
    38    23    24   ar
    39    24    25    1
    40    24    19   ar
    41    10     1   ar
    42     8     3   ar
    43    14     9    1
    44    41    35   ar
    45    15    18    1
    46    33    34    1
@<TRIPOS>MOLECULE
*****
 42 46 0 0 0
SMALL
GASTEIGER

@<TRIPOS>ATOM
      1 C         -24.9555   50.4222   -8.2305 C.ar    1  UNL1        0.0922
      2 C         -23.6659   50.7777   -7.7745 C.ar    1  UNL1        0.0284
      3 C         -22.8436   51.5151   -8.6227 C.ar    1  UNL1        0.1033
      4 N         -21.6020   51.9619   -8.3627 N.ar    1  UNL1       -0.2134
      5 C         -21.2688   52.6116   -9.5068 C.ar    1  UNL1        0.2019
      6 N         -22.2319   52.5559  -10.4691 N.ar    1  UNL1       -0.2950
      7 C         -22.1770   53.0570  -11.8430 C.3     1  UNL1        0.1333
      8 C         -23.2345   51.8777   -9.8797 C.ar    1  UNL1        0.1173
      9 C         -24.4901   51.5231  -10.3807 C.ar    1  UNL1        0.1897
     10 C         -25.3622   50.7982   -9.5408 C.ar    1  UNL1        0.1782
     11 O         -26.6203   50.4429  -10.0425 O.3     1  UNL1       -0.4682
     12 C         -27.1520   51.0563  -11.2188 C.3     1  UNL1        0.2526
     13 C         -26.0474   51.2400  -12.2655 C.3     1  UNL1        0.2527
     14 O         -24.9040   51.8588  -11.6732 O.3     1  UNL1       -0.4669
     15 N         -25.8006   48.2222   -7.2953 N.am    1  UNL1       -0.2803
     16 C         -25.8496   49.6600   -7.3344 C.2     1  UNL1        0.2526
     17 O         -26.6626   50.2904   -6.6052 O.2     1  UNL1       -0.2697
     18 H         -25.0893   47.7284   -7.8791 H       1  UNL1        0.1552
     19 C         -26.9316   46.3286   -4.2751 C.ar    1  UNL1        0.0359
     20 C         -26.1763   47.1409   -5.1330 C.ar    1  UNL1        0.0150
     21 C         -26.6182   47.4141   -6.4329 C.ar    1  UNL1        0.0504
     22 C         -27.8179   46.8424   -6.8875 C.ar    1  UNL1        0.0208
     23 C         -28.6031   46.0472   -6.0328 C.ar    1  UNL1        0.0998
     24 C         -28.1540   45.7985   -4.7225 C.ar    1  UNL1        0.1424
     25 F         -28.9022   45.0323   -3.8854 F       1  UNL1       -0.2045
     26 C         -29.8999   45.4344   -6.5074 C.3     1  UNL1        0.4207
     27 F         -30.9626   46.1660   -6.0094 F       1  UNL1       -0.1658
     28 F         -29.9452   45.4563   -7.8899 F       1  UNL1       -0.1658
     29 F         -30.0328   44.1217   -6.0884 F       1  UNL1       -0.1658
     30 C         -26.4644   46.0838   -2.8667 C.3     1  UNL1        0.1710
     31 C         -25.3816   44.1212   -2.3403 C.3     1  UNL1        0.1746
     32 O         -25.2290   45.4025   -2.9082 O.3     1  UNL1       -0.3463
     33 N         -20.0068   53.2759   -9.6585 N.pl3   1  UNL1       -0.2814
     34 H         -20.0082   54.2062  -10.1333 H       1  UNL1        0.1551
     35 C         -18.7392   52.6704   -9.3493 C.ar    1  UNL1        0.0889
     36 C         -18.2577   52.6305   -8.0238 C.ar    1  UNL1        0.1543
     37 F         -18.9886   53.1407   -7.0009 F       1  UNL1       -0.2028
     38 C         -17.0267   52.0320   -7.7400 C.ar    1  UNL1        0.0310
     39 C         -16.2709   51.4600   -8.7643 C.ar    1  UNL1        0.0033
     40 C         -16.7455   51.4784  -10.0769 C.ar    1  UNL1        0.0128
     41 C         -17.9765   52.0747  -10.3740 C.ar    1  UNL1        0.0733
     42 CL        -18.5209   52.0990  -12.0464 Cl      1  UNL1       -0.0809
@<TRIPOS>BOND
     1    31    32    1
     2    32    30    1
     3    30    19    1
     4    19    20   ar
     5    20    21   ar
     6    21    15    1
     7    15    16   am
     8    16    17    2
     9    16     1    1
    10     1     2   ar
    11     2     3   ar
    12     3     4   ar
    13     4     5   ar
    14     5    33    1
    15    33    35    1
    16    35    36   ar
    17    36    37    1
    18    36    38   ar
    19    38    39   ar
    20    39    40   ar
    21    40    41   ar
    22    41    42    1
    23     5     6   ar
    24     6     7    1
    25     6     8   ar
    26     8     9   ar
    27     9    10   ar
    28    10    11    1
    29    11    12    1
    30    12    13    1
    31    13    14    1
    32    21    22   ar
    33    22    23   ar
    34    23    26    1
    35    26    27    1
    36    26    28    1
    37    26    29    1
    38    23    24   ar
    39    24    25    1
    40    24    19   ar
    41    10     1   ar
    42     8     3   ar
    43    14     9    1
    44    41    35   ar
    45    15    18    1
    46    33    34    1
@<TRIPOS>MOLECULE
*****
 42 46 0 0 0
SMALL
GASTEIGER

@<TRIPOS>ATOM
      1 C         -24.8302   50.5394   -8.2897 C.ar    1  UNL1        0.0922
      2 C         -23.5380   50.8845   -7.8328 C.ar    1  UNL1        0.0284
      3 C         -22.6971   51.5865   -8.6928 C.ar    1  UNL1        0.1033
      4 N         -21.4500   52.0188   -8.4344 N.ar    1  UNL1       -0.2134
      5 C         -21.0976   52.6339   -9.5918 C.ar    1  UNL1        0.2019
      6 N         -22.0544   52.5703  -10.5597 N.ar    1  UNL1       -0.2950
      7 C         -21.9811   53.0359  -11.9452 C.3     1  UNL1        0.1333
      8 C         -23.0727   51.9241   -9.9614 C.ar    1  UNL1        0.1173
      9 C         -24.3305   51.5781  -10.4630 C.ar    1  UNL1        0.1897
     10 C         -25.2208   50.8893   -9.6121 C.ar    1  UNL1        0.1782
     11 O         -26.4811   50.5427  -10.1145 O.3     1  UNL1       -0.4682
     12 C         -26.9937   51.1353  -11.3097 C.3     1  UNL1        0.2526
     13 C         -25.8785   51.2742  -12.3521 C.3     1  UNL1        0.2527
     14 O         -24.7291   51.8883  -11.7666 O.3     1  UNL1       -0.4669
     15 N         -26.1933   50.4187   -6.1553 N.am    1  UNL1       -0.2803
     16 C         -25.7435   49.8150   -7.3818 C.2     1  UNL1        0.2526
     17 O         -26.1206   48.6537   -7.6967 O.2     1  UNL1       -0.2697
     18 H         -25.8984   51.3971   -5.9400 H       1  UNL1        0.1552
     19 C         -27.5712   47.9607   -3.6964 C.ar    1  UNL1        0.0359
     20 C         -26.7004   48.6211   -4.5749 C.ar    1  UNL1        0.0150
     21 C         -27.1004   49.7887   -5.2357 C.ar    1  UNL1        0.0504
     22 C         -28.3993   50.2838   -5.0349 C.ar    1  UNL1        0.0208
     23 C         -29.2778   49.6508   -4.1366 C.ar    1  UNL1        0.0998
     24 C         -28.8530   48.4890   -3.4655 C.ar    1  UNL1        0.1424
     25 F         -29.6909   47.8668   -2.5946 F       1  UNL1       -0.2045
     26 C         -30.6741   50.1793   -3.9053 C.3     1  UNL1        0.4207
     27 F         -31.5829   49.3866   -4.5825 F       1  UNL1       -0.1658
     28 F         -30.9652   50.1457   -2.5534 F       1  UNL1       -0.1658
     29 F         -30.8107   51.4839   -4.3477 F       1  UNL1       -0.1658
     30 C         -27.1083   46.7338   -2.9599 C.3     1  UNL1        0.1710
     31 C         -25.2408   45.4102   -2.7117 C.3     1  UNL1        0.1746
     32 O         -25.6973   46.7263   -2.9283 O.3     1  UNL1       -0.3463
     33 N         -19.8234   53.2730   -9.7502 N.pl3   1  UNL1       -0.2814
     34 H         -19.8026   54.1802  -10.2673 H       1  UNL1        0.1551
     35 C         -18.5706   52.6649   -9.3898 C.ar    1  UNL1        0.0889
     36 C         -18.1339   52.6422   -8.0485 C.ar    1  UNL1        0.1543
     37 F         -18.8953   53.1719   -7.0584 F       1  UNL1       -0.2028
     38 C         -16.9168   52.0409   -7.7149 C.ar    1  UNL1        0.0310
     39 C         -16.1309   51.4492   -8.7047 C.ar    1  UNL1        0.0033
     40 C         -16.5613   51.4505  -10.0326 C.ar    1  UNL1        0.0128
     41 C         -17.7779   52.0493  -10.3796 C.ar    1  UNL1        0.0733
     42 CL        -18.2661   52.0517  -12.0693 Cl      1  UNL1       -0.0809
@<TRIPOS>BOND
     1    31    32    1
     2    32    30    1
     3    30    19    1
     4    19    20   ar
     5    20    21   ar
     6    21    15    1
     7    15    16   am
     8    16    17    2
     9    16     1    1
    10     1     2   ar
    11     2     3   ar
    12     3     4   ar
    13     4     5   ar
    14     5    33    1
    15    33    35    1
    16    35    36   ar
    17    36    37    1
    18    36    38   ar
    19    38    39   ar
    20    39    40   ar
    21    40    41   ar
    22    41    42    1
    23     5     6   ar
    24     6     7    1
    25     6     8   ar
    26     8     9   ar
    27     9    10   ar
    28    10    11    1
    29    11    12    1
    30    12    13    1
    31    13    14    1
    32    21    22   ar
    33    22    23   ar
    34    23    26    1
    35    26    27    1
    36    26    28    1
    37    26    29    1
    38    23    24   ar
    39    24    25    1
    40    24    19   ar
    41    10     1   ar
    42     8     3   ar
    43    14     9    1
    44    41    35   ar
    45    15    18    1
    46    33    34    1
@<TRIPOS>MOLECULE
*****
 42 46 0 0 0
SMALL
GASTEIGER

@<TRIPOS>ATOM
      1 C         -24.8416   50.4210   -8.1532 C.ar    1  UNL1        0.0922
      2 C         -23.5573   50.8597   -7.7586 C.ar    1  UNL1        0.0284
      3 C         -22.8306   51.6575   -8.6388 C.ar    1  UNL1        0.1033
      4 N         -21.6103   52.1854   -8.4366 N.ar    1  UNL1       -0.2134
      5 C         -21.3802   52.8649   -9.5887 C.ar    1  UNL1        0.2019
      6 N         -22.3849   52.7512  -10.5020 N.ar    1  UNL1       -0.2950
      7 C         -22.4337   53.2653  -11.8714 C.3     1  UNL1        0.1333
      8 C         -23.3083   52.0023   -9.8706 C.ar    1  UNL1        0.1173
      9 C         -24.5611   51.5671  -10.3118 C.ar    1  UNL1        0.1897
     10 C         -25.3386   50.7785   -9.4373 C.ar    1  UNL1        0.1782
     11 O         -26.5938   50.3425   -9.8792 O.3     1  UNL1       -0.4682
     12 C         -27.2246   50.9274  -11.0206 C.3     1  UNL1        0.2526
     13 C         -26.1894   51.1934  -12.1192 C.3     1  UNL1        0.2527
     14 O         -25.0616   51.8838  -11.5782 O.3     1  UNL1       -0.4669
     15 N         -25.7839   48.1783   -7.4387 N.am    1  UNL1       -0.2803
     16 C         -25.6357   49.5932   -7.2219 C.2     1  UNL1        0.2526
     17 O         -26.1875   50.1481   -6.2331 O.2     1  UNL1       -0.2697
     18 H         -25.2820   47.7385   -8.2420 H       1  UNL1        0.1552
     19 C         -28.5780   46.1053   -6.0667 C.ar    1  UNL1        0.0359
     20 C         -27.8206   46.9291   -6.9115 C.ar    1  UNL1        0.0150
     21 C         -26.5173   47.3045   -6.5646 C.ar    1  UNL1        0.0504
     22 C         -25.9777   46.8717   -5.3422 C.ar    1  UNL1        0.0208
     23 C         -26.7118   46.0224   -4.4941 C.ar    1  UNL1        0.0998
     24 C         -28.0133   45.6386   -4.8672 C.ar    1  UNL1        0.1424
     25 F         -28.7344   44.8183   -4.0580 F       1  UNL1       -0.2045
     26 C         -26.1385   45.5429   -3.1812 C.3     1  UNL1        0.4207
     27 F         -26.3712   44.1862   -3.0470 F       1  UNL1       -0.1658
     28 F         -24.7743   45.7714   -3.1591 F       1  UNL1       -0.1658
     29 F         -26.7068   46.1971   -2.1017 F       1  UNL1       -0.1658
     30 C         -29.9592   45.6744   -6.4774 C.3     1  UNL1        0.1710
     31 C         -30.1308   44.2646   -8.2896 C.3     1  UNL1        0.1746
     32 O         -30.0168   45.6106   -7.8861 O.3     1  UNL1       -0.3463
     33 N         -20.1750   53.6143   -9.7962 N.pl3   1  UNL1       -0.2814
     34 H         -19.5338   53.2915  -10.5549 H       1  UNL1        0.1551
     35 C         -19.7251   54.6671   -8.9254 C.ar    1  UNL1        0.0889
     36 C         -20.2508   55.9720   -9.0320 C.ar    1  UNL1        0.1543
     37 F         -21.2131   56.2636   -9.9429 F       1  UNL1       -0.2028
     38 C         -19.8071   56.9816   -8.1730 C.ar    1  UNL1        0.0310
     39 C         -18.8495   56.7031   -7.1969 C.ar    1  UNL1        0.0033
     40 C         -18.3350   55.4116   -7.0710 C.ar    1  UNL1        0.0128
     41 C         -18.7710   54.3919   -7.9250 C.ar    1  UNL1        0.0733
     42 CL        -18.0740   52.7867   -7.7478 Cl      1  UNL1       -0.0809
@<TRIPOS>BOND
     1    31    32    1
     2    32    30    1
     3    30    19    1
     4    19    20   ar
     5    20    21   ar
     6    21    15    1
     7    15    16   am
     8    16    17    2
     9    16     1    1
    10     1     2   ar
    11     2     3   ar
    12     3     4   ar
    13     4     5   ar
    14     5    33    1
    15    33    35    1
    16    35    36   ar
    17    36    37    1
    18    36    38   ar
    19    38    39   ar
    20    39    40   ar
    21    40    41   ar
    22    41    42    1
    23     5     6   ar
    24     6     7    1
    25     6     8   ar
    26     8     9   ar
    27     9    10   ar
    28    10    11    1
    29    11    12    1
    30    12    13    1
    31    13    14    1
    32    21    22   ar
    33    22    23   ar
    34    23    26    1
    35    26    27    1
    36    26    28    1
    37    26    29    1
    38    23    24   ar
    39    24    25    1
    40    24    19   ar
    41    10     1   ar
    42     8     3   ar
    43    14     9    1
    44    41    35   ar
    45    15    18    1
    46    33    34    1
@<TRIPOS>MOLECULE
*****
 42 46 0 0 0
SMALL
GASTEIGER

@<TRIPOS>ATOM
      1 C         -25.0179   50.4548   -8.4833 C.ar    1  UNL1        0.0922
      2 C         -23.7346   50.8099   -8.0096 C.ar    1  UNL1        0.0284
      3 C         -22.9046   51.5566   -8.8421 C.ar    1  UNL1        0.1033
      4 N         -21.6673   52.0045   -8.5641 N.ar    1  UNL1       -0.2134
      5 C         -21.3229   52.6647   -9.6989 C.ar    1  UNL1        0.2019
      6 N         -22.2747   52.6145  -10.6725 N.ar    1  UNL1       -0.2950
      7 C         -22.2055   53.1272  -12.0415 C.3     1  UNL1        0.1333
      8 C         -23.2821   51.9287  -10.1004 C.ar    1  UNL1        0.1173
      9 C         -24.5309   51.5749  -10.6187 C.ar    1  UNL1        0.1897
     10 C         -25.4106   50.8407   -9.7950 C.ar    1  UNL1        0.1782
     11 O         -26.6619   50.4863  -10.3141 O.3     1  UNL1       -0.4682
     12 C         -27.1817   51.1081  -11.4912 C.3     1  UNL1        0.2526
     13 C         -26.0657   51.3035  -12.5236 C.3     1  UNL1        0.2527
     14 O         -24.9309   51.9204  -11.9130 O.3     1  UNL1       -0.4669
     15 N         -26.6054   50.3204   -6.5109 N.am    1  UNL1       -0.2803
     16 C         -25.9201   49.6827   -7.6039 C.2     1  UNL1        0.2526
     17 O         -26.0773   48.4509   -7.8234 O.2     1  UNL1       -0.2697
     18 H         -26.4890   51.3496   -6.3778 H       1  UNL1        0.1552
     19 C         -29.7664   48.8177   -5.1933 C.ar    1  UNL1        0.0359
     20 C         -28.8407   49.4444   -6.0397 C.ar    1  UNL1        0.0150
     21 C         -27.5169   49.6432   -5.6301 C.ar    1  UNL1        0.0504
     22 C         -27.1242   49.2340   -4.3452 C.ar    1  UNL1        0.0208
     23 C         -28.0310   48.5789   -3.4921 C.ar    1  UNL1        0.0998
     24 C         -29.3530   48.3694   -3.9269 C.ar    1  UNL1        0.1424
     25 F         -30.2402   47.7377   -3.1136 F       1  UNL1       -0.2045
     26 C         -27.6177   48.1259   -2.1113 C.3     1  UNL1        0.4207
     27 F         -28.5672   48.5324   -1.1916 F       1  UNL1       -0.1658
     28 F         -27.5244   46.7460   -2.0840 F       1  UNL1       -0.1658
     29 F         -26.3918   48.6524   -1.7422 F       1  UNL1       -0.1658
     30 C         -31.1721   48.5710   -5.6677 C.3     1  UNL1        0.1710
     31 C         -31.5834   47.0556   -7.3517 C.3     1  UNL1        0.1746
     32 O         -31.1527   48.3668   -7.0642 O.3     1  UNL1       -0.3463
     33 N         -20.0611   53.3336   -9.8305 N.pl3   1  UNL1       -0.2814
     34 H         -20.0664   54.2898  -10.2507 H       1  UNL1        0.1551
     35 C         -18.7911   52.7082   -9.5754 C.ar    1  UNL1        0.0889
     36 C         -18.0127   52.1883  -10.6310 C.ar    1  UNL1        0.1543
     37 F         -18.4299   52.2858  -11.9183 F       1  UNL1       -0.2028
     38 C         -16.7776   51.5898  -10.3659 C.ar    1  UNL1        0.0310
     39 C         -16.3009   51.5126   -9.0566 C.ar    1  UNL1        0.0033
     40 C         -17.0545   52.0391   -8.0063 C.ar    1  UNL1        0.0128
     41 C         -18.2929   52.6408   -8.2585 C.ar    1  UNL1        0.0733
     42 CL        -19.2204   53.2651   -6.9007 Cl      1  UNL1       -0.0809
@<TRIPOS>BOND
     1    31    32    1
     2    32    30    1
     3    30    19    1
     4    19    20   ar
     5    20    21   ar
     6    21    15    1
     7    15    16   am
     8    16    17    2
     9    16     1    1
    10     1     2   ar
    11     2     3   ar
    12     3     4   ar
    13     4     5   ar
    14     5    33    1
    15    33    35    1
    16    35    36   ar
    17    36    37    1
    18    36    38   ar
    19    38    39   ar
    20    39    40   ar
    21    40    41   ar
    22    41    42    1
    23     5     6   ar
    24     6     7    1
    25     6     8   ar
    26     8     9   ar
    27     9    10   ar
    28    10    11    1
    29    11    12    1
    30    12    13    1
    31    13    14    1
    32    21    22   ar
    33    22    23   ar
    34    23    26    1
    35    26    27    1
    36    26    28    1
    37    26    29    1
    38    23    24   ar
    39    24    25    1
    40    24    19   ar
    41    10     1   ar
    42     8     3   ar
    43    14     9    1
    44    41    35   ar
    45    15    18    1
    46    33    34    1
@<TRIPOS>MOLECULE
*****
 42 46 0 0 0
SMALL
GASTEIGER

@<TRIPOS>ATOM
      1 C         -24.9648   50.4827   -8.3687 C.ar    1  UNL1        0.0922
      2 C         -23.6911   50.8998   -7.9201 C.ar    1  UNL1        0.0284
      3 C         -22.9098   51.6753   -8.7730 C.ar    1  UNL1        0.1033
      4 N         -21.6896   52.1812   -8.5201 N.ar    1  UNL1       -0.2134
      5 C         -21.3943   52.8456   -9.6662 C.ar    1  UNL1        0.2019
      6 N         -22.3590   52.7433  -10.6230 N.ar    1  UNL1       -0.2950
      7 C         -22.3359   53.2458  -11.9973 C.3     1  UNL1        0.1333
      8 C         -23.3246   52.0182  -10.0279 C.ar    1  UNL1        0.1173
      9 C         -24.5646   51.6036  -10.5217 C.ar    1  UNL1        0.1897
     10 C         -25.3963   50.8382   -9.6768 C.ar    1  UNL1        0.1782
     11 O         -26.6387   50.4228  -10.1714 O.3     1  UNL1       -0.4682
     12 C         -27.2057   51.0095  -11.3448 C.3     1  UNL1        0.2526
     13 C         -26.1170   51.2454  -12.3977 C.3     1  UNL1        0.2527
     14 O         -25.0013   51.9185  -11.8119 O.3     1  UNL1       -0.4669
     15 N         -26.3104   48.3909   -7.8769 N.am    1  UNL1       -0.2803
     16 C         -25.8163   49.6790   -7.4675 C.2     1  UNL1        0.2526
     17 O         -26.1085   50.1425   -6.3318 O.2     1  UNL1       -0.2697
     18 H         -26.0188   48.0137   -8.8060 H       1  UNL1        0.1552
     19 C         -27.2695   45.9668   -5.1954 C.ar    1  UNL1        0.0359
     20 C         -26.5168   46.8311   -6.0033 C.ar    1  UNL1        0.0150
     21 C         -27.1204   47.5410   -7.0480 C.ar    1  UNL1        0.0504
     22 C         -28.4896   47.3601   -7.3035 C.ar    1  UNL1        0.0208
     23 C         -29.2670   46.5185   -6.4870 C.ar    1  UNL1        0.0998
     24 C         -28.6485   45.8273   -5.4286 C.ar    1  UNL1        0.1424
     25 F         -29.3870   45.0108   -4.6313 F       1  UNL1       -0.2045
     26 C         -30.7425   46.3232   -6.7462 C.3     1  UNL1        0.4207
     27 F         -31.4594   46.7012   -5.6256 F       1  UNL1       -0.1658
     28 F         -31.1334   47.1061   -7.8176 F       1  UNL1       -0.1658
     29 F         -31.0436   45.0040   -7.0385 F       1  UNL1       -0.1658
     30 C         -26.6138   45.2478   -4.0487 C.3     1  UNL1        0.1710
     31 C         -24.8703   46.0187   -2.7575 C.3     1  UNL1        0.1746
     32 O         -25.2381   45.5630   -4.0399 O.3     1  UNL1       -0.3463
     33 N         -20.1664   53.5695   -9.8250 N.pl3   1  UNL1       -0.2814
     34 H         -19.4831   53.2070  -10.5268 H       1  UNL1        0.1551
     35 C         -19.7565   54.6512   -8.9701 C.ar    1  UNL1        0.0889
     36 C         -20.3078   55.9415   -9.1166 C.ar    1  UNL1        0.1543
     37 F         -21.2579   56.1914  -10.0524 F       1  UNL1       -0.2028
     38 C         -19.9030   56.9797   -8.2726 C.ar    1  UNL1        0.0310
     39 C         -18.9591   56.7442   -7.2721 C.ar    1  UNL1        0.0033
     40 C         -18.4196   55.4674   -7.1067 C.ar    1  UNL1        0.0128
     41 C         -18.8167   54.4195   -7.9454 C.ar    1  UNL1        0.0733
     42 CL        -18.0891   52.8343   -7.7181 Cl      1  UNL1       -0.0809
@<TRIPOS>BOND
     1    31    32    1
     2    32    30    1
     3    30    19    1
     4    19    20   ar
     5    20    21   ar
     6    21    15    1
     7    15    16   am
     8    16    17    2
     9    16     1    1
    10     1     2   ar
    11     2     3   ar
    12     3     4   ar
    13     4     5   ar
    14     5    33    1
    15    33    35    1
    16    35    36   ar
    17    36    37    1
    18    36    38   ar
    19    38    39   ar
    20    39    40   ar
    21    40    41   ar
    22    41    42    1
    23     5     6   ar
    24     6     7    1
    25     6     8   ar
    26     8     9   ar
    27     9    10   ar
    28    10    11    1
    29    11    12    1
    30    12    13    1
    31    13    14    1
    32    21    22   ar
    33    22    23   ar
    34    23    26    1
    35    26    27    1
    36    26    28    1
    37    26    29    1
    38    23    24   ar
    39    24    25    1
    40    24    19   ar
    41    10     1   ar
    42     8     3   ar
    43    14     9    1
    44    41    35   ar
    45    15    18    1
    46    33    34    1
@<TRIPOS>MOLECULE
*****
 42 46 0 0 0
SMALL
GASTEIGER

@<TRIPOS>ATOM
      1 C         -24.3838   51.6752  -10.1598 C.ar    1  UNL1        0.0922
      2 C         -24.3683   51.5699  -11.5691 C.ar    1  UNL1        0.0284
      3 C         -25.5830   51.4327  -12.2363 C.ar    1  UNL1        0.1033
      4 N         -25.7732   51.3395  -13.5644 N.ar    1  UNL1       -0.2134
      5 C         -27.1218   51.2283  -13.6695 C.ar    1  UNL1        0.2019
      6 N         -27.7657   51.2139  -12.4688 N.ar    1  UNL1       -0.2950
      7 C         -29.1906   51.0138  -12.2016 C.3     1  UNL1        0.1333
      8 C         -26.7742   51.3709  -11.5718 C.ar    1  UNL1        0.1173
      9 C         -26.8328   51.4429  -10.1773 C.ar    1  UNL1        0.1897
     10 C         -25.6246   51.6089   -9.4673 C.ar    1  UNL1        0.1782
     11 O         -25.6831   51.6811   -8.0700 O.3     1  UNL1       -0.4682
     12 C         -26.9176   51.9144   -7.3886 C.3     1  UNL1        0.2526
     13 C         -28.0498   51.1300   -8.0610 C.3     1  UNL1        0.2527
     14 O         -28.0366   51.3553   -9.4718 O.3     1  UNL1       -0.4669
     15 N         -21.9789   52.4738  -10.0749 N.am    1  UNL1       -0.2803
     16 C         -23.1057   51.8449   -9.4379 C.2     1  UNL1        0.2526
     17 O         -23.0153   51.4244   -8.2526 O.2     1  UNL1       -0.2697
     18 H         -22.0947   52.8496  -11.0424 H       1  UNL1        0.1552
     19 C         -19.3217   54.0954   -8.0022 C.ar    1  UNL1        0.0359
     20 C         -20.5517   53.8271   -8.6197 C.ar    1  UNL1        0.0150
     21 C         -20.7140   52.6975   -9.4305 C.ar    1  UNL1        0.0504
     22 C         -19.6213   51.8422   -9.6476 C.ar    1  UNL1        0.0208
     23 C         -18.3873   52.0795   -9.0150 C.ar    1  UNL1        0.0998
     24 C         -18.2468   53.2090   -8.1873 C.ar    1  UNL1        0.1424
     25 F         -17.0605   53.4510   -7.5694 F       1  UNL1       -0.2045
     26 C         -17.2074   51.1615   -9.2334 C.3     1  UNL1        0.4207
     27 F         -16.5587   51.5178  -10.4016 F       1  UNL1       -0.1658
     28 F         -16.3259   51.2782   -8.1737 F       1  UNL1       -0.1658
     29 F         -17.5971   49.8367   -9.3314 F       1  UNL1       -0.1658
     30 C         -19.1790   55.2883   -7.0975 C.3     1  UNL1        0.1710
     31 C         -18.9097   57.5747   -7.0627 C.3     1  UNL1        0.1746
     32 O         -19.1682   56.4593   -7.8853 O.3     1  UNL1       -0.3463
     33 N         -27.7747   51.1267  -14.9424 N.pl3   1  UNL1       -0.2814
     34 H         -28.7780   51.4130  -14.9914 H       1  UNL1        0.1551
     35 C         -27.1857   50.5064  -16.0989 C.ar    1  UNL1        0.0889
     36 C         -25.9357   50.9335  -16.5944 C.ar    1  UNL1        0.1543
     37 F         -25.2436   51.9249  -15.9788 F       1  UNL1       -0.2028
     38 C         -25.3746   50.3150  -17.7154 C.ar    1  UNL1        0.0310
     39 C         -26.0418   49.2635  -18.3453 C.ar    1  UNL1        0.0033
     40 C         -27.2709   48.8212  -17.8534 C.ar    1  UNL1        0.0128
     41 C         -27.8434   49.4323  -16.7317 C.ar    1  UNL1        0.0733
     42 CL        -29.4069   48.8601  -16.1645 Cl      1  UNL1       -0.0809
@<TRIPOS>BOND
     1    31    32    1
     2    32    30    1
     3    30    19    1
     4    19    20   ar
     5    20    21   ar
     6    21    15    1
     7    15    16   am
     8    16    17    2
     9    16     1    1
    10     1     2   ar
    11     2     3   ar
    12     3     4   ar
    13     4     5   ar
    14     5    33    1
    15    33    35    1
    16    35    36   ar
    17    36    37    1
    18    36    38   ar
    19    38    39   ar
    20    39    40   ar
    21    40    41   ar
    22    41    42    1
    23     5     6   ar
    24     6     7    1
    25     6     8   ar
    26     8     9   ar
    27     9    10   ar
    28    10    11    1
    29    11    12    1
    30    12    13    1
    31    13    14    1
    32    21    22   ar
    33    22    23   ar
    34    23    26    1
    35    26    27    1
    36    26    28    1
    37    26    29    1
    38    23    24   ar
    39    24    25    1
    40    24    19   ar
    41    10     1   ar
    42     8     3   ar
    43    14     9    1
    44    41    35   ar
    45    15    18    1
    46    33    34    1
@<TRIPOS>MOLECULE
*****
 42 46 0 0 0
SMALL
GASTEIGER

@<TRIPOS>ATOM
      1 C         -24.4941   51.7075  -10.3006 C.ar    1  UNL1        0.0922
      2 C         -24.4787   51.5829  -11.7083 C.ar    1  UNL1        0.0284
      3 C         -25.6920   51.4192  -12.3720 C.ar    1  UNL1        0.1033
      4 N         -25.8824   51.3050  -13.6984 N.ar    1  UNL1       -0.2134
      5 C         -27.2294   51.1732  -13.8002 C.ar    1  UNL1        0.2019
      6 N         -27.8717   51.1664  -12.5986 N.ar    1  UNL1       -0.2950
      7 C         -29.2933   50.9497  -12.3268 C.3     1  UNL1        0.1333
      8 C         -26.8815   51.3498  -11.7051 C.ar    1  UNL1        0.1173
      9 C         -26.9396   51.4403  -10.3117 C.ar    1  UNL1        0.1897
     10 C         -25.7331   51.6332   -9.6056 C.ar    1  UNL1        0.1782
     11 O         -25.7911   51.7240   -8.2094 O.3     1  UNL1       -0.4682
     12 C         -27.0280   51.9492   -7.5297 C.3     1  UNL1        0.2526
     13 C         -28.1497   51.1395   -8.1897 C.3     1  UNL1        0.2527
     14 O         -28.1412   51.3454   -9.6034 O.3     1  UNL1       -0.4669
     15 N         -22.1126   52.5735  -10.2177 N.am    1  UNL1       -0.2803
     16 C         -23.2178   51.9053   -9.5828 C.2     1  UNL1        0.2526
     17 O         -23.1094   51.4739   -8.4029 O.2     1  UNL1       -0.2697
     18 H         -22.2440   52.9570  -11.1801 H       1  UNL1        0.1552
     19 C         -18.6255   52.0401   -8.9759 C.ar    1  UNL1        0.0359
     20 C         -19.8559   51.8424   -9.6188 C.ar    1  UNL1        0.0150
     21 C         -20.8513   52.8258   -9.5767 C.ar    1  UNL1        0.0504
     22 C         -20.6206   54.0097   -8.8572 C.ar    1  UNL1        0.0208
     23 C         -19.3827   54.2381   -8.2288 C.ar    1  UNL1        0.0998
     24 C         -18.3855   53.2473   -8.2974 C.ar    1  UNL1        0.1424
     25 F         -17.1846   53.4541   -7.6952 F       1  UNL1       -0.2045
     26 C         -19.1194   55.5116   -7.4598 C.3     1  UNL1        0.4207
     27 F         -19.4707   56.5990   -8.2387 F       1  UNL1       -0.1658
     28 F         -19.8781   55.5208   -6.3031 F       1  UNL1       -0.1658
     29 F         -17.7864   55.6337   -7.1069 F       1  UNL1       -0.1658
     30 C         -17.5508   50.9923   -9.0707 C.3     1  UNL1        0.1710
     31 C         -16.2142   51.6379  -10.8309 C.3     1  UNL1        0.1746
     32 O         -16.3358   51.6163   -9.4265 O.3     1  UNL1       -0.3463
     33 N         -27.8822   51.0447  -15.0708 N.pl3   1  UNL1       -0.2814
     34 H         -28.8857   51.3293  -15.1256 H       1  UNL1        0.1551
     35 C         -27.2928   50.4010  -16.2141 C.ar    1  UNL1        0.0889
     36 C         -26.0276   50.7959  -16.6976 C.ar    1  UNL1        0.1543
     37 F         -25.3214   51.7775  -16.0823 F       1  UNL1       -0.2028
     38 C         -25.4664   50.1548  -17.8059 C.ar    1  UNL1        0.0310
     39 C         -26.1487   49.1125  -18.4346 C.ar    1  UNL1        0.0033
     40 C         -27.3934   48.7018  -17.9543 C.ar    1  UNL1        0.0128
     41 C         -27.9661   49.3357  -16.8454 C.ar    1  UNL1        0.0733
     42 CL        -29.5487   48.8032  -16.2928 Cl      1  UNL1       -0.0809
@<TRIPOS>BOND
     1    31    32    1
     2    32    30    1
     3    30    19    1
     4    19    20   ar
     5    20    21   ar
     6    21    15    1
     7    15    16   am
     8    16    17    2
     9    16     1    1
    10     1     2   ar
    11     2     3   ar
    12     3     4   ar
    13     4     5   ar
    14     5    33    1
    15    33    35    1
    16    35    36   ar
    17    36    37    1
    18    36    38   ar
    19    38    39   ar
    20    39    40   ar
    21    40    41   ar
    22    41    42    1
    23     5     6   ar
    24     6     7    1
    25     6     8   ar
    26     8     9   ar
    27     9    10   ar
    28    10    11    1
    29    11    12    1
    30    12    13    1
    31    13    14    1
    32    21    22   ar
    33    22    23   ar
    34    23    26    1
    35    26    27    1
    36    26    28    1
    37    26    29    1
    38    23    24   ar
    39    24    25    1
    40    24    19   ar
    41    10     1   ar
    42     8     3   ar
    43    14     9    1
    44    41    35   ar
    45    15    18    1
    46    33    34    1
