@<TRIPOS>MOLECULE
*****
 46 51 0 0 0
SMALL
GASTEIGER

@<TRIPOS>ATOM
      1 C         -28.0865   49.3668   -6.5524 C.ar    1  UNL1        0.0702
      2 C         -28.8208   50.2890   -5.7898 C.ar    1  UNL1        0.0191
      3 C         -29.6833   49.8411   -4.7881 C.ar    1  UNL1        0.0356
      4 C         -29.7939   48.4650   -4.5327 C.ar    1  UNL1        0.1318
      5 N         -29.0695   47.5899   -5.2839 N.ar    1  UNL1       -0.2279
      6 C         -28.2241   48.0029   -6.2646 C.ar    1  UNL1        0.1149
      7 N         -30.6898   47.9631   -3.5232 N.pl3   1  UNL1       -0.2932
      8 C         -30.7568   48.6492   -2.2253 C.3     1  UNL1        0.0923
      9 C         -31.5839   47.8503   -1.2052 C.3     1  UNL1        0.0252
     10 C         -31.2613   46.3394   -1.2610 C.3     1  UNL1        0.0472
     11 C         -31.3954   45.7545   -2.6994 C.3     1  UNL1        0.0252
     12 C         -31.5840   46.8266   -3.7803 C.3     1  UNL1        0.0923
     13 C         -29.8655   46.0537   -0.6637 C.3     1  UNL1        0.2054
     14 O         -29.0643   45.2952   -1.5715 O.3     1  UNL1       -0.4755
     15 C         -28.0096   45.7997   -2.3503 C.ar    1  UNL1        0.1388
     16 C         -27.3499   45.0314   -3.3279 C.ar    1  UNL1        0.0369
     17 C         -26.2998   45.5835   -4.0632 C.ar    1  UNL1        0.0033
     18 C         -25.8984   46.9013   -3.8366 C.ar    1  UNL1        0.0066
     19 C         -26.5498   47.6887   -2.8716 C.ar    1  UNL1        0.0785
     20 C         -27.5997   47.1205   -2.1265 C.ar    1  UNL1        0.0433
     21 C         -26.1112   49.0865   -2.6380 C.2     1  UNL1        0.3381
     22 O         -25.7473   49.4428   -1.4857 O.2     1  UNL1       -0.2451
     23 O         -26.0730   50.0264   -3.6674 O.3     1  UNL1       -0.4771
     24 H         -26.2498   49.7848   -4.6337 H       1  UNL1        0.2954
     25 C         -26.8029   51.1595   -7.8022 C.2     1  UNL1        0.2839
     26 O         -27.5889   52.0862   -7.4675 O.2     1  UNL1       -0.2665
     27 N         -27.1707   49.7905   -7.5768 N.am    1  UNL1       -0.2766
     28 H         -26.8384   49.0778   -8.2643 H       1  UNL1        0.1553
     29 C         -22.3903   53.2135  -11.2126 C.ar    1  UNL1        0.1417
     30 C         -23.7755   53.2740  -10.9196 C.ar    1  UNL1        0.0743
     31 C         -24.2703   52.4732   -9.8970 C.ar    1  UNL1        0.1482
     32 O         -25.5106   52.3897   -9.4814 O.2     1  UNL1       -0.4491
     33 C         -25.5516   51.5084   -8.4977 C.ar    1  UNL1        0.1946
     34 C         -24.2665   51.0115   -8.2478 C.ar    1  UNL1        0.0202
     35 C         -23.8337   50.0219   -7.2086 C.3     1  UNL1        0.0345
     36 C         -23.4615   51.6404   -9.1766 C.ar    1  UNL1        0.0339
     37 C         -22.0962   51.5428   -9.4324 C.ar    1  UNL1        0.0058
     38 C         -21.5494   52.3322  -10.4700 C.ar    1  UNL1        0.0342
     39 C         -20.1003   52.2310  -10.7664 C.ar    1  UNL1        0.0029
     40 C         -19.1528   52.4208   -9.7444 C.ar    1  UNL1        0.0001
     41 C         -17.7859   52.3164  -10.0203 C.ar    1  UNL1        0.0000
     42 C         -17.3531   52.0164  -11.3143 C.ar    1  UNL1        0.0000
     43 C         -18.2866   51.8174  -12.3347 C.ar    1  UNL1        0.0000
     44 C         -19.6544   51.9210  -12.0639 C.ar    1  UNL1        0.0001
     45 C         -22.3396   54.1694  -13.5265 C.3     1  UNL1        0.2525
     46 O         -21.8183   54.0204  -12.2102 O.3     1  UNL1       -0.4713
@<TRIPOS>BOND
     1    45    46    1
     2    46    29    1
     3    29    30   ar
     4    30    31   ar
     5    31    32   ar
     6    32    33   ar
     7    33    25    1
     8    25    26    2
     9    25    27   am
    10    27     1    1
    11     1     2   ar
    12     2     3   ar
    13     3     4   ar
    14     4     7    1
    15     7     8    1
    16     8     9    1
    17     9    10    1
    18    10    13    1
    19    13    14    1
    20    14    15    1
    21    15    16   ar
    22    16    17   ar
    23    17    18   ar
    24    18    19   ar
    25    19    21    1
    26    21    22    2
    27    21    23    1
    28    19    20   ar
    29    10    11    1
    30    11    12    1
    31     4     5   ar
    32     5     6   ar
    33    33    34   ar
    34    34    35    1
    35    34    36   ar
    36    36    37   ar
    37    37    38   ar
    38    38    39    1
    39    39    40   ar
    40    40    41   ar
    41    41    42   ar
    42    42    43   ar
    43    43    44   ar
    44    38    29   ar
    45    44    39   ar
    46    36    31   ar
    47     6     1   ar
    48    12     7    1
    49    20    15   ar
    50    27    28    1
    51    23    24    1
@<TRIPOS>MOLECULE
*****
 46 51 0 0 0
SMALL
GASTEIGER

@<TRIPOS>ATOM
      1 C         -26.1228   49.8781   -9.8977 C.ar    1  UNL1        0.0702
      2 C         -27.1190   50.7391  -10.3849 C.ar    1  UNL1        0.0191
      3 C         -28.3707   50.2333  -10.7392 C.ar    1  UNL1        0.0356
      4 C         -28.6342   48.8632  -10.5832 C.ar    1  UNL1        0.1318
      5 N         -27.6528   48.0482  -10.1062 N.ar    1  UNL1       -0.2279
      6 C         -26.4267   48.5182   -9.7555 C.ar    1  UNL1        0.1149
      7 N         -29.9054   48.3004  -10.9589 N.pl3   1  UNL1       -0.2932
      8 C         -30.1957   46.9021  -10.6126 C.3     1  UNL1        0.0923
      9 C         -31.4876   46.4094  -11.2844 C.3     1  UNL1        0.0252
     10 C         -31.5829   46.8733  -12.7560 C.3     1  UNL1        0.0472
     11 C         -31.4033   48.4140  -12.9077 C.3     1  UNL1        0.0252
     12 C         -30.9416   49.1056  -11.6185 C.3     1  UNL1        0.0923
     13 C         -30.5817   46.0987  -13.6416 C.3     1  UNL1        0.2054
     14 O         -31.1144   45.8820  -14.9495 O.3     1  UNL1       -0.4755
     15 C         -30.5015   46.2598  -16.1557 C.ar    1  UNL1        0.1388
     16 C         -30.3231   45.3689  -17.2308 C.ar    1  UNL1        0.0369
     17 C         -29.6958   45.7986  -18.4013 C.ar    1  UNL1        0.0033
     18 C         -29.2436   47.1145  -18.5153 C.ar    1  UNL1        0.0066
     19 C         -29.4200   48.0227  -17.4572 C.ar    1  UNL1        0.0785
     20 C         -30.0429   47.5780  -16.2762 C.ar    1  UNL1        0.0433
     21 C         -28.9317   49.4173  -17.5896 C.2     1  UNL1        0.3381
     22 O         -28.7240   49.9005  -18.7344 O.2     1  UNL1       -0.2451
     23 O         -28.7072   50.2261  -16.4760 O.3     1  UNL1       -0.4771
     24 H         -28.9513   49.9411  -15.5365 H       1  UNL1        0.2954
     25 C         -23.9192   51.0297  -10.3891 C.2     1  UNL1        0.2839
     26 O         -23.9723   50.8058  -11.6283 O.2     1  UNL1       -0.2665
     27 N         -24.8294   50.3650   -9.5004 N.am    1  UNL1       -0.2766
     28 H         -24.4875   50.1266   -8.5426 H       1  UNL1        0.1553
     29 C         -19.0888   53.6718   -8.1512 C.ar    1  UNL1        0.1417
     30 C         -19.6887   52.4452   -8.5306 C.ar    1  UNL1        0.0743
     31 C         -20.9766   52.4729   -9.0526 C.ar    1  UNL1        0.1482
     32 O         -21.6932   51.4525   -9.4567 O.2     1  UNL1       -0.4491
     33 C         -22.8591   51.9139   -9.8737 C.ar    1  UNL1        0.1946
     34 C         -22.8910   53.3088   -9.7545 C.ar    1  UNL1        0.0202
     35 C         -23.9915   54.2534  -10.1330 C.3     1  UNL1        0.0345
     36 C         -21.6680   53.6412   -9.2069 C.ar    1  UNL1        0.0339
     37 C         -21.1222   54.8694   -8.8426 C.ar    1  UNL1        0.0058
     38 C         -19.8175   54.8894   -8.2984 C.ar    1  UNL1        0.0342
     39 C         -19.2254   56.1863   -7.8914 C.ar    1  UNL1        0.0029
     40 C         -19.5058   57.3542   -8.6230 C.ar    1  UNL1        0.0001
     41 C         -18.9556   58.5799   -8.2350 C.ar    1  UNL1        0.0000
     42 C         -18.1273   58.6520   -7.1123 C.ar    1  UNL1        0.0000
     43 C         -17.8496   57.4991   -6.3736 C.ar    1  UNL1        0.0000
     44 C         -18.3971   56.2712   -6.7578 C.ar    1  UNL1        0.0001
     45 C         -16.8405   52.6516   -7.7331 C.3     1  UNL1        0.2525
     46 O         -17.7780   53.7197   -7.6485 O.3     1  UNL1       -0.4713
@<TRIPOS>BOND
     1    45    46    1
     2    46    29    1
     3    29    30   ar
     4    30    31   ar
     5    31    32   ar
     6    32    33   ar
     7    33    25    1
     8    25    26    2
     9    25    27   am
    10    27     1    1
    11     1     2   ar
    12     2     3   ar
    13     3     4   ar
    14     4     7    1
    15     7     8    1
    16     8     9    1
    17     9    10    1
    18    10    13    1
    19    13    14    1
    20    14    15    1
    21    15    16   ar
    22    16    17   ar
    23    17    18   ar
    24    18    19   ar
    25    19    21    1
    26    21    22    2
    27    21    23    1
    28    19    20   ar
    29    10    11    1
    30    11    12    1
    31     4     5   ar
    32     5     6   ar
    33    33    34   ar
    34    34    35    1
    35    34    36   ar
    36    36    37   ar
    37    37    38   ar
    38    38    39    1
    39    39    40   ar
    40    40    41   ar
    41    41    42   ar
    42    42    43   ar
    43    43    44   ar
    44    38    29   ar
    45    44    39   ar
    46    36    31   ar
    47     6     1   ar
    48    12     7    1
    49    20    15   ar
    50    27    28    1
    51    23    24    1
