@<TRIPOS>MOLECULE
*****
 36 41 0 0 0
SMALL
GASTEIGER

@<TRIPOS>ATOM
      1 C         -23.0074   -9.0648  -14.3868 C.ar    1  UNL1        0.1095
      2 N         -22.7483   -9.0266  -15.7183 N.ar    1  UNL1       -0.1677
      3 N         -23.2721  -10.1158  -16.2698 N.ar    1  UNL1       -0.2319
      4 C         -23.2676  -10.3959  -17.6992 C.3     1  UNL1        0.1554
      5 C         -23.8782  -10.8301  -15.3085 C.ar    1  UNL1        0.1657
      6 N         -24.5820  -11.9776  -15.4604 N.ar    1  UNL1       -0.2025
      7 C         -25.1306  -12.5486  -14.3468 C.ar    1  UNL1        0.1888
      8 S         -26.0718  -14.0578  -14.4972 S.3     1  UNL1       -0.1034
      9 N         -24.9445  -11.9831  -13.1119 N.ar    1  UNL1       -0.2063
     10 C         -24.2320  -10.8283  -12.9531 C.ar    1  UNL1        0.1383
     11 C         -23.7172  -10.2243  -14.1022 C.ar    1  UNL1        0.0865
     12 H         -24.9237  -14.8526  -14.3213 H       1  UNL1        0.1101
     13 C         -23.5329   -6.9960  -12.9684 C.ar    1  UNL1        0.0809
     14 C         -22.6811   -7.9626  -13.4719 C.ar    1  UNL1        0.0577
     15 C         -21.4512   -7.6918  -12.9040 C.ar    1  UNL1        0.1231
     16 N         -21.5549   -6.6035  -12.1166 N.ar    1  UNL1       -0.1676
     17 N         -22.8096   -6.1815  -12.1670 N.ar    1  UNL1       -0.2488
     18 C         -23.2757   -4.9899  -11.4657 C.3     1  UNL1        0.1537
     19 C         -29.1010   -6.2990  -14.4046 C.3     1  UNL1        0.0310
     20 C         -27.6620   -6.4528  -14.0104 C.ar    1  UNL1       -0.0218
     21 C         -26.6552   -5.8107  -14.7464 C.ar    1  UNL1       -0.0042
     22 C         -25.3118   -5.9840  -14.4029 C.ar    1  UNL1        0.0012
     23 C         -24.9559   -6.8102  -13.3249 C.ar    1  UNL1        0.0174
     24 C         -25.9625   -7.4696  -12.6035 C.ar    1  UNL1        0.0012
     25 C         -27.3063   -7.2962  -12.9473 C.ar    1  UNL1       -0.0042
     26 N         -23.9513  -10.3342  -11.6405 N.pl3   1  UNL1       -0.2916
     27 C         -24.9635   -9.7705  -10.7758 C.3     1  UNL1        0.0937
     28 C         -24.2007   -9.2870   -9.5539 C.3     1  UNL1        0.0391
     29 C         -22.9077  -10.1254   -9.4992 C.3     1  UNL1        0.0790
     30 C         -22.6967  -10.5845  -10.9534 C.3     1  UNL1        0.1081
     31 N         -21.7474   -9.3512   -8.9776 N.3     1  UNL1       -0.2723
     32 C         -20.5236   -9.6101   -9.7707 C.3     1  UNL1        0.0721
     33 C         -19.2875   -9.0337   -9.0560 C.3     1  UNL1        0.0174
     34 C         -19.6292   -7.8133   -8.1884 C.3     1  UNL1        0.0029
     35 C         -20.7763   -7.0155   -8.8053 C.3     1  UNL1        0.0174
     36 C         -22.0395   -7.8897   -8.9709 C.3     1  UNL1        0.0721
@<TRIPOS>BOND
     1    19    20    1
     2    20    21   ar
     3    21    22   ar
     4    22    23   ar
     5    23    13    1
     6    13    14   ar
     7    14     1    1
     8     1     2   ar
     9     2     3   ar
    10     3     4    1
    11     3     5   ar
    12     5     6   ar
    13     6     7   ar
    14     7     8    1
    15     7     9   ar
    16     9    10   ar
    17    10    26    1
    18    26    27    1
    19    27    28    1
    20    28    29    1
    21    29    31    1
    22    31    32    1
    23    32    33    1
    24    33    34    1
    25    34    35    1
    26    35    36    1
    27    29    30    1
    28    10    11   ar
    29    14    15   ar
    30    15    16   ar
    31    16    17   ar
    32    17    18    1
    33    23    24   ar
    34    24    25   ar
    35    25    20   ar
    36    17    13   ar
    37    11     1   ar
    38    11     5   ar
    39    30    26    1
    40    36    31    1
    41     8    12    1
@<TRIPOS>MOLECULE
*****
 36 41 0 0 0
SMALL
GASTEIGER

@<TRIPOS>ATOM
      1 C         -20.2170   -7.5006   -8.4815 C.ar    1  UNL1        0.1095
      2 N         -19.9644   -7.2002   -7.1825 N.ar    1  UNL1       -0.1677
      3 N         -19.1703   -8.1445   -6.6897 N.ar    1  UNL1       -0.2319
      4 C         -18.6155   -8.1306   -5.3430 C.3     1  UNL1        0.1554
      5 C         -18.8996   -9.0249   -7.6661 C.ar    1  UNL1        0.1657
      6 N         -18.0825  -10.1030   -7.5941 N.ar    1  UNL1       -0.2025
      7 C         -17.9352  -10.8750   -8.7118 C.ar    1  UNL1        0.1888
      8 S         -16.8646  -12.3026   -8.6679 S.3     1  UNL1       -0.1034
      9 N         -18.6211  -10.5743   -9.8601 N.ar    1  UNL1       -0.2063
     10 C         -19.4496   -9.4906   -9.9362 C.ar    1  UNL1        0.1383
     11 C         -19.5556   -8.6784   -8.8052 C.ar    1  UNL1        0.0865
     12 H         -17.9130  -13.1408   -8.2448 H       1  UNL1        0.1101
     13 C         -22.2671   -6.7550   -9.8265 C.ar    1  UNL1        0.0809
     14 C         -20.9651   -6.6127   -9.3816 C.ar    1  UNL1        0.0577
     15 C         -20.5191   -5.4309   -9.9412 C.ar    1  UNL1        0.1231
     16 N         -21.4973   -4.9021  -10.7019 N.ar    1  UNL1       -0.1676
     17 N         -22.5456   -5.7095  -10.6378 N.ar    1  UNL1       -0.2488
     18 C         -23.7789   -5.4705  -11.3799 C.3     1  UNL1        0.1537
     19 C         -25.8004  -11.2144   -8.7394 C.3     1  UNL1        0.0310
     20 C         -24.8679  -10.0797   -9.0434 C.ar    1  UNL1       -0.0218
     21 C         -23.7328   -9.8653   -8.2475 C.ar    1  UNL1       -0.0042
     22 C         -22.8841   -8.7858   -8.5068 C.ar    1  UNL1        0.0012
     23 C         -23.1643   -7.8996   -9.5592 C.ar    1  UNL1        0.0174
     24 C         -24.3119   -8.1022  -10.3404 C.ar    1  UNL1        0.0012
     25 C         -25.1609   -9.1821  -10.0809 C.ar    1  UNL1       -0.0042
     26 N         -20.2449   -9.2774  -11.1058 N.pl3   1  UNL1       -0.2916
     27 C         -19.8941   -8.3265  -12.1367 C.3     1  UNL1        0.0937
     28 C         -21.0629   -8.3614  -13.1069 C.3     1  UNL1        0.0391
     29 C         -21.7287   -9.7400  -12.9230 C.3     1  UNL1        0.0790
     30 C         -21.3257  -10.1640  -11.4990 C.3     1  UNL1        0.1081
     31 N         -23.2065   -9.6879  -13.0995 N.3     1  UNL1       -0.2723
     32 C         -23.6089   -8.5520  -13.9606 C.3     1  UNL1        0.0721
     33 C         -25.1335   -8.3452  -13.9005 C.3     1  UNL1        0.0174
     34 C         -25.8906   -9.6513  -13.6181 C.3     1  UNL1        0.0029
     35 C         -25.1590  -10.8437  -14.2310 C.3     1  UNL1        0.0174
     36 C         -23.7209  -10.9614  -13.6783 C.3     1  UNL1        0.0721
@<TRIPOS>BOND
     1    19    20    1
     2    20    21   ar
     3    21    22   ar
     4    22    23   ar
     5    23    13    1
     6    13    14   ar
     7    14     1    1
     8     1     2   ar
     9     2     3   ar
    10     3     4    1
    11     3     5   ar
    12     5     6   ar
    13     6     7   ar
    14     7     8    1
    15     7     9   ar
    16     9    10   ar
    17    10    26    1
    18    26    27    1
    19    27    28    1
    20    28    29    1
    21    29    31    1
    22    31    32    1
    23    32    33    1
    24    33    34    1
    25    34    35    1
    26    35    36    1
    27    29    30    1
    28    10    11   ar
    29    14    15   ar
    30    15    16   ar
    31    16    17   ar
    32    17    18    1
    33    23    24   ar
    34    24    25   ar
    35    25    20   ar
    36    17    13   ar
    37    11     1   ar
    38    11     5   ar
    39    30    26    1
    40    36    31    1
    41     8    12    1
@<TRIPOS>MOLECULE
*****
 36 41 0 0 0
SMALL
GASTEIGER

@<TRIPOS>ATOM
      1 C         -21.6402   -7.3330  -12.2797 C.ar    1  UNL1        0.1095
      2 N         -21.7556   -5.9932  -12.0974 N.ar    1  UNL1       -0.1677
      3 N         -21.5545   -5.7353  -10.8098 N.ar    1  UNL1       -0.2319
      4 C         -21.5206   -4.3970  -10.2358 C.3     1  UNL1        0.1554
      5 C         -21.2913   -6.8913  -10.1804 C.ar    1  UNL1        0.1657
      6 N         -20.9737   -7.0595   -8.8742 N.ar    1  UNL1       -0.2025
      7 C         -20.7332   -8.3285   -8.4285 C.ar    1  UNL1        0.1888
      8 S         -20.3052   -8.6002   -6.7169 S.3     1  UNL1       -0.1034
      9 N         -20.8402   -9.3970   -9.2807 N.ar    1  UNL1       -0.2063
     10 C         -21.1643   -9.2328  -10.5977 C.ar    1  UNL1        0.1383
     11 C         -21.3593   -7.9284  -11.0566 C.ar    1  UNL1        0.0865
     12 H         -21.6559   -8.7421   -6.3476 H       1  UNL1        0.1101
     13 C         -22.7957   -8.2597  -14.3711 C.ar    1  UNL1        0.0809
     14 C         -21.6826   -7.9714  -13.6022 C.ar    1  UNL1        0.0577
     15 C         -20.6035   -8.3849  -14.3592 C.ar    1  UNL1        0.1231
     16 N         -21.0482   -8.9153  -15.5150 N.ar    1  UNL1       -0.1676
     17 N         -22.3712   -8.8470  -15.5129 N.ar    1  UNL1       -0.2488
     18 C         -23.1955   -9.3730  -16.5958 C.3     1  UNL1        0.1537
     19 C         -28.3395   -7.5042  -12.8718 C.3     1  UNL1        0.0310
     20 C         -26.8946   -7.6933  -13.2270 C.ar    1  UNL1       -0.0218
     21 C         -26.1412   -6.6172  -13.7189 C.ar    1  UNL1       -0.0042
     22 C         -24.8054   -6.8016  -14.0858 C.ar    1  UNL1        0.0012
     23 C         -24.2076   -8.0672  -13.9759 C.ar    1  UNL1        0.0174
     24 C         -24.9687   -9.1477  -13.5050 C.ar    1  UNL1        0.0012
     25 C         -26.3049   -8.9630  -13.1379 C.ar    1  UNL1       -0.0042
     26 N         -21.3901  -10.3754  -11.4280 N.pl3   1  UNL1       -0.2916
     27 C         -20.3797  -11.3773  -11.6842 C.3     1  UNL1        0.0937
     28 C         -21.0196  -12.3217  -12.6878 C.3     1  UNL1        0.0391
     29 C         -22.5431  -12.1751  -12.5000 C.3     1  UNL1        0.0790
     30 C         -22.7113  -10.7775  -11.8768 C.3     1  UNL1        0.1081
     31 N         -23.2918  -12.3165  -13.7796 N.3     1  UNL1       -0.2723
     32 C         -22.5966  -13.2303  -14.7151 C.3     1  UNL1        0.0721
     33 C         -23.2245  -13.1431  -16.1184 C.3     1  UNL1        0.0174
     34 C         -24.7129  -12.7675  -16.0713 C.3     1  UNL1        0.0029
     35 C         -25.3729  -13.3300  -14.8140 C.3     1  UNL1        0.0174
     36 C         -24.6775  -12.8085  -13.5365 C.3     1  UNL1        0.0721
@<TRIPOS>BOND
     1    19    20    1
     2    20    21   ar
     3    21    22   ar
     4    22    23   ar
     5    23    13    1
     6    13    14   ar
     7    14     1    1
     8     1     2   ar
     9     2     3   ar
    10     3     4    1
    11     3     5   ar
    12     5     6   ar
    13     6     7   ar
    14     7     8    1
    15     7     9   ar
    16     9    10   ar
    17    10    26    1
    18    26    27    1
    19    27    28    1
    20    28    29    1
    21    29    31    1
    22    31    32    1
    23    32    33    1
    24    33    34    1
    25    34    35    1
    26    35    36    1
    27    29    30    1
    28    10    11   ar
    29    14    15   ar
    30    15    16   ar
    31    16    17   ar
    32    17    18    1
    33    23    24   ar
    34    24    25   ar
    35    25    20   ar
    36    17    13   ar
    37    11     1   ar
    38    11     5   ar
    39    30    26    1
    40    36    31    1
    41     8    12    1
@<TRIPOS>MOLECULE
*****
 36 41 0 0 0
SMALL
GASTEIGER

@<TRIPOS>ATOM
      1 C         -20.7385  -10.2907  -11.7822 C.ar    1  UNL1        0.1095
      2 N         -19.9317  -10.9885  -10.9433 N.ar    1  UNL1       -0.1677
      3 N         -19.9066  -12.2516  -11.3541 N.ar    1  UNL1       -0.2319
      4 C         -19.0872  -13.2948  -10.7525 C.3     1  UNL1        0.1554
      5 C         -20.6683  -12.3564  -12.4544 C.ar    1  UNL1        0.1657
      6 N         -20.8623  -13.4607  -13.2148 N.ar    1  UNL1       -0.2025
      7 C         -21.6762  -13.3552  -14.3072 C.ar    1  UNL1        0.1888
      8 S         -21.9578  -14.7812  -15.3434 S.3     1  UNL1       -0.1034
      9 N         -22.2962  -12.1682  -14.6006 N.ar    1  UNL1       -0.2063
     10 C         -22.1070  -11.0530  -13.8343 C.ar    1  UNL1        0.1383
     11 C         -21.2344  -11.1561  -12.7489 C.ar    1  UNL1        0.0865
     12 H         -23.0655  -15.1856  -14.5752 H       1  UNL1        0.1101
     13 C         -21.8969   -8.1280  -11.0415 C.ar    1  UNL1        0.0809
     14 C         -20.9102   -8.8336  -11.7062 C.ar    1  UNL1        0.0577
     15 C         -20.0914   -7.8711  -12.2644 C.ar    1  UNL1        0.1231
     16 N         -20.5755   -6.6492  -11.9682 N.ar    1  UNL1       -0.1676
     17 N         -21.6700   -6.8097  -11.2395 N.ar    1  UNL1       -0.2488
     18 C         -22.4859   -5.6928  -10.7750 C.3     1  UNL1        0.1537
     19 C         -26.4653  -10.4104   -8.3078 C.3     1  UNL1        0.0310
     20 C         -25.2788   -9.7964   -8.9896 C.ar    1  UNL1       -0.0218
     21 C         -25.4578   -8.7835   -9.9434 C.ar    1  UNL1       -0.0042
     22 C         -24.3557   -8.2375  -10.6067 C.ar    1  UNL1        0.0012
     23 C         -23.0600   -8.7041  -10.3330 C.ar    1  UNL1        0.0174
     24 C         -22.8844   -9.7327   -9.3952 C.ar    1  UNL1        0.0012
     25 C         -23.9871  -10.2789   -8.7318 C.ar    1  UNL1       -0.0042
     26 N         -22.8646   -9.8680  -14.0942 N.pl3   1  UNL1       -0.2916
     27 C         -22.4098   -8.8179  -14.9777 C.3     1  UNL1        0.0937
     28 C         -23.4659   -7.7318  -14.8608 C.3     1  UNL1        0.0391
     29 C         -24.7574   -8.4402  -14.4048 C.3     1  UNL1        0.0790
     30 C         -24.2579   -9.7211  -13.7122 C.3     1  UNL1        0.1081
     31 N         -25.5830   -7.5940  -13.4992 N.3     1  UNL1       -0.2723
     32 C         -25.7919   -6.2409  -14.0642 C.3     1  UNL1        0.0721
     33 C         -26.3951   -5.3021  -13.0032 C.3     1  UNL1        0.0174
     34 C         -27.2505   -6.0554  -11.9737 C.3     1  UNL1        0.0029
     35 C         -27.9364   -7.2588  -12.6175 C.3     1  UNL1        0.0174
     36 C         -26.9022   -8.2317  -13.2268 C.3     1  UNL1        0.0721
@<TRIPOS>BOND
     1    19    20    1
     2    20    21   ar
     3    21    22   ar
     4    22    23   ar
     5    23    13    1
     6    13    14   ar
     7    14     1    1
     8     1     2   ar
     9     2     3   ar
    10     3     4    1
    11     3     5   ar
    12     5     6   ar
    13     6     7   ar
    14     7     8    1
    15     7     9   ar
    16     9    10   ar
    17    10    26    1
    18    26    27    1
    19    27    28    1
    20    28    29    1
    21    29    31    1
    22    31    32    1
    23    32    33    1
    24    33    34    1
    25    34    35    1
    26    35    36    1
    27    29    30    1
    28    10    11   ar
    29    14    15   ar
    30    15    16   ar
    31    16    17   ar
    32    17    18    1
    33    23    24   ar
    34    24    25   ar
    35    25    20   ar
    36    17    13   ar
    37    11     1   ar
    38    11     5   ar
    39    30    26    1
    40    36    31    1
    41     8    12    1
@<TRIPOS>MOLECULE
*****
 36 41 0 0 0
SMALL
GASTEIGER

@<TRIPOS>ATOM
      1 C         -21.7247   -8.1872  -12.0033 C.ar    1  UNL1        0.1095
      2 N         -20.9329   -7.1284  -11.6973 N.ar    1  UNL1       -0.1677
      3 N         -21.6980   -6.0433  -11.6517 N.ar    1  UNL1       -0.2319
      4 C         -21.2227   -4.7185  -11.2768 C.3     1  UNL1        0.1554
      5 C         -22.9658   -6.4058  -11.9023 C.ar    1  UNL1        0.1657
      6 N         -24.0627   -5.6107  -11.8935 N.ar    1  UNL1       -0.2025
      7 C         -25.2732   -6.1807  -12.1703 C.ar    1  UNL1        0.1888
      8 S         -26.7480   -5.1751  -12.1648 S.3     1  UNL1       -0.1034
      9 N         -25.3606   -7.5146  -12.4745 N.ar    1  UNL1       -0.2063
     10 C         -24.2568   -8.3195  -12.4889 C.ar    1  UNL1        0.1383
     11 C         -23.0308   -7.7398  -12.1557 C.ar    1  UNL1        0.0865
     12 H         -26.6009   -4.8598  -13.5285 H       1  UNL1        0.1101
     13 C         -20.6225  -10.2723  -11.0007 C.ar    1  UNL1        0.0809
     14 C         -21.2411   -9.5743  -12.0222 C.ar    1  UNL1        0.0577
     15 C         -21.3394  -10.4735  -13.0664 C.ar    1  UNL1        0.1231
     16 N         -20.7871  -11.6456  -12.6974 N.ar    1  UNL1       -0.1676
     17 N         -20.3470  -11.5160  -11.4547 N.ar    1  UNL1       -0.2488
     18 C         -19.6479  -12.5816  -10.7443 C.3     1  UNL1        0.1537
     19 C         -19.0474   -8.1119   -5.8622 C.3     1  UNL1        0.0310
     20 C         -19.4668   -8.7001   -7.1766 C.ar    1  UNL1       -0.0218
     21 C         -18.5488   -9.4242   -7.9517 C.ar    1  UNL1       -0.0042
     22 C         -18.9279   -9.9401   -9.1939 C.ar    1  UNL1        0.0012
     23 C         -20.2272   -9.7301   -9.6830 C.ar    1  UNL1        0.0174
     24 C         -21.1375   -8.9866   -8.9168 C.ar    1  UNL1        0.0012
     25 C         -20.7581   -8.4705   -7.6742 C.ar    1  UNL1       -0.0042
     26 N         -24.3643   -9.6754  -12.9316 N.pl3   1  UNL1       -0.2916
     27 C         -24.7814  -10.7573  -12.0680 C.3     1  UNL1        0.0937
     28 C         -24.6419  -12.0068  -12.9211 C.3     1  UNL1        0.0391
     29 C         -24.7391  -11.5358  -14.3862 C.3     1  UNL1        0.0790
     30 C         -24.3215  -10.0550  -14.3326 C.3     1  UNL1        0.1081
     31 N         -23.8752  -12.3332  -15.3003 N.3     1  UNL1       -0.2723
     32 C         -22.9077  -11.4721  -16.0186 C.3     1  UNL1        0.0721
     33 C         -22.2264  -12.2590  -17.1534 C.3     1  UNL1        0.0174
     34 C         -22.1335  -13.7616  -16.8497 C.3     1  UNL1        0.0029
     35 C         -21.9662  -14.0010  -15.3505 C.3     1  UNL1        0.0174
     36 C         -23.1423  -13.3941  -14.5530 C.3     1  UNL1        0.0721
@<TRIPOS>BOND
     1    19    20    1
     2    20    21   ar
     3    21    22   ar
     4    22    23   ar
     5    23    13    1
     6    13    14   ar
     7    14     1    1
     8     1     2   ar
     9     2     3   ar
    10     3     4    1
    11     3     5   ar
    12     5     6   ar
    13     6     7   ar
    14     7     8    1
    15     7     9   ar
    16     9    10   ar
    17    10    26    1
    18    26    27    1
    19    27    28    1
    20    28    29    1
    21    29    31    1
    22    31    32    1
    23    32    33    1
    24    33    34    1
    25    34    35    1
    26    35    36    1
    27    29    30    1
    28    10    11   ar
    29    14    15   ar
    30    15    16   ar
    31    16    17   ar
    32    17    18    1
    33    23    24   ar
    34    24    25   ar
    35    25    20   ar
    36    17    13   ar
    37    11     1   ar
    38    11     5   ar
    39    30    26    1
    40    36    31    1
    41     8    12    1
@<TRIPOS>MOLECULE
*****
 36 41 0 0 0
SMALL
GASTEIGER

@<TRIPOS>ATOM
      1 C         -20.4263   -7.4938   -8.8351 C.ar    1  UNL1        0.1095
      2 N         -20.0606   -7.1040   -7.5877 N.ar    1  UNL1       -0.1677
      3 N         -19.2093   -8.0046   -7.1093 N.ar    1  UNL1       -0.2319
      4 C         -18.5335   -7.8943   -5.8237 C.3     1  UNL1        0.1554
      5 C         -19.0147   -8.9460   -8.0461 C.ar    1  UNL1        0.1657
      6 N         -18.1768  -10.0084   -7.9790 N.ar    1  UNL1       -0.2025
      7 C         -18.1200  -10.8524   -9.0519 C.ar    1  UNL1        0.1888
      8 S         -17.0265  -12.2627   -9.0130 S.3     1  UNL1       -0.1034
      9 N         -18.9133  -10.6368  -10.1491 N.ar    1  UNL1       -0.2063
     10 C         -19.7630   -9.5693  -10.2197 C.ar    1  UNL1        0.1383
     11 C         -19.7781   -8.6839   -9.1400 C.ar    1  UNL1        0.0865
     12 H         -18.0178  -13.0811   -8.4401 H       1  UNL1        0.1101
     13 C         -22.5949   -6.8790  -10.0546 C.ar    1  UNL1        0.0809
     14 C         -21.2685   -6.6763   -9.7188 C.ar    1  UNL1        0.0577
     15 C         -20.9044   -5.5135  -10.3698 C.ar    1  UNL1        0.1231
     16 N         -21.9537   -5.0538  -11.0789 N.ar    1  UNL1       -0.1676
     17 N         -22.9674   -5.8862  -10.8939 N.ar    1  UNL1       -0.2488
     18 C         -24.2601   -5.7220  -11.5503 C.3     1  UNL1        0.1537
     19 C         -25.8902  -11.3737   -8.4764 C.3     1  UNL1        0.0310
     20 C         -25.0202  -10.2306   -8.9076 C.ar    1  UNL1       -0.0218
     21 C         -23.8418   -9.9357   -8.2060 C.ar    1  UNL1       -0.0042
     22 C         -23.0504   -8.8476   -8.5838 C.ar    1  UNL1        0.0012
     23 C         -23.4318   -8.0331   -9.6619 C.ar    1  UNL1        0.0174
     24 C         -24.6221   -8.3158  -10.3487 C.ar    1  UNL1        0.0012
     25 C         -25.4138   -9.4042   -9.9706 C.ar    1  UNL1       -0.0042
     26 N         -20.6657   -9.4437  -11.3221 N.pl3   1  UNL1       -0.2916
     27 C         -21.7553  -10.3639  -11.5593 C.3     1  UNL1        0.0937
     28 C         -22.3621   -9.9109  -12.8766 C.3     1  UNL1        0.0391
     29 C         -21.9978   -8.4198  -13.0235 C.3     1  UNL1        0.0790
     30 C         -20.7413   -8.2530  -12.1499 C.3     1  UNL1        0.1081
     31 N         -21.7566   -8.0284  -14.4400 N.3     1  UNL1       -0.2723
     32 C         -20.9169   -9.0265  -15.1417 C.3     1  UNL1        0.0721
     33 C         -20.4459   -8.4739  -16.4996 C.3     1  UNL1        0.0174
     34 C         -21.4374   -7.4639  -17.0960 C.3     1  UNL1        0.0029
     35 C         -22.8711   -7.8198  -16.7078 C.3     1  UNL1        0.0174
     36 C         -23.0426   -7.8528  -15.1725 C.3     1  UNL1        0.0721
@<TRIPOS>BOND
     1    19    20    1
     2    20    21   ar
     3    21    22   ar
     4    22    23   ar
     5    23    13    1
     6    13    14   ar
     7    14     1    1
     8     1     2   ar
     9     2     3   ar
    10     3     4    1
    11     3     5   ar
    12     5     6   ar
    13     6     7   ar
    14     7     8    1
    15     7     9   ar
    16     9    10   ar
    17    10    26    1
    18    26    27    1
    19    27    28    1
    20    28    29    1
    21    29    31    1
    22    31    32    1
    23    32    33    1
    24    33    34    1
    25    34    35    1
    26    35    36    1
    27    29    30    1
    28    10    11   ar
    29    14    15   ar
    30    15    16   ar
    31    16    17   ar
    32    17    18    1
    33    23    24   ar
    34    24    25   ar
    35    25    20   ar
    36    17    13   ar
    37    11     1   ar
    38    11     5   ar
    39    30    26    1
    40    36    31    1
    41     8    12    1
@<TRIPOS>MOLECULE
*****
 36 41 0 0 0
SMALL
GASTEIGER

@<TRIPOS>ATOM
      1 C         -22.8108   -9.0148  -15.3623 C.ar    1  UNL1        0.1095
      2 N         -22.8526   -8.6063  -16.6557 N.ar    1  UNL1       -0.1677
      3 N         -23.2933   -9.6202  -17.3923 N.ar    1  UNL1       -0.2319
      4 C         -23.5481   -9.5451  -18.8245 C.3     1  UNL1        0.1554
      5 C         -23.5520  -10.6562  -16.5789 C.ar    1  UNL1        0.1657
      6 N         -24.0707  -11.8592  -16.9236 N.ar    1  UNL1       -0.2025
      7 C         -24.2654  -12.7831  -15.9360 C.ar    1  UNL1        0.1888
      8 S         -24.9520  -14.3806  -16.3399 S.3     1  UNL1       -0.1034
      9 N         -23.9163  -12.5006  -14.6407 N.ar    1  UNL1       -0.2063
     10 C         -23.3889  -11.2904  -14.2890 C.ar    1  UNL1        0.1383
     11 C         -23.2399  -10.3341  -15.2957 C.ar    1  UNL1        0.0865
     12 H         -23.6769  -14.9262  -16.5789 H       1  UNL1        0.1101
     13 C         -23.3595   -7.4134  -13.4381 C.ar    1  UNL1        0.0809
     14 C         -22.4846   -8.1175  -14.2456 C.ar    1  UNL1        0.0577
     15 C         -21.2261   -7.8230  -13.7579 C.ar    1  UNL1        0.1231
     16 N         -21.3391   -6.9671  -12.7235 N.ar    1  UNL1       -0.1676
     17 N         -22.6268   -6.7151  -12.5413 N.ar    1  UNL1       -0.2488
     18 C         -23.1191   -5.7880  -11.5279 C.3     1  UNL1        0.1537
     19 C         -29.1089   -7.1405  -14.0877 C.3     1  UNL1        0.0310
     20 C         -27.6236   -7.1981  -13.8873 C.ar    1  UNL1       -0.0218
     21 C         -26.8128   -6.1314  -14.3025 C.ar    1  UNL1       -0.0042
     22 C         -25.4253   -6.2005  -14.1507 C.ar    1  UNL1        0.0012
     23 C         -24.8285   -7.3416  -13.5912 C.ar    1  UNL1        0.0174
     24 C         -25.6388   -8.4170  -13.1970 C.ar    1  UNL1        0.0012
     25 C         -27.0268   -8.3478  -13.3489 C.ar    1  UNL1       -0.0042
     26 N         -22.9202  -11.0734  -12.9551 N.pl3   1  UNL1       -0.2916
     27 C         -23.8055  -10.9094  -11.8239 C.3     1  UNL1        0.0937
     28 C         -22.8848  -10.5981  -10.6561 C.3     1  UNL1        0.0391
     29 C         -21.5101  -11.1896  -11.0275 C.3     1  UNL1        0.0790
     30 C         -21.5332  -11.2552  -12.5654 C.3     1  UNL1        0.1081
     31 N         -20.3783  -10.3688  -10.5144 N.3     1  UNL1       -0.2723
     32 C         -20.8159   -9.4638   -9.4267 C.3     1  UNL1        0.0721
     33 C         -19.7158   -8.4347   -9.1080 C.3     1  UNL1        0.0174
     34 C         -18.3077   -8.9737   -9.4006 C.3     1  UNL1        0.0029
     35 C         -18.2427  -10.4793   -9.1524 C.3     1  UNL1        0.0174
     36 C         -19.2671  -11.2349  -10.0283 C.3     1  UNL1        0.0721
@<TRIPOS>BOND
     1    19    20    1
     2    20    21   ar
     3    21    22   ar
     4    22    23   ar
     5    23    13    1
     6    13    14   ar
     7    14     1    1
     8     1     2   ar
     9     2     3   ar
    10     3     4    1
    11     3     5   ar
    12     5     6   ar
    13     6     7   ar
    14     7     8    1
    15     7     9   ar
    16     9    10   ar
    17    10    26    1
    18    26    27    1
    19    27    28    1
    20    28    29    1
    21    29    31    1
    22    31    32    1
    23    32    33    1
    24    33    34    1
    25    34    35    1
    26    35    36    1
    27    29    30    1
    28    10    11   ar
    29    14    15   ar
    30    15    16   ar
    31    16    17   ar
    32    17    18    1
    33    23    24   ar
    34    24    25   ar
    35    25    20   ar
    36    17    13   ar
    37    11     1   ar
    38    11     5   ar
    39    30    26    1
    40    36    31    1
    41     8    12    1
@<TRIPOS>MOLECULE
*****
 36 41 0 0 0
SMALL
GASTEIGER

@<TRIPOS>ATOM
      1 C         -22.2367   -7.2640  -13.0089 C.ar    1  UNL1        0.1095
      2 N         -21.7649   -6.0502  -12.6271 N.ar    1  UNL1       -0.1677
      3 N         -21.7819   -6.0023  -11.2995 N.ar    1  UNL1       -0.2319
      4 C         -21.2766   -4.8864  -10.5115 C.3     1  UNL1        0.1554
      5 C         -22.2365   -7.1776  -10.8372 C.ar    1  UNL1        0.1657
      6 N         -22.3534   -7.5592   -9.5426 N.ar    1  UNL1       -0.2025
      7 C         -22.8354   -8.8107   -9.2813 C.ar    1  UNL1        0.1888
      8 S         -23.0020   -9.3611   -7.5914 S.3     1  UNL1       -0.1034
      9 N         -23.2133   -9.6385  -10.3066 N.ar    1  UNL1       -0.2063
     10 C         -23.1012   -9.2566  -11.6136 C.ar    1  UNL1        0.1383
     11 C         -22.5609   -7.9954  -11.8735 C.ar    1  UNL1        0.0865
     12 H         -24.3115   -8.8536   -7.5004 H       1  UNL1        0.1101
     13 C         -23.2183   -7.4863  -15.3658 C.ar    1  UNL1        0.0809
     14 C         -22.2499   -7.7187  -14.4059 C.ar    1  UNL1        0.0577
     15 C         -21.2705   -8.4495  -15.0501 C.ar    1  UNL1        0.1231
     16 N         -21.6432   -8.6640  -16.3269 N.ar    1  UNL1       -0.1676
     17 N         -22.8231   -8.0902  -16.5094 N.ar    1  UNL1       -0.2488
     18 C         -23.5541   -8.1603  -17.7702 C.3     1  UNL1        0.1537
     19 C         -28.3018   -4.8205  -14.5883 C.3     1  UNL1        0.0310
     20 C         -26.9700   -5.4859  -14.7707 C.ar    1  UNL1       -0.0218
     21 C         -26.1872   -5.2023  -15.8996 C.ar    1  UNL1       -0.0042
     22 C         -24.9636   -5.8502  -16.0894 C.ar    1  UNL1        0.0012
     23 C         -24.5107   -6.7983  -15.1582 C.ar    1  UNL1        0.0174
     24 C         -25.3051   -7.0974  -14.0410 C.ar    1  UNL1        0.0012
     25 C         -26.5291   -6.4493  -13.8513 C.ar    1  UNL1       -0.0042
     26 N         -23.6200  -10.0930  -12.6515 N.pl3   1  UNL1       -0.2916
     27 C         -24.9674   -9.9741  -13.1621 C.3     1  UNL1        0.0937
     28 C         -25.1059  -11.1172  -14.1534 C.3     1  UNL1        0.0391
     29 C         -23.6744  -11.4579  -14.6141 C.3     1  UNL1        0.0790
     30 C         -22.7811  -10.9543  -13.4659 C.3     1  UNL1        0.1081
     31 N         -23.4904  -12.9123  -14.8761 N.3     1  UNL1       -0.2723
     32 C         -24.4866  -13.4171  -15.8489 C.3     1  UNL1        0.0721
     33 C         -24.4656  -14.9562  -15.8909 C.3     1  UNL1        0.0174
     34 C         -23.0847  -15.5322  -15.5441 C.3     1  UNL1        0.0029
     35 C         -21.9742  -14.5953  -16.0151 C.3     1  UNL1        0.0174
     36 C         -22.1151  -13.1957  -15.3756 C.3     1  UNL1        0.0721
@<TRIPOS>BOND
     1    19    20    1
     2    20    21   ar
     3    21    22   ar
     4    22    23   ar
     5    23    13    1
     6    13    14   ar
     7    14     1    1
     8     1     2   ar
     9     2     3   ar
    10     3     4    1
    11     3     5   ar
    12     5     6   ar
    13     6     7   ar
    14     7     8    1
    15     7     9   ar
    16     9    10   ar
    17    10    26    1
    18    26    27    1
    19    27    28    1
    20    28    29    1
    21    29    31    1
    22    31    32    1
    23    32    33    1
    24    33    34    1
    25    34    35    1
    26    35    36    1
    27    29    30    1
    28    10    11   ar
    29    14    15   ar
    30    15    16   ar
    31    16    17   ar
    32    17    18    1
    33    23    24   ar
    34    24    25   ar
    35    25    20   ar
    36    17    13   ar
    37    11     1   ar
    38    11     5   ar
    39    30    26    1
    40    36    31    1
    41     8    12    1
@<TRIPOS>MOLECULE
*****
 36 41 0 0 0
SMALL
GASTEIGER

@<TRIPOS>ATOM
      1 C         -21.4661   -9.7466  -11.2059 C.ar    1  UNL1        0.1095
      2 N         -20.8642  -10.0547  -10.0293 N.ar    1  UNL1       -0.1677
      3 N         -20.4065   -8.9278   -9.4949 N.ar    1  UNL1       -0.2319
      4 C         -19.7654   -8.8387   -8.1901 C.3     1  UNL1        0.1554
      5 C         -20.7310   -7.9094  -10.3069 C.ar    1  UNL1        0.1657
      6 N         -20.5000   -6.5906  -10.1001 N.ar    1  UNL1       -0.2025
      7 C         -20.9192   -5.7063  -11.0536 C.ar    1  UNL1        0.1888
      8 S         -20.6428   -3.9579  -10.8234 S.3     1  UNL1       -0.1034
      9 N         -21.5303   -6.1537  -12.1964 N.ar    1  UNL1       -0.2063
     10 C         -21.7616   -7.4829  -12.4113 C.ar    1  UNL1        0.1383
     11 C         -21.3753   -8.3756  -11.4094 C.ar    1  UNL1        0.0865
     12 H         -19.3864   -4.0205  -11.4545 H       1  UNL1        0.1101
     13 C         -23.5572  -10.8048  -12.2428 C.ar    1  UNL1        0.0809
     14 C         -22.1943  -10.7302  -12.0186 C.ar    1  UNL1        0.0577
     15 C         -21.6501  -11.7667  -12.7521 C.ar    1  UNL1        0.1231
     16 N         -22.6394  -12.4431  -13.3678 N.ar    1  UNL1       -0.1676
     17 N         -23.7882  -11.8656  -13.0492 N.ar    1  UNL1       -0.2488
     18 C         -25.0813  -12.3643  -13.5052 C.3     1  UNL1        0.1537
     19 C         -27.5861   -7.4281   -9.8101 C.3     1  UNL1        0.0310
     20 C         -26.5667   -8.3278  -10.4433 C.ar    1  UNL1       -0.0218
     21 C         -25.7355   -9.1265   -9.6440 C.ar    1  UNL1       -0.0042
     22 C         -24.7598   -9.9364  -10.2314 C.ar    1  UNL1        0.0012
     23 C         -24.5949   -9.9511  -11.6256 C.ar    1  UNL1        0.0174
     24 C         -25.4119   -9.1349  -12.4224 C.ar    1  UNL1        0.0012
     25 C         -26.3878   -8.3247  -11.8347 C.ar    1  UNL1       -0.0042
     26 N         -22.2864   -7.9251  -13.6663 N.pl3   1  UNL1       -0.2916
     27 C         -23.5624   -7.4880  -14.1868 C.3     1  UNL1        0.0937
     28 C         -23.7511   -8.2872  -15.4652 C.3     1  UNL1        0.0391
     29 C         -22.3362   -8.6822  -15.9339 C.3     1  UNL1        0.0790
     30 C         -21.4896   -8.6382  -14.6489 C.3     1  UNL1        0.1081
     31 N         -22.3041  -10.0209  -16.5855 N.3     1  UNL1       -0.2723
     32 C         -21.3750  -10.9398  -15.8885 C.3     1  UNL1        0.0721
     33 C         -21.1402  -12.2078  -16.7300 C.3     1  UNL1        0.0174
     34 C         -22.3450  -12.5521  -17.6181 C.3     1  UNL1        0.0029
     35 C         -23.6508  -12.1394  -16.9418 C.3     1  UNL1        0.0174
     36 C         -23.6655  -10.6258  -16.6315 C.3     1  UNL1        0.0721
@<TRIPOS>BOND
     1    19    20    1
     2    20    21   ar
     3    21    22   ar
     4    22    23   ar
     5    23    13    1
     6    13    14   ar
     7    14     1    1
     8     1     2   ar
     9     2     3   ar
    10     3     4    1
    11     3     5   ar
    12     5     6   ar
    13     6     7   ar
    14     7     8    1
    15     7     9   ar
    16     9    10   ar
    17    10    26    1
    18    26    27    1
    19    27    28    1
    20    28    29    1
    21    29    31    1
    22    31    32    1
    23    32    33    1
    24    33    34    1
    25    34    35    1
    26    35    36    1
    27    29    30    1
    28    10    11   ar
    29    14    15   ar
    30    15    16   ar
    31    16    17   ar
    32    17    18    1
    33    23    24   ar
    34    24    25   ar
    35    25    20   ar
    36    17    13   ar
    37    11     1   ar
    38    11     5   ar
    39    30    26    1
    40    36    31    1
    41     8    12    1
