@<TRIPOS>MOLECULE
*****
 37 41 0 0 0
SMALL
GASTEIGER

@<TRIPOS>ATOM
      1 C          50.0503   10.7795  -23.2390 C.2     1  UNL1        0.2490
      2 O          50.6498   10.2684  -22.2545 O.2     1  UNL1       -0.2699
      3 N          48.9079   11.6430  -23.0218 N.am    1  UNL1       -0.2698
      4 C          48.6328   12.7244  -23.9840 C.3     1  UNL1        0.1235
      5 C          47.3395   12.4741  -24.7084 C.ar    1  UNL1        0.0317
      6 C          47.3607   12.4062  -26.1141 C.ar    1  UNL1        0.0004
      7 C          46.1907   12.1531  -26.8469 C.ar    1  UNL1       -0.0000
      8 C          44.9822   11.9853  -26.1563 C.ar    1  UNL1        0.0031
      9 C          44.9471   12.0611  -24.7641 C.ar    1  UNL1        0.0366
     10 C          46.1101   12.3002  -24.0238 C.ar    1  UNL1        0.1362
     11 O          45.9728   12.3300  -22.6244 O.3     1  UNL1       -0.4739
     12 C          46.9976   12.5707  -21.6594 C.3     1  UNL1        0.2249
     13 C          48.1422   11.5392  -21.7568 C.3     1  UNL1        0.1196
     14 C          47.5727   10.1232  -21.5625 C.3     1  UNL1        0.0255
     15 C          46.2346   12.0560  -28.3283 C.ar    1  UNL1        0.0015
     16 C          46.5658   10.8240  -28.9596 C.ar    1  UNL1        0.0016
     17 C          46.6080   10.7194  -30.3622 C.ar    1  UNL1        0.0206
     18 C          46.3176   11.8581  -31.1052 C.ar    1  UNL1        0.0985
     19 N          46.3010   11.9860  -32.4442 N.ar    1  UNL1       -0.2241
     20 C          45.9620   13.2907  -32.6185 C.ar    1  UNL1        0.1750
     21 N          45.7722   13.9601  -31.4561 N.ar    1  UNL1       -0.3349
     22 C          46.0000   13.0402  -30.5116 C.ar    1  UNL1        0.0757
     23 C          45.9450   13.1882  -29.1284 C.ar    1  UNL1        0.0185
     24 H          45.5089   14.9627  -31.3300 H       1  UNL1        0.1675
     25 C          51.5144   11.4063  -25.2225 C.ar    1  UNL1       -0.0165
     26 C          52.0430   11.0554  -26.4767 C.ar    1  UNL1        0.0142
     27 C          51.6635    9.8678  -27.1097 C.ar    1  UNL1        0.1054
     28 C          50.7339    9.0233  -26.4962 C.ar    1  UNL1        0.0185
     29 C          50.1941    9.3582  -25.2540 C.ar    1  UNL1        0.0055
     30 C          50.5874   10.5338  -24.5960 C.ar    1  UNL1        0.0497
     31 S          52.3867    9.4289  -28.6529 S.O2    1  UNL1        0.0104
     32 C          51.2301    8.4480  -29.5813 C.3     1  UNL1        0.1816
     33 O          52.7326   10.6671  -29.4317 O.2     1  UNL1       -0.1686
     34 O          53.6437    8.6397  -28.4164 O.2     1  UNL1       -0.1686
     35 C          51.9083   12.7438  -24.6326 C.3     1  UNL1        0.0265
     36 C          53.0065   13.5070  -22.4647 C.3     1  UNL1        0.0004
     37 C          53.1291   12.6292  -23.7087 C.3     1  UNL1        0.0047
@<TRIPOS>BOND
     1    36    37    1
     2    37    35    1
     3    35    25    1
     4    25    26   ar
     5    26    27   ar
     6    27    31    1
     7    31    32    1
     8    31    33    2
     9    31    34    2
    10    27    28   ar
    11    28    29   ar
    12    29    30   ar
    13    30     1    1
    14     1     2    2
    15     1     3   am
    16     3     4    1
    17     4     5    1
    18     5     6   ar
    19     6     7   ar
    20     7    15    1
    21    15    16   ar
    22    16    17   ar
    23    17    18   ar
    24    18    19   ar
    25    19    20   ar
    26    20    21   ar
    27    21    22   ar
    28    22    23   ar
    29     7     8   ar
    30     8     9   ar
    31     9    10   ar
    32    10    11    1
    33    11    12    1
    34    12    13    1
    35    13    14    1
    36    30    25   ar
    37    13     3    1
    38    10     5   ar
    39    23    15   ar
    40    22    18   ar
    41    21    24    1
@<TRIPOS>MOLECULE
*****
 37 41 0 0 0
SMALL
GASTEIGER

@<TRIPOS>ATOM
      1 C          48.7708   15.7154  -23.3506 C.2     1  UNL1        0.2490
      2 O          48.9685   16.1042  -22.1676 O.2     1  UNL1       -0.2699
      3 N          48.2141   16.6275  -24.3284 N.am    1  UNL1       -0.2698
      4 C          48.5833   16.4719  -25.7463 C.3     1  UNL1        0.1235
      5 C          47.3873   16.0740  -26.5657 C.ar    1  UNL1        0.0317
      6 C          47.4542   14.8850  -27.3158 C.ar    1  UNL1        0.0004
      7 C          46.3633   14.4479  -28.0832 C.ar    1  UNL1       -0.0000
      8 C          45.1985   15.2276  -28.1099 C.ar    1  UNL1        0.0031
      9 C          45.1244   16.4132  -27.3791 C.ar    1  UNL1        0.0366
     10 C          46.2018   16.8510  -26.6009 C.ar    1  UNL1        0.1362
     11 O          46.0162   18.0441  -25.8798 O.3     1  UNL1       -0.4739
     12 C          46.9622   18.7008  -25.0355 C.3     1  UNL1        0.2249
     13 C          47.4284   17.7989  -23.8724 C.3     1  UNL1        0.1196
     14 C          46.2088   17.3647  -23.0410 C.3     1  UNL1        0.0255
     15 C          46.4394   13.1762  -28.8467 C.ar    1  UNL1        0.0015
     16 C          45.8734   13.0836  -30.1494 C.ar    1  UNL1        0.0016
     17 C          45.9417   11.8849  -30.8832 C.ar    1  UNL1        0.0206
     18 C          46.5774   10.7991  -30.2915 C.ar    1  UNL1        0.0985
     19 N          46.7543    9.5683  -30.8046 N.ar    1  UNL1       -0.2241
     20 C          47.4235    8.9216  -29.8138 C.ar    1  UNL1        0.1750
     21 N          47.6616    9.6955  -28.7277 N.ar    1  UNL1       -0.3349
     22 C          47.1215   10.8773  -29.0472 C.ar    1  UNL1        0.0757
     23 C          47.0782   12.0429  -28.2871 C.ar    1  UNL1        0.0185
     24 H          48.1536    9.4283  -27.8463 H       1  UNL1        0.1675
     25 C          48.2582   13.3171  -24.0262 C.ar    1  UNL1       -0.0165
     26 C          48.7375   12.0670  -24.4540 C.ar    1  UNL1        0.0142
     27 C          50.1095   11.8266  -24.5756 C.ar    1  UNL1        0.1054
     28 C          51.0202   12.8367  -24.2529 C.ar    1  UNL1        0.0185
     29 C          50.5629   14.0821  -23.8210 C.ar    1  UNL1        0.0055
     30 C          49.1880   14.3446  -23.7209 C.ar    1  UNL1        0.0497
     31 S          50.6759   10.2695  -25.1688 S.O2    1  UNL1        0.0104
     32 C          50.4013    9.0343  -23.9196 C.3     1  UNL1        0.1816
     33 O          49.9324    9.8918  -26.4193 O.2     1  UNL1       -0.1686
     34 O          52.1430   10.3517  -25.4849 O.2     1  UNL1       -0.1686
     35 C          46.7648   13.4819  -23.8408 C.3     1  UNL1        0.0265
     36 C          44.4728   12.8229  -24.7359 C.3     1  UNL1        0.0004
     37 C          45.9646   12.4966  -24.7046 C.3     1  UNL1        0.0047
@<TRIPOS>BOND
     1    36    37    1
     2    37    35    1
     3    35    25    1
     4    25    26   ar
     5    26    27   ar
     6    27    31    1
     7    31    32    1
     8    31    33    2
     9    31    34    2
    10    27    28   ar
    11    28    29   ar
    12    29    30   ar
    13    30     1    1
    14     1     2    2
    15     1     3   am
    16     3     4    1
    17     4     5    1
    18     5     6   ar
    19     6     7   ar
    20     7    15    1
    21    15    16   ar
    22    16    17   ar
    23    17    18   ar
    24    18    19   ar
    25    19    20   ar
    26    20    21   ar
    27    21    22   ar
    28    22    23   ar
    29     7     8   ar
    30     8     9   ar
    31     9    10   ar
    32    10    11    1
    33    11    12    1
    34    12    13    1
    35    13    14    1
    36    30    25   ar
    37    13     3    1
    38    10     5   ar
    39    23    15   ar
    40    22    18   ar
    41    21    24    1
@<TRIPOS>MOLECULE
*****
 37 41 0 0 0
SMALL
GASTEIGER

@<TRIPOS>ATOM
      1 C          51.2407   12.9329  -23.0413 C.2     1  UNL1        0.2490
      2 O          51.9539   12.7387  -22.0198 O.2     1  UNL1       -0.2699
      3 N          50.2553   13.9945  -23.0445 N.am    1  UNL1       -0.2698
      4 C          49.9234   14.6613  -24.3159 C.3     1  UNL1        0.1235
      5 C          48.4997   14.3787  -24.7075 C.ar    1  UNL1        0.0317
      6 C          48.2544   13.7816  -25.9582 C.ar    1  UNL1        0.0004
      7 C          46.9494   13.4724  -26.3722 C.ar    1  UNL1       -0.0000
      8 C          45.8779   13.7858  -25.5241 C.ar    1  UNL1        0.0031
      9 C          46.1080   14.3874  -24.2870 C.ar    1  UNL1        0.0366
     10 C          47.4060   14.6879  -23.8597 C.ar    1  UNL1        0.1362
     11 O          47.5328   15.2677  -22.5847 O.3     1  UNL1       -0.4739
     12 C          48.7373   15.6780  -21.9366 C.3     1  UNL1        0.2249
     13 C          49.7291   14.5084  -21.7575 C.3     1  UNL1        0.1196
     14 C          49.0590   13.3898  -20.9410 C.3     1  UNL1        0.0255
     15 C          46.7093   12.8162  -27.6828 C.ar    1  UNL1        0.0015
     16 C          46.9488   11.4225  -27.8447 C.ar    1  UNL1        0.0016
     17 C          46.7224   10.7895  -29.0809 C.ar    1  UNL1        0.0206
     18 C          46.2602   11.5715  -30.1335 C.ar    1  UNL1        0.0985
     19 N          45.9816   11.1801  -31.3900 N.ar    1  UNL1       -0.2241
     20 C          45.5766   12.3344  -31.9828 C.ar    1  UNL1        0.1750
     21 N          45.5951   13.4043  -31.1520 N.ar    1  UNL1       -0.3349
     22 C          46.0283   12.9041  -29.9890 C.ar    1  UNL1        0.0757
     23 C          46.2370   13.5704  -28.7846 C.ar    1  UNL1        0.0185
     24 H          45.3313   14.3905  -31.3718 H       1  UNL1        0.1675
     25 C          50.5972   11.0883  -24.6705 C.ar    1  UNL1       -0.0165
     26 C          50.8628   10.4068  -25.8706 C.ar    1  UNL1        0.0142
     27 C          51.9908   10.7146  -26.6375 C.ar    1  UNL1        0.1054
     28 C          52.8768   11.7027  -26.1989 C.ar    1  UNL1        0.0185
     29 C          52.6324   12.3857  -25.0071 C.ar    1  UNL1        0.0055
     30 C          51.4897   12.1050  -24.2425 C.ar    1  UNL1        0.0497
     31 S          52.2646    9.8832  -28.1642 S.O2    1  UNL1        0.0104
     32 C          50.7662    9.0639  -28.6593 C.3     1  UNL1        0.1816
     33 O          52.6706   10.8692  -29.2235 O.2     1  UNL1       -0.1686
     34 O          53.3635    8.8712  -27.9992 O.2     1  UNL1       -0.1686
     35 C          49.4022   10.6489  -23.8513 C.3     1  UNL1        0.0265
     36 C          49.3656    9.4736  -21.5917 C.3     1  UNL1        0.0004
     37 C          49.6775    9.3492  -23.0817 C.3     1  UNL1        0.0047
@<TRIPOS>BOND
     1    36    37    1
     2    37    35    1
     3    35    25    1
     4    25    26   ar
     5    26    27   ar
     6    27    31    1
     7    31    32    1
     8    31    33    2
     9    31    34    2
    10    27    28   ar
    11    28    29   ar
    12    29    30   ar
    13    30     1    1
    14     1     2    2
    15     1     3   am
    16     3     4    1
    17     4     5    1
    18     5     6   ar
    19     6     7   ar
    20     7    15    1
    21    15    16   ar
    22    16    17   ar
    23    17    18   ar
    24    18    19   ar
    25    19    20   ar
    26    20    21   ar
    27    21    22   ar
    28    22    23   ar
    29     7     8   ar
    30     8     9   ar
    31     9    10   ar
    32    10    11    1
    33    11    12    1
    34    12    13    1
    35    13    14    1
    36    30    25   ar
    37    13     3    1
    38    10     5   ar
    39    23    15   ar
    40    22    18   ar
    41    21    24    1
@<TRIPOS>MOLECULE
*****
 37 41 0 0 0
SMALL
GASTEIGER

@<TRIPOS>ATOM
      1 C          49.6309   14.6804  -26.2044 C.2     1  UNL1        0.2490
      2 O          50.0999   15.4408  -27.0941 O.2     1  UNL1       -0.2699
      3 N          48.4058   13.9481  -26.4506 N.am    1  UNL1       -0.2698
      4 C          48.2088   12.6404  -25.8008 C.3     1  UNL1        0.1235
      5 C          47.0732   12.7020  -24.8176 C.ar    1  UNL1        0.0317
      6 C          47.3274   12.3560  -23.4773 C.ar    1  UNL1        0.0004
      7 C          46.3147   12.4145  -22.5072 C.ar    1  UNL1       -0.0000
      8 C          45.0266   12.8080  -22.8962 C.ar    1  UNL1        0.0031
      9 C          44.7602   13.1428  -24.2236 C.ar    1  UNL1        0.0366
     10 C          45.7659   13.1001  -25.1955 C.ar    1  UNL1        0.1362
     11 O          45.4014   13.4837  -26.4986 O.3     1  UNL1       -0.4739
     12 C          46.2345   13.5085  -27.6582 C.3     1  UNL1        0.2249
     13 C          47.4551   14.4365  -27.4777 C.3     1  UNL1        0.1196
     14 C          46.9715   15.8619  -27.1590 C.3     1  UNL1        0.0255
     15 C          46.6059   12.0737  -21.0913 C.ar    1  UNL1        0.0015
     16 C          45.5431   11.8302  -20.1762 C.ar    1  UNL1        0.0016
     17 C          45.8068   11.5040  -18.8331 C.ar    1  UNL1        0.0206
     18 C          47.1366   11.4302  -18.4339 C.ar    1  UNL1        0.0985
     19 N          47.6145   11.1401  -17.2104 N.ar    1  UNL1       -0.2241
     20 C          48.9604   11.2097  -17.3879 C.ar    1  UNL1        0.1750
     21 N          49.3232   11.5264  -18.6541 N.ar    1  UNL1       -0.3349
     22 C          48.1594   11.6611  -19.3006 C.ar    1  UNL1        0.0757
     23 C          47.9444   11.9850  -20.6374 C.ar    1  UNL1        0.0185
     24 H          50.2891   11.6386  -19.0345 H       1  UNL1        0.1675
     25 C          50.1230   15.2482  -23.7741 C.ar    1  UNL1       -0.0165
     26 C          50.8402   14.9595  -22.6004 C.ar    1  UNL1        0.0142
     27 C          51.8174   13.9595  -22.5829 C.ar    1  UNL1        0.1054
     28 C          52.0981   13.2460  -23.7515 C.ar    1  UNL1        0.0185
     29 C          51.4003   13.5228  -24.9276 C.ar    1  UNL1        0.0055
     30 C          50.3983   14.5052  -24.9511 C.ar    1  UNL1        0.0497
     31 S          52.6575   13.5830  -21.0830 S.O2    1  UNL1        0.0104
     32 C          52.7693   15.0548  -20.0916 C.3     1  UNL1        0.1816
     33 O          51.9092   12.5230  -20.3242 O.2     1  UNL1       -0.1686
     34 O          54.0379   13.0740  -21.3902 O.2     1  UNL1       -0.1686
     35 C          49.1368   16.3965  -23.7419 C.3     1  UNL1        0.0265
     36 C          46.6718   16.9504  -23.4170 C.3     1  UNL1        0.0004
     37 C          47.8171   16.0038  -23.0627 C.3     1  UNL1        0.0047
@<TRIPOS>BOND
     1    36    37    1
     2    37    35    1
     3    35    25    1
     4    25    26   ar
     5    26    27   ar
     6    27    31    1
     7    31    32    1
     8    31    33    2
     9    31    34    2
    10    27    28   ar
    11    28    29   ar
    12    29    30   ar
    13    30     1    1
    14     1     2    2
    15     1     3   am
    16     3     4    1
    17     4     5    1
    18     5     6   ar
    19     6     7   ar
    20     7    15    1
    21    15    16   ar
    22    16    17   ar
    23    17    18   ar
    24    18    19   ar
    25    19    20   ar
    26    20    21   ar
    27    21    22   ar
    28    22    23   ar
    29     7     8   ar
    30     8     9   ar
    31     9    10   ar
    32    10    11    1
    33    11    12    1
    34    12    13    1
    35    13    14    1
    36    30    25   ar
    37    13     3    1
    38    10     5   ar
    39    23    15   ar
    40    22    18   ar
    41    21    24    1
@<TRIPOS>MOLECULE
*****
 37 41 0 0 0
SMALL
GASTEIGER

@<TRIPOS>ATOM
      1 C          48.4094   13.3319  -21.4777 C.2     1  UNL1        0.2490
      2 O          48.1051   13.9652  -20.4307 O.2     1  UNL1       -0.2699
      3 N          48.2058   11.8993  -21.5416 N.am    1  UNL1       -0.2698
      4 C          47.9045   11.2749  -22.8418 C.3     1  UNL1        0.1235
      5 C          49.0231   10.3642  -23.2652 C.ar    1  UNL1        0.0317
      6 C          49.6485   10.6015  -24.5035 C.ar    1  UNL1        0.0004
      7 C          50.7132    9.8006  -24.9450 C.ar    1  UNL1       -0.0000
      8 C          51.1400    8.7366  -24.1380 C.ar    1  UNL1        0.0031
      9 C          50.5208    8.4851  -22.9139 C.ar    1  UNL1        0.0366
     10 C          49.4672    9.2857  -22.4590 C.ar    1  UNL1        0.1362
     11 O          48.9298    8.9662  -21.1992 O.3     1  UNL1       -0.4739
     12 C          47.8485    9.6158  -20.5298 C.3     1  UNL1        0.2249
     13 C          48.1309   11.1141  -20.2866 C.3     1  UNL1        0.1196
     14 C          49.4170   11.2641  -19.4556 C.3     1  UNL1        0.0255
     15 C          51.3815   10.0816  -26.2413 C.ar    1  UNL1        0.0015
     16 C          52.0436   11.3233  -26.4556 C.ar    1  UNL1        0.0016
     17 C          52.6824   11.5997  -27.6785 C.ar    1  UNL1        0.0206
     18 C          52.6421   10.6212  -28.6655 C.ar    1  UNL1        0.0985
     19 N          53.1777   10.6723  -29.8984 N.ar    1  UNL1       -0.2241
     20 C          52.8384    9.4659  -30.4250 C.ar    1  UNL1        0.1750
     21 N          52.1258    8.6866  -29.5764 N.ar    1  UNL1       -0.3349
     22 C          52.0121    9.4314  -28.4706 C.ar    1  UNL1        0.0757
     23 C          51.3691    9.1157  -27.2769 C.ar    1  UNL1        0.0185
     24 H          51.7529    7.7266  -29.7487 H       1  UNL1        0.1675
     25 C          50.2350   13.9923  -23.1214 C.ar    1  UNL1       -0.0165
     26 C          50.5993   14.6848  -24.2890 C.ar    1  UNL1        0.0142
     27 C          49.6708   15.4721  -24.9769 C.ar    1  UNL1        0.1054
     28 C          48.3655   15.5865  -24.4903 C.ar    1  UNL1        0.0185
     29 C          47.9874   14.9110  -23.3295 C.ar    1  UNL1        0.0055
     30 C          48.9024   14.0961  -22.6452 C.ar    1  UNL1        0.0497
     31 S          50.1424   16.2804  -26.4673 S.O2    1  UNL1        0.0104
     32 C          51.1112   17.7176  -26.0702 C.3     1  UNL1        0.1816
     33 O          50.9539   15.3500  -27.3247 O.2     1  UNL1       -0.1686
     34 O          48.9146   16.6929  -27.2296 O.2     1  UNL1       -0.1686
     35 C          51.3110   13.2237  -22.3842 C.3     1  UNL1        0.0265
     36 C          52.2819   14.0309  -20.1718 C.3     1  UNL1        0.0004
     37 C          52.3156   14.1572  -21.6937 C.3     1  UNL1        0.0047
@<TRIPOS>BOND
     1    36    37    1
     2    37    35    1
     3    35    25    1
     4    25    26   ar
     5    26    27   ar
     6    27    31    1
     7    31    32    1
     8    31    33    2
     9    31    34    2
    10    27    28   ar
    11    28    29   ar
    12    29    30   ar
    13    30     1    1
    14     1     2    2
    15     1     3   am
    16     3     4    1
    17     4     5    1
    18     5     6   ar
    19     6     7   ar
    20     7    15    1
    21    15    16   ar
    22    16    17   ar
    23    17    18   ar
    24    18    19   ar
    25    19    20   ar
    26    20    21   ar
    27    21    22   ar
    28    22    23   ar
    29     7     8   ar
    30     8     9   ar
    31     9    10   ar
    32    10    11    1
    33    11    12    1
    34    12    13    1
    35    13    14    1
    36    30    25   ar
    37    13     3    1
    38    10     5   ar
    39    23    15   ar
    40    22    18   ar
    41    21    24    1
