@<TRIPOS>MOLECULE
*****
 45 50 0 0 0
SMALL
GASTEIGER

@<TRIPOS>ATOM
      1 C          13.1099   82.6727   24.3529 C.ar    1  UNL1        0.1318
      2 C          11.7406   82.7825   24.6508 C.ar    1  UNL1        0.0356
      3 C          11.0135   81.6403   24.9898 C.ar    1  UNL1        0.0191
      4 C          11.6483   80.3897   25.0422 C.ar    1  UNL1        0.0702
      5 C          13.0075   80.3173   24.7135 C.ar    1  UNL1        0.1149
      6 N          13.6958   81.4427   24.3871 N.ar    1  UNL1       -0.2279
      7 C          15.5488   86.2184   23.4607 C.3     1  UNL1        0.0471
      8 C          15.7403   84.8784   22.7115 C.3     1  UNL1        0.0252
      9 C          15.2947   83.6815   23.5579 C.3     1  UNL1        0.0923
     10 N          13.8964   83.8310   23.9978 N.pl3   1  UNL1       -0.2932
     11 C          13.2652   85.1597   23.9740 C.3     1  UNL1        0.0923
     12 C          14.2838   86.2367   24.3615 C.3     1  UNL1        0.0252
     13 C          15.5548   87.3966   22.4726 C.3     1  UNL1        0.2054
     14 O          14.3489   87.4045   21.7108 O.3     1  UNL1       -0.4758
     15 C          11.7389   87.5060   20.6108 C.3     1  UNL1        0.0342
     16 C          12.7863   86.5765   20.0639 C.ar    1  UNL1        0.0121
     17 C          12.4898   85.7452   18.9740 C.ar    1  UNL1       -0.0011
     18 C          13.4604   84.8884   18.4524 C.ar    1  UNL1        0.0063
     19 C          14.7493   84.8494   19.0082 C.ar    1  UNL1        0.0785
     20 C          15.0496   85.6868   20.0962 C.ar    1  UNL1        0.0430
     21 C          14.0750   86.5543   20.6281 C.ar    1  UNL1        0.1347
     22 C          15.7799   83.9414   18.4564 C.2     1  UNL1        0.3381
     23 O          16.3605   84.2183   17.3718 O.2     1  UNL1       -0.2451
     24 O          16.1188   82.7708   19.1304 O.3     1  UNL1       -0.4771
     25 H          16.8227   82.1429   18.7611 H       1  UNL1        0.2954
     26 N          10.9270   79.1876   25.3625 N.am    1  UNL1       -0.2766
     27 C          11.3828   78.2128   26.3125 C.2     1  UNL1        0.2839
     28 O          12.6141   78.0985   26.5564 O.2     1  UNL1       -0.2665
     29 H          10.0810   78.9560   24.7955 H       1  UNL1        0.1553
     30 C          10.4434   77.2769   26.9551 C.ar    1  UNL1        0.1946
     31 O          10.8147   76.4514   27.9180 O.2     1  UNL1       -0.4492
     32 C           9.7669   75.7485   28.2725 C.ar    1  UNL1        0.1452
     33 C           9.7035   74.7574   29.2459 C.ar    1  UNL1        0.0375
     34 C           8.4671   74.1248   29.4640 C.ar    1  UNL1        0.0031
     35 C           7.3187   74.4896   28.7100 C.ar    1  UNL1        0.0002
     36 C           7.4269   75.5043   27.7290 C.ar    1  UNL1        0.0028
     37 C           8.6692   76.1106   27.5401 C.ar    1  UNL1        0.0337
     38 C           9.0780   77.1164   26.6872 C.ar    1  UNL1        0.0202
     39 C           8.2264   77.8590   25.7022 C.3     1  UNL1        0.0345
     40 C           6.0183   73.8135   28.9480 C.ar    1  UNL1        0.0000
     41 C           5.6212   72.7239   28.1494 C.ar    1  UNL1        0.0000
     42 C           4.3965   72.0886   28.3766 C.ar    1  UNL1        0.0000
     43 C           3.5557   72.5319   29.3998 C.ar    1  UNL1        0.0000
     44 C           3.9381   73.6117   30.1987 C.ar    1  UNL1        0.0000
     45 C           5.1619   74.2504   29.9767 C.ar    1  UNL1        0.0000
@<TRIPOS>BOND
     1    15    16    1
     2    16    17   ar
     3    17    18   ar
     4    18    19   ar
     5    19    22    1
     6    22    23    2
     7    22    24    1
     8    19    20   ar
     9    20    21   ar
    10    21    14    1
    11    14    13    1
    12    13     7    1
    13     7     8    1
    14     8     9    1
    15     9    10    1
    16    10     1    1
    17     1     2   ar
    18     2     3   ar
    19     3     4   ar
    20     4    26    1
    21    26    27   am
    22    27    28    2
    23    27    30    1
    24    30    31   ar
    25    31    32   ar
    26    32    33   ar
    27    33    34   ar
    28    34    35   ar
    29    35    40    1
    30    40    41   ar
    31    41    42   ar
    32    42    43   ar
    33    43    44   ar
    34    44    45   ar
    35    35    36   ar
    36    36    37   ar
    37    37    38   ar
    38    38    39    1
    39     4     5   ar
    40     5     6   ar
    41    10    11    1
    42    11    12    1
    43    21    16   ar
    44    12     7    1
    45     6     1   ar
    46    38    30   ar
    47    37    32   ar
    48    45    40   ar
    49    24    25    1
    50    26    29    1
@<TRIPOS>MOLECULE
*****
 45 50 0 0 0
SMALL
GASTEIGER

@<TRIPOS>ATOM
      1 C          13.3302   83.0188   24.3381 C.ar    1  UNL1        0.1318
      2 C          11.9392   83.1225   24.5115 C.ar    1  UNL1        0.0356
      3 C          11.2186   82.0262   24.9877 C.ar    1  UNL1        0.0191
      4 C          11.8806   80.8290   25.3009 C.ar    1  UNL1        0.0702
      5 C          13.2631   80.7564   25.0902 C.ar    1  UNL1        0.1149
      6 N          13.9445   81.8369   24.6262 N.ar    1  UNL1       -0.2279
      7 C          15.7748   86.4274   23.0260 C.3     1  UNL1        0.0471
      8 C          15.8232   85.0566   22.3104 C.3     1  UNL1        0.0252
      9 C          15.4388   83.9080   23.2489 C.3     1  UNL1        0.0923
     10 N          14.1109   84.1306   23.8475 N.pl3   1  UNL1       -0.2932
     11 C          13.5321   85.4831   23.8494 C.3     1  UNL1        0.0923
     12 C          14.6301   86.5286   24.0708 C.3     1  UNL1        0.0252
     13 C          15.7051   87.5711   22.0004 C.3     1  UNL1        0.2054
     14 O          14.4745   87.5117   21.2817 O.3     1  UNL1       -0.4758
     15 C          11.7671   87.3402   20.4611 C.3     1  UNL1        0.0342
     16 C          12.8233   86.4435   19.8775 C.ar    1  UNL1        0.0121
     17 C          12.4841   85.5060   18.8911 C.ar    1  UNL1       -0.0011
     18 C          13.4608   84.6783   18.3353 C.ar    1  UNL1        0.0063
     19 C          14.7981   84.7750   18.7521 C.ar    1  UNL1        0.0785
     20 C          15.1405   85.7186   19.7358 C.ar    1  UNL1        0.0430
     21 C          14.1599   86.5576   20.3014 C.ar    1  UNL1        0.1347
     22 C          15.8354   83.8980   18.1638 C.2     1  UNL1        0.3381
     23 O          16.3633   84.1876   17.0559 O.2     1  UNL1       -0.2451
     24 O          16.2389   82.7429   18.8289 O.3     1  UNL1       -0.4771
     25 H          16.9479   82.1362   18.4347 H       1  UNL1        0.2954
     26 N          11.1688   79.6707   25.7697 N.am    1  UNL1       -0.2766
     27 C          10.1652   79.7118   26.7951 C.2     1  UNL1        0.2839
     28 O          10.1832   80.6305   27.6578 O.2     1  UNL1       -0.2665
     29 H          11.4739   78.7333   25.4245 H       1  UNL1        0.1553
     30 C           9.1522   78.6483   26.9136 C.ar    1  UNL1        0.1946
     31 O           8.4030   78.2678   25.8936 O.2     1  UNL1       -0.4492
     32 C           7.6006   77.3208   26.3141 C.ar    1  UNL1        0.1452
     33 C           6.6394   76.6379   25.5769 C.ar    1  UNL1        0.0375
     34 C           5.8818   75.6520   26.2332 C.ar    1  UNL1        0.0031
     35 C           6.0944   75.3652   27.6090 C.ar    1  UNL1        0.0002
     36 C           7.0838   76.0837   28.3223 C.ar    1  UNL1        0.0028
     37 C           7.8168   77.0542   27.6388 C.ar    1  UNL1        0.0337
     38 C           8.8343   77.8923   28.0492 C.ar    1  UNL1        0.0202
     39 C           9.4477   77.9569   29.4153 C.3     1  UNL1        0.0345
     40 C           5.2872   74.3228   28.2922 C.ar    1  UNL1        0.0000
     41 C           5.2558   73.0042   27.7992 C.ar    1  UNL1        0.0000
     42 C           4.4957   72.0245   28.4452 C.ar    1  UNL1        0.0000
     43 C           3.7595   72.3479   29.5871 C.ar    1  UNL1        0.0000
     44 C           3.7822   73.6522   30.0859 C.ar    1  UNL1        0.0000
     45 C           4.5411   74.6358   29.4445 C.ar    1  UNL1        0.0000
@<TRIPOS>BOND
     1    15    16    1
     2    16    17   ar
     3    17    18   ar
     4    18    19   ar
     5    19    22    1
     6    22    23    2
     7    22    24    1
     8    19    20   ar
     9    20    21   ar
    10    21    14    1
    11    14    13    1
    12    13     7    1
    13     7     8    1
    14     8     9    1
    15     9    10    1
    16    10     1    1
    17     1     2   ar
    18     2     3   ar
    19     3     4   ar
    20     4    26    1
    21    26    27   am
    22    27    28    2
    23    27    30    1
    24    30    31   ar
    25    31    32   ar
    26    32    33   ar
    27    33    34   ar
    28    34    35   ar
    29    35    40    1
    30    40    41   ar
    31    41    42   ar
    32    42    43   ar
    33    43    44   ar
    34    44    45   ar
    35    35    36   ar
    36    36    37   ar
    37    37    38   ar
    38    38    39    1
    39     4     5   ar
    40     5     6   ar
    41    10    11    1
    42    11    12    1
    43    21    16   ar
    44    12     7    1
    45     6     1   ar
    46    38    30   ar
    47    37    32   ar
    48    45    40   ar
    49    24    25    1
    50    26    29    1
@<TRIPOS>MOLECULE
*****
 45 50 0 0 0
SMALL
GASTEIGER

@<TRIPOS>ATOM
      1 C          13.1377   82.5742   24.3834 C.ar    1  UNL1        0.1318
      2 C          13.8588   81.4014   24.6667 C.ar    1  UNL1        0.0356
      3 C          13.1724   80.2237   24.9667 C.ar    1  UNL1        0.0191
      4 C          11.7691   80.2079   24.9761 C.ar    1  UNL1        0.0702
      5 C          11.0868   81.4025   24.7143 C.ar    1  UNL1        0.1149
      6 N          11.7760   82.5372   24.4239 N.ar    1  UNL1       -0.2279
      7 C          15.0735   86.3591   23.2684 C.3     1  UNL1        0.0471
      8 C          14.4970   86.1156   24.6833 C.3     1  UNL1        0.0252
      9 C          13.3659   85.0820   24.6695 C.3     1  UNL1        0.0923
     10 N          13.8114   83.8125   24.0687 N.pl3   1  UNL1       -0.2932
     11 C          15.0163   83.7912   23.2247 C.3     1  UNL1        0.0923
     12 C          15.1037   85.0758   22.3942 C.3     1  UNL1        0.0252
     13 C          16.4615   87.0153   23.3552 C.3     1  UNL1        0.2054
     14 O          16.3539   88.3178   23.9265 O.3     1  UNL1       -0.4758
     15 C          18.9773   89.2433   24.4685 C.3     1  UNL1        0.0342
     16 C          17.9546   89.0968   25.5606 C.ar    1  UNL1        0.0121
     17 C          18.2816   89.4370   26.8813 C.ar    1  UNL1       -0.0011
     18 C          17.3341   89.3157   27.8990 C.ar    1  UNL1        0.0063
     19 C          16.0382   88.8556   27.6148 C.ar    1  UNL1        0.0785
     20 C          15.7073   88.5207   26.2906 C.ar    1  UNL1        0.0430
     21 C          16.6585   88.6406   25.2581 C.ar    1  UNL1        0.1347
     22 C          15.0320   88.7263   28.6928 C.2     1  UNL1        0.3381
     23 O          15.3825   88.7763   29.9030 O.2     1  UNL1       -0.2451
     24 O          13.6866   88.5477   28.3806 O.3     1  UNL1       -0.4771
     25 H          12.9903   88.4582   29.1109 H       1  UNL1        0.2954
     26 N          11.0276   79.0206   25.3052 N.am    1  UNL1       -0.2766
     27 C          11.4652   78.0471   26.2651 C.2     1  UNL1        0.2839
     28 O          12.6939   77.9151   26.5132 O.2     1  UNL1       -0.2665
     29 H          10.1794   78.7977   24.7380 H       1  UNL1        0.1553
     30 C          10.5091   77.1323   26.9135 C.ar    1  UNL1        0.1946
     31 O          10.8720   76.2838   27.8595 O.2     1  UNL1       -0.4492
     32 C           9.8096   75.6089   28.2246 C.ar    1  UNL1        0.1452
     33 C           9.7332   74.6081   29.1870 C.ar    1  UNL1        0.0375
     34 C           8.4821   74.0107   29.4201 C.ar    1  UNL1        0.0031
     35 C           7.3322   74.4198   28.6916 C.ar    1  UNL1        0.0002
     36 C           7.4539   75.4430   27.7209 C.ar    1  UNL1        0.0028
     37 C           8.7106   76.0134   27.5167 C.ar    1  UNL1        0.0337
     38 C           9.1348   77.0169   26.6685 C.ar    1  UNL1        0.0202
     39 C           8.2890   77.7974   25.7082 C.3     1  UNL1        0.0345
     40 C           6.0160   73.7808   28.9452 C.ar    1  UNL1        0.0000
     41 C           5.1770   74.2531   29.9726 C.ar    1  UNL1        0.0000
     42 C           3.9377   73.6500   30.2083 C.ar    1  UNL1        0.0000
     43 C           3.5224   72.5714   29.4245 C.ar    1  UNL1        0.0000
     44 C           4.3454   72.0935   28.4025 C.ar    1  UNL1        0.0000
     45 C           5.5854   72.6930   28.1616 C.ar    1  UNL1        0.0000
@<TRIPOS>BOND
     1    15    16    1
     2    16    17   ar
     3    17    18   ar
     4    18    19   ar
     5    19    22    1
     6    22    23    2
     7    22    24    1
     8    19    20   ar
     9    20    21   ar
    10    21    14    1
    11    14    13    1
    12    13     7    1
    13     7     8    1
    14     8     9    1
    15     9    10    1
    16    10     1    1
    17     1     2   ar
    18     2     3   ar
    19     3     4   ar
    20     4    26    1
    21    26    27   am
    22    27    28    2
    23    27    30    1
    24    30    31   ar
    25    31    32   ar
    26    32    33   ar
    27    33    34   ar
    28    34    35   ar
    29    35    40    1
    30    40    41   ar
    31    41    42   ar
    32    42    43   ar
    33    43    44   ar
    34    44    45   ar
    35    35    36   ar
    36    36    37   ar
    37    37    38   ar
    38    38    39    1
    39     4     5   ar
    40     5     6   ar
    41    10    11    1
    42    11    12    1
    43    21    16   ar
    44    12     7    1
    45     6     1   ar
    46    38    30   ar
    47    37    32   ar
    48    45    40   ar
    49    24    25    1
    50    26    29    1
@<TRIPOS>MOLECULE
*****
 45 50 0 0 0
SMALL
GASTEIGER

@<TRIPOS>ATOM
      1 C           9.2682   78.7182   24.8236 C.ar    1  UNL1        0.1318
      2 C           9.5744   79.3134   23.5876 C.ar    1  UNL1        0.0356
      3 C          10.2561   80.5309   23.5570 C.ar    1  UNL1        0.0191
      4 C          10.6424   81.1534   24.7540 C.ar    1  UNL1        0.0702
      5 C          10.2964   80.5423   25.9655 C.ar    1  UNL1        0.1149
      6 N           9.6330   79.3562   25.9713 N.ar    1  UNL1       -0.2279
      7 C           7.2876   74.8059   25.1187 C.3     1  UNL1        0.0471
      8 C           6.6701   76.0883   25.7250 C.3     1  UNL1        0.0252
      9 C           7.7400   77.1285   26.0729 C.3     1  UNL1        0.0923
     10 N           8.5640   77.4592   24.8970 N.pl3   1  UNL1       -0.2932
     11 C           8.5848   76.5456   23.7440 C.3     1  UNL1        0.0923
     12 C           8.5219   75.0906   24.2202 C.3     1  UNL1        0.0252
     13 C           6.2192   73.9933   24.3685 C.3     1  UNL1        0.2054
     14 O           6.0456   74.5096   23.0502 O.3     1  UNL1       -0.4758
     15 C           5.1512   73.7712   20.4642 C.3     1  UNL1        0.0342
     16 C           4.4117   74.7857   21.2913 C.ar    1  UNL1        0.0121
     17 C           3.2411   75.3788   20.7966 C.ar    1  UNL1       -0.0011
     18 C           2.5419   76.3124   21.5632 C.ar    1  UNL1        0.0063
     19 C           2.9976   76.6681   22.8428 C.ar    1  UNL1        0.0785
     20 C           4.1669   76.0695   23.3424 C.ar    1  UNL1        0.0430
     21 C           4.8780   75.1263   22.5743 C.ar    1  UNL1        0.1347
     22 C           2.2574   77.6580   23.6573 C.2     1  UNL1        0.3381
     23 O           2.2101   78.8678   23.3048 O.2     1  UNL1       -0.2451
     24 O           1.6052   77.2626   24.8225 O.3     1  UNL1       -0.4771
     25 H           1.0960   77.9322   25.3868 H       1  UNL1        0.2954
     26 N          11.3235   82.4199   24.7631 N.am    1  UNL1       -0.2766
     27 C          12.7371   82.5643   24.9661 C.2     1  UNL1        0.2839
     28 O          13.3744   81.6859   25.6071 O.2     1  UNL1       -0.2665
     29 H          10.7453   83.2892   24.7295 H       1  UNL1        0.1553
     30 C          13.4541   83.7678   24.5093 C.ar    1  UNL1        0.1946
     31 O          13.0367   84.9897   24.7909 O.2     1  UNL1       -0.4492
     32 C          13.8718   85.8374   24.2420 C.ar    1  UNL1        0.1452
     33 C          13.8134   87.2262   24.2794 C.ar    1  UNL1        0.0375
     34 C          14.8210   87.9473   23.6151 C.ar    1  UNL1        0.0031
     35 C          15.8661   87.2735   22.9266 C.ar    1  UNL1        0.0002
     36 C          15.8883   85.8581   22.9138 C.ar    1  UNL1        0.0028
     37 C          14.8727   85.1756   23.5841 C.ar    1  UNL1        0.0337
     38 C          14.6344   83.8267   23.7575 C.ar    1  UNL1        0.0202
     39 C          15.4725   82.6944   23.2453 C.3     1  UNL1        0.0345
     40 C          16.9243   88.0454   22.2272 C.ar    1  UNL1        0.0000
     41 C          18.1554   88.3069   22.8586 C.ar    1  UNL1        0.0000
     42 C          19.1504   89.0331   22.1971 C.ar    1  UNL1        0.0000
     43 C          18.9293   89.5063   20.9018 C.ar    1  UNL1        0.0000
     44 C          17.7124   89.2538   20.2648 C.ar    1  UNL1        0.0000
     45 C          16.7141   88.5274   20.9210 C.ar    1  UNL1        0.0000
@<TRIPOS>BOND
     1    15    16    1
     2    16    17   ar
     3    17    18   ar
     4    18    19   ar
     5    19    22    1
     6    22    23    2
     7    22    24    1
     8    19    20   ar
     9    20    21   ar
    10    21    14    1
    11    14    13    1
    12    13     7    1
    13     7     8    1
    14     8     9    1
    15     9    10    1
    16    10     1    1
    17     1     2   ar
    18     2     3   ar
    19     3     4   ar
    20     4    26    1
    21    26    27   am
    22    27    28    2
    23    27    30    1
    24    30    31   ar
    25    31    32   ar
    26    32    33   ar
    27    33    34   ar
    28    34    35   ar
    29    35    40    1
    30    40    41   ar
    31    41    42   ar
    32    42    43   ar
    33    43    44   ar
    34    44    45   ar
    35    35    36   ar
    36    36    37   ar
    37    37    38   ar
    38    38    39    1
    39     4     5   ar
    40     5     6   ar
    41    10    11    1
    42    11    12    1
    43    21    16   ar
    44    12     7    1
    45     6     1   ar
    46    38    30   ar
    47    37    32   ar
    48    45    40   ar
    49    24    25    1
    50    26    29    1
@<TRIPOS>MOLECULE
*****
 45 50 0 0 0
SMALL
GASTEIGER

@<TRIPOS>ATOM
      1 C           8.3531   77.6919   23.4054 C.ar    1  UNL1        0.1318
      2 C           8.6950   77.6987   24.7688 C.ar    1  UNL1        0.0356
      3 C           9.4679   78.7415   25.2821 C.ar    1  UNL1        0.0191
      4 C           9.8937   79.7831   24.4434 C.ar    1  UNL1        0.0702
      5 C           9.5547   79.7273   23.0859 C.ar    1  UNL1        0.1149
      6 N           8.8006   78.7026   22.6081 N.ar    1  UNL1       -0.2279
      7 C           6.0803   74.4092   21.5686 C.3     1  UNL1        0.0471
      8 C           6.1542   74.6014   23.1019 C.3     1  UNL1        0.0252
      9 C           7.4316   75.3341   23.5252 C.3     1  UNL1        0.0923
     10 N           7.5553   76.6308   22.8365 N.pl3   1  UNL1       -0.2932
     11 C           6.7758   76.8817   21.6142 C.3     1  UNL1        0.0923
     12 C           6.6794   75.6029   20.7759 C.3     1  UNL1        0.0252
     13 C           4.6376   74.1080   21.1299 C.3     1  UNL1        0.2054
     14 O           4.0600   75.2596   20.5178 O.3     1  UNL1       -0.4758
     15 C           3.3424   77.5430   18.9999 C.3     1  UNL1        0.0342
     16 C           3.1225   77.4866   20.4861 C.ar    1  UNL1        0.0121
     17 C           2.5344   78.5717   21.1522 C.ar    1  UNL1       -0.0011
     18 C           2.3153   78.5224   22.5297 C.ar    1  UNL1        0.0063
     19 C           2.6762   77.3839   23.2683 C.ar    1  UNL1        0.0785
     20 C           3.2596   76.2933   22.6009 C.ar    1  UNL1        0.0430
     21 C           3.4837   76.3359   21.2104 C.ar    1  UNL1        0.1347
     22 C           2.4447   77.3298   24.7293 C.2     1  UNL1        0.3381
     23 O           1.3093   77.0245   25.1852 O.2     1  UNL1       -0.2451
     24 O           3.4797   77.6160   25.6160 O.3     1  UNL1       -0.4771
     25 H           3.3315   77.5817   26.6175 H       1  UNL1        0.2954
     26 N          10.7121   80.8606   24.9304 N.am    1  UNL1       -0.2766
     27 C          12.1013   81.0175   24.6047 C.2     1  UNL1        0.2839
     28 O          12.7918   80.0115   24.2889 O.2     1  UNL1       -0.2665
     29 H          10.3045   81.5027   25.6463 H       1  UNL1        0.1553
     30 C          12.7662   82.3282   24.7117 C.ar    1  UNL1        0.1946
     31 O          12.9156   83.1325   23.6739 O.2     1  UNL1       -0.4492
     32 C          13.5471   84.2055   24.0832 C.ar    1  UNL1        0.1452
     33 C          13.9191   85.3091   23.3234 C.ar    1  UNL1        0.0375
     34 C          14.5965   86.3576   23.9702 C.ar    1  UNL1        0.0031
     35 C          14.8907   86.2879   25.3591 C.ar    1  UNL1        0.0002
     36 C          14.4934   85.1462   26.0957 C.ar    1  UNL1        0.0028
     37 C          13.8228   84.1255   25.4211 C.ar    1  UNL1        0.0337
     38 C          13.3093   82.9208   25.8587 C.ar    1  UNL1        0.0202
     39 C          13.3378   82.3892   27.2599 C.3     1  UNL1        0.0345
     40 C          15.6079   87.4008   26.0315 C.ar    1  UNL1        0.0000
     41 C          15.2043   87.8468   27.3046 C.ar    1  UNL1        0.0000
     42 C          15.8822   88.8942   27.9358 C.ar    1  UNL1        0.0000
     43 C          16.9672   89.5077   27.3058 C.ar    1  UNL1        0.0000
     44 C          17.3772   89.0746   26.0430 C.ar    1  UNL1        0.0000
     45 C          16.7036   88.0271   25.4073 C.ar    1  UNL1        0.0000
@<TRIPOS>BOND
     1    15    16    1
     2    16    17   ar
     3    17    18   ar
     4    18    19   ar
     5    19    22    1
     6    22    23    2
     7    22    24    1
     8    19    20   ar
     9    20    21   ar
    10    21    14    1
    11    14    13    1
    12    13     7    1
    13     7     8    1
    14     8     9    1
    15     9    10    1
    16    10     1    1
    17     1     2   ar
    18     2     3   ar
    19     3     4   ar
    20     4    26    1
    21    26    27   am
    22    27    28    2
    23    27    30    1
    24    30    31   ar
    25    31    32   ar
    26    32    33   ar
    27    33    34   ar
    28    34    35   ar
    29    35    40    1
    30    40    41   ar
    31    41    42   ar
    32    42    43   ar
    33    43    44   ar
    34    44    45   ar
    35    35    36   ar
    36    36    37   ar
    37    37    38   ar
    38    38    39    1
    39     4     5   ar
    40     5     6   ar
    41    10    11    1
    42    11    12    1
    43    21    16   ar
    44    12     7    1
    45     6     1   ar
    46    38    30   ar
    47    37    32   ar
    48    45    40   ar
    49    24    25    1
    50    26    29    1
@<TRIPOS>MOLECULE
*****
 45 50 0 0 0
SMALL
GASTEIGER

@<TRIPOS>ATOM
      1 C           9.4085   78.7751   24.7711 C.ar    1  UNL1        0.1318
      2 C           9.7941   79.3350   26.0013 C.ar    1  UNL1        0.0356
      3 C          10.4456   80.5691   26.0250 C.ar    1  UNL1        0.0191
      4 C          10.7062   81.2523   24.8270 C.ar    1  UNL1        0.0702
      5 C          10.3299   80.6499   23.6202 C.ar    1  UNL1        0.1149
      6 N           9.6959   79.4479   23.6212 N.ar    1  UNL1       -0.2279
      7 C           7.4855   74.8369   24.4409 C.3     1  UNL1        0.0471
      8 C           7.8716   75.4519   25.8070 C.3     1  UNL1        0.0252
      9 C           9.0367   76.4390   25.6807 C.3     1  UNL1        0.0923
     10 N           8.7325   77.5003   24.7050 N.pl3   1  UNL1       -0.2932
     11 C           7.6573   77.2970   23.7216 C.3     1  UNL1        0.0923
     12 C           7.6305   75.8360   23.2608 C.3     1  UNL1        0.0252
     13 C           6.0722   74.2338   24.4991 C.3     1  UNL1        0.2054
     14 O           5.2387   75.0174   25.3510 O.3     1  UNL1       -0.4758
     15 C           4.3558   76.9314   27.2456 C.3     1  UNL1        0.0342
     16 C           3.8505   76.9365   25.8297 C.ar    1  UNL1        0.0121
     17 C           2.9340   77.9129   25.4130 C.ar    1  UNL1       -0.0011
     18 C           2.4694   77.9321   24.0970 C.ar    1  UNL1        0.0063
     19 C           2.9162   76.9770   23.1697 C.ar    1  UNL1        0.0785
     20 C           3.8396   76.0021   23.5843 C.ar    1  UNL1        0.0430
     21 C           4.3131   75.9764   24.9112 C.ar    1  UNL1        0.1347
     22 C           2.4246   76.9958   21.7735 C.2     1  UNL1        0.3381
     23 O           2.3338   78.0840   21.1430 O.2     1  UNL1       -0.2451
     24 O           2.0569   75.8104   21.1419 O.3     1  UNL1       -0.4771
     25 H           1.7193   75.8126   20.1869 H       1  UNL1        0.2954
     26 N          11.3975   82.5131   24.8097 N.am    1  UNL1       -0.2766
     27 C          12.8167   82.6473   24.9782 C.2     1  UNL1        0.2839
     28 O          13.4617   81.7689   25.6114 O.2     1  UNL1       -0.2665
     29 H          10.8258   83.3869   24.7824 H       1  UNL1        0.1553
     30 C          13.5325   83.8411   24.4948 C.ar    1  UNL1        0.1946
     31 O          13.1439   85.0684   24.7934 O.2     1  UNL1       -0.4492
     32 C          13.9691   85.9049   24.2130 C.ar    1  UNL1        0.1452
     33 C          13.9321   87.2943   24.2538 C.ar    1  UNL1        0.0375
     34 C          14.9233   88.0018   23.5513 C.ar    1  UNL1        0.0031
     35 C          15.9311   87.3140   22.8221 C.ar    1  UNL1        0.0002
     36 C          15.9324   85.8985   22.8073 C.ar    1  UNL1        0.0028
     37 C          14.9340   85.2297   23.5161 C.ar    1  UNL1        0.0337
     38 C          14.6834   83.8841   23.6976 C.ar    1  UNL1        0.0202
     39 C          15.4845   82.7407   23.1522 C.3     1  UNL1        0.0345
     40 C          16.9722   88.0717   22.0826 C.ar    1  UNL1        0.0000
     41 C          18.2850   88.1600   22.5839 C.ar    1  UNL1        0.0000
     42 C          19.2636   88.8733   21.8848 C.ar    1  UNL1        0.0000
     43 C          18.9446   89.5056   20.6811 C.ar    1  UNL1        0.0000
     44 C          17.6461   89.4257   20.1734 C.ar    1  UNL1        0.0000
     45 C          16.6636   88.7131   20.8677 C.ar    1  UNL1        0.0000
@<TRIPOS>BOND
     1    15    16    1
     2    16    17   ar
     3    17    18   ar
     4    18    19   ar
     5    19    22    1
     6    22    23    2
     7    22    24    1
     8    19    20   ar
     9    20    21   ar
    10    21    14    1
    11    14    13    1
    12    13     7    1
    13     7     8    1
    14     8     9    1
    15     9    10    1
    16    10     1    1
    17     1     2   ar
    18     2     3   ar
    19     3     4   ar
    20     4    26    1
    21    26    27   am
    22    27    28    2
    23    27    30    1
    24    30    31   ar
    25    31    32   ar
    26    32    33   ar
    27    33    34   ar
    28    34    35   ar
    29    35    40    1
    30    40    41   ar
    31    41    42   ar
    32    42    43   ar
    33    43    44   ar
    34    44    45   ar
    35    35    36   ar
    36    36    37   ar
    37    37    38   ar
    38    38    39    1
    39     4     5   ar
    40     5     6   ar
    41    10    11    1
    42    11    12    1
    43    21    16   ar
    44    12     7    1
    45     6     1   ar
    46    38    30   ar
    47    37    32   ar
    48    45    40   ar
    49    24    25    1
    50    26    29    1
@<TRIPOS>MOLECULE
*****
 45 50 0 0 0
SMALL
GASTEIGER

@<TRIPOS>ATOM
      1 C           9.1025   78.6696   24.8742 C.ar    1  UNL1        0.1318
      2 C           9.4199   79.2672   26.1062 C.ar    1  UNL1        0.0356
      3 C          10.1115   80.4793   26.1285 C.ar    1  UNL1        0.0191
      4 C          10.4800   81.1034   24.9266 C.ar    1  UNL1        0.0702
      5 C          10.1687   80.4641   23.7203 C.ar    1  UNL1        0.1149
      6 N           9.4940   79.2844   23.7227 N.ar    1  UNL1       -0.2279
      7 C           6.8154   74.9317   24.5383 C.3     1  UNL1        0.0471
      8 C           8.3599   74.9616   24.4529 C.3     1  UNL1        0.0252
      9 C           8.8789   76.3164   23.9602 C.3     1  UNL1        0.0923
     10 N           8.3881   77.4159   24.8095 N.pl3   1  UNL1       -0.2932
     11 C           7.2209   77.1979   25.6781 C.3     1  UNL1        0.0923
     12 C           6.2038   76.2892   24.9799 C.3     1  UNL1        0.0252
     13 C           6.3457   73.7804   25.4431 C.3     1  UNL1        0.2054
     14 O           5.6890   74.3001   26.5978 O.3     1  UNL1       -0.4758
     15 C           3.8560   74.4125   28.7565 C.3     1  UNL1        0.0342
     16 C           5.3406   74.3654   28.9881 C.ar    1  UNL1        0.0121
     17 C           5.8491   74.3589   30.2951 C.ar    1  UNL1       -0.0011
     18 C           7.2257   74.3027   30.5190 C.ar    1  UNL1        0.0063
     19 C           8.1215   74.2474   29.4391 C.ar    1  UNL1        0.0785
     20 C           7.6128   74.2472   28.1289 C.ar    1  UNL1        0.0430
     21 C           6.2245   74.3037   27.8952 C.ar    1  UNL1        0.1347
     22 C           9.5817   74.1878   29.6745 C.2     1  UNL1        0.3381
     23 O          10.3607   74.9620   29.0548 O.2     1  UNL1       -0.2451
     24 O          10.1103   73.2750   30.5837 O.3     1  UNL1       -0.4771
     25 H          11.1081   73.2264   30.7519 H       1  UNL1        0.2954
     26 N          11.2151   82.3393   24.9098 N.am    1  UNL1       -0.2766
     27 C          12.6458   82.4155   24.8213 C.2     1  UNL1        0.2839
     28 O          13.3541   81.4554   25.2277 O.2     1  UNL1       -0.2665
     29 H          10.6901   83.2259   25.0810 H       1  UNL1        0.1553
     30 C          13.3159   83.6355   24.3378 C.ar    1  UNL1        0.1946
     31 O          12.7986   84.8401   24.5040 O.2     1  UNL1       -0.4492
     32 C          13.6169   85.7084   23.9618 C.ar    1  UNL1        0.1452
     33 C          13.4649   87.0893   23.9002 C.ar    1  UNL1        0.0375
     34 C          14.4720   87.8364   23.2644 C.ar    1  UNL1        0.0031
     35 C          15.6096   87.1959   22.7024 C.ar    1  UNL1        0.0002
     36 C          15.7254   85.7876   22.7877 C.ar    1  UNL1        0.0028
     37 C          14.7073   85.0788   23.4261 C.ar    1  UNL1        0.0337
     38 C          14.5451   83.7300   23.6728 C.ar    1  UNL1        0.0202
     39 C          15.4930   82.6296   23.3021 C.3     1  UNL1        0.0345
     40 C          16.6665   87.9950   22.0320 C.ar    1  UNL1        0.0000
     41 C          17.9675   88.0538   22.5674 C.ar    1  UNL1        0.0000
     42 C          18.9609   88.8062   21.9333 C.ar    1  UNL1        0.0000
     43 C          18.6688   89.5074   20.7614 C.ar    1  UNL1        0.0000
     44 C          17.3822   89.4573   20.2205 C.ar    1  UNL1        0.0000
     45 C          16.3850   88.7059   20.8497 C.ar    1  UNL1        0.0000
@<TRIPOS>BOND
     1    15    16    1
     2    16    17   ar
     3    17    18   ar
     4    18    19   ar
     5    19    22    1
     6    22    23    2
     7    22    24    1
     8    19    20   ar
     9    20    21   ar
    10    21    14    1
    11    14    13    1
    12    13     7    1
    13     7     8    1
    14     8     9    1
    15     9    10    1
    16    10     1    1
    17     1     2   ar
    18     2     3   ar
    19     3     4   ar
    20     4    26    1
    21    26    27   am
    22    27    28    2
    23    27    30    1
    24    30    31   ar
    25    31    32   ar
    26    32    33   ar
    27    33    34   ar
    28    34    35   ar
    29    35    40    1
    30    40    41   ar
    31    41    42   ar
    32    42    43   ar
    33    43    44   ar
    34    44    45   ar
    35    35    36   ar
    36    36    37   ar
    37    37    38   ar
    38    38    39    1
    39     4     5   ar
    40     5     6   ar
    41    10    11    1
    42    11    12    1
    43    21    16   ar
    44    12     7    1
    45     6     1   ar
    46    38    30   ar
    47    37    32   ar
    48    45    40   ar
    49    24    25    1
    50    26    29    1
@<TRIPOS>MOLECULE
*****
 45 50 0 0 0
SMALL
GASTEIGER

@<TRIPOS>ATOM
      1 C          10.6775   79.3268   23.7927 C.ar    1  UNL1        0.1318
      2 C          10.6852   77.9478   24.0646 C.ar    1  UNL1        0.0356
      3 C           9.7358   77.1197   23.4639 C.ar    1  UNL1        0.0191
      4 C           8.7839   77.6596   22.5851 C.ar    1  UNL1        0.0702
      5 C           8.7923   79.0416   22.3598 C.ar    1  UNL1        0.1149
      6 N           9.7267   79.8286   22.9552 N.ar    1  UNL1       -0.2279
      7 C          13.5204   82.0156   25.7940 C.3     1  UNL1        0.0471
      8 C          13.9860   80.7900   24.9725 C.3     1  UNL1        0.0252
      9 C          12.9156   79.6947   24.9235 C.3     1  UNL1        0.0923
     10 N          11.6431   80.2164   24.3948 N.pl3   1  UNL1       -0.2932
     11 C          11.4005   81.6675   24.3853 C.3     1  UNL1        0.0923
     12 C          12.0043   82.3134   25.6367 C.3     1  UNL1        0.0252
     13 C          14.3753   83.2487   25.4579 C.3     1  UNL1        0.2054
     14 O          13.6239   84.1657   24.6647 O.3     1  UNL1       -0.4758
     15 C          14.3852   86.7887   25.4216 C.3     1  UNL1        0.0342
     16 C          14.5414   86.3025   24.0077 C.ar    1  UNL1        0.0121
     17 C          15.0902   87.1452   23.0302 C.ar    1  UNL1       -0.0011
     18 C          15.2500   86.6974   21.7179 C.ar    1  UNL1        0.0063
     19 C          14.8681   85.3949   21.3581 C.ar    1  UNL1        0.0785
     20 C          14.3242   84.5472   22.3383 C.ar    1  UNL1        0.0430
     21 C          14.1598   84.9924   23.6650 C.ar    1  UNL1        0.1347
     22 C          15.0368   84.9181   19.9669 C.2     1  UNL1        0.3381
     23 O          14.7618   85.6732   18.9952 O.2     1  UNL1       -0.2451
     24 O          15.5014   83.6292   19.7172 O.3     1  UNL1       -0.4771
     25 H          15.6203   83.2935   18.7689 H       1  UNL1        0.2954
     26 N           7.7748   76.8424   21.9673 N.am    1  UNL1       -0.2766
     27 C           6.4887   76.5853   22.5508 C.2     1  UNL1        0.2839
     28 O           6.3407   76.6460   23.8010 O.2     1  UNL1       -0.2665
     29 H           8.0292   76.3187   21.1002 H       1  UNL1        0.1553
     30 C           5.3448   76.1674   21.7213 C.ar    1  UNL1        0.1946
     31 O           5.4705   75.8737   20.4390 O.2     1  UNL1       -0.4492
     32 C           4.2856   75.5509   19.9814 C.ar    1  UNL1        0.1452
     33 C           3.9531   75.1786   18.6835 C.ar    1  UNL1        0.0375
     34 C           2.6087   74.8731   18.4086 C.ar    1  UNL1        0.0031
     35 C           1.6217   74.9442   19.4290 C.ar    1  UNL1        0.0002
     36 C           2.0033   75.3271   20.7373 C.ar    1  UNL1        0.0028
     37 C           3.3462   75.6224   20.9738 C.ar    1  UNL1        0.0337
     38 C           4.0123   76.0044   22.1212 C.ar    1  UNL1        0.0202
     39 C           3.4169   76.1932   23.4838 C.3     1  UNL1        0.0345
     40 C           0.2044   74.6206   19.1267 C.ar    1  UNL1        0.0000
     41 C          -0.1418   73.3768   18.5647 C.ar    1  UNL1        0.0000
     42 C          -1.4774   73.0745   18.2821 C.ar    1  UNL1        0.0000
     43 C          -2.4804   74.0071   18.5554 C.ar    1  UNL1        0.0000
     44 C          -2.1500   75.2443   19.1126 C.ar    1  UNL1        0.0000
     45 C          -0.8162   75.5518   19.3981 C.ar    1  UNL1        0.0000
@<TRIPOS>BOND
     1    15    16    1
     2    16    17   ar
     3    17    18   ar
     4    18    19   ar
     5    19    22    1
     6    22    23    2
     7    22    24    1
     8    19    20   ar
     9    20    21   ar
    10    21    14    1
    11    14    13    1
    12    13     7    1
    13     7     8    1
    14     8     9    1
    15     9    10    1
    16    10     1    1
    17     1     2   ar
    18     2     3   ar
    19     3     4   ar
    20     4    26    1
    21    26    27   am
    22    27    28    2
    23    27    30    1
    24    30    31   ar
    25    31    32   ar
    26    32    33   ar
    27    33    34   ar
    28    34    35   ar
    29    35    40    1
    30    40    41   ar
    31    41    42   ar
    32    42    43   ar
    33    43    44   ar
    34    44    45   ar
    35    35    36   ar
    36    36    37   ar
    37    37    38   ar
    38    38    39    1
    39     4     5   ar
    40     5     6   ar
    41    10    11    1
    42    11    12    1
    43    21    16   ar
    44    12     7    1
    45     6     1   ar
    46    38    30   ar
    47    37    32   ar
    48    45    40   ar
    49    24    25    1
    50    26    29    1
@<TRIPOS>MOLECULE
*****
 45 50 0 0 0
SMALL
GASTEIGER

@<TRIPOS>ATOM
      1 C           8.3833   77.4777   23.6287 C.ar    1  UNL1        0.1318
      2 C           9.2711   78.1389   22.7625 C.ar    1  UNL1        0.0356
      3 C          10.0967   79.1491   23.2585 C.ar    1  UNL1        0.0191
      4 C          10.0477   79.4966   24.6174 C.ar    1  UNL1        0.0702
      5 C           9.1319   78.8328   25.4430 C.ar    1  UNL1        0.1149
      6 N           8.3382   77.8518   24.9383 N.ar    1  UNL1       -0.2279
      7 C           5.8386   74.1545   22.2881 C.3     1  UNL1        0.0471
      8 C           5.2490   75.4454   22.9042 C.3     1  UNL1        0.0252
      9 C           6.2435   76.1366   23.8428 C.3     1  UNL1        0.0923
     10 N           7.5129   76.4274   23.1536 N.pl3   1  UNL1       -0.2932
     11 C           7.8455   75.7132   21.9111 C.3     1  UNL1        0.0923
     12 C           7.3585   74.2625   21.9878 C.3     1  UNL1        0.0252
     13 C           5.0447   73.7399   21.0381 C.3     1  UNL1        0.2054
     14 O           5.5147   74.4566   19.8980 O.3     1  UNL1       -0.4758
     15 C           2.8424   74.8143   19.0241 C.3     1  UNL1        0.0342
     16 C           3.8041   75.9671   19.1031 C.ar    1  UNL1        0.0121
     17 C           3.3835   77.2595   18.7573 C.ar    1  UNL1       -0.0011
     18 C           4.2666   78.3373   18.8398 C.ar    1  UNL1        0.0063
     19 C           5.5877   78.1442   19.2746 C.ar    1  UNL1        0.0785
     20 C           6.0085   76.8507   19.6278 C.ar    1  UNL1        0.0430
     21 C           5.1227   75.7579   19.5471 C.ar    1  UNL1        0.1347
     22 C           6.5257   79.2860   19.3627 C.2     1  UNL1        0.3381
     23 O           7.1451   79.5224   20.4354 O.2     1  UNL1       -0.2451
     24 O           6.7335   80.1115   18.2606 O.3     1  UNL1       -0.4771
     25 H           7.3732   80.8953   18.3107 H       1  UNL1        0.2954
     26 N          10.8643   80.5488   25.1595 N.am    1  UNL1       -0.2766
     27 C          12.1856   80.8557   24.6900 C.2     1  UNL1        0.2839
     28 O          12.8810   79.9618   24.1367 O.2     1  UNL1       -0.2665
     29 H          10.5231   81.0460   26.0124 H       1  UNL1        0.1553
     30 C          12.7860   82.1823   24.9156 C.ar    1  UNL1        0.1946
     31 O          13.1548   82.9704   23.9209 O.2     1  UNL1       -0.4492
     32 C          13.6577   84.0643   24.4386 C.ar    1  UNL1        0.1452
     33 C          14.1745   85.1615   23.7584 C.ar    1  UNL1        0.0375
     34 C          14.6681   86.2364   24.5183 C.ar    1  UNL1        0.0031
     35 C          14.6385   86.1989   25.9389 C.ar    1  UNL1        0.0002
     36 C          14.1031   85.0626   26.5916 C.ar    1  UNL1        0.0028
     37 C          13.6218   84.0152   25.8057 C.ar    1  UNL1        0.0337
     38 C          13.0426   82.8079   26.1422 C.ar    1  UNL1        0.0202
     39 C          12.7594   82.3030   27.5249 C.3     1  UNL1        0.0345
     40 C          15.1640   87.3395   26.7313 C.ar    1  UNL1        0.0000
     41 C          15.8891   88.3719   26.1059 C.ar    1  UNL1        0.0000
     42 C          16.3817   89.4452   26.8545 C.ar    1  UNL1        0.0000
     43 C          16.1581   89.5006   28.2319 C.ar    1  UNL1        0.0000
     44 C          15.4406   88.4828   28.8640 C.ar    1  UNL1        0.0000
     45 C          14.9449   87.4075   28.1205 C.ar    1  UNL1        0.0000
@<TRIPOS>BOND
     1    15    16    1
     2    16    17   ar
     3    17    18   ar
     4    18    19   ar
     5    19    22    1
     6    22    23    2
     7    22    24    1
     8    19    20   ar
     9    20    21   ar
    10    21    14    1
    11    14    13    1
    12    13     7    1
    13     7     8    1
    14     8     9    1
    15     9    10    1
    16    10     1    1
    17     1     2   ar
    18     2     3   ar
    19     3     4   ar
    20     4    26    1
    21    26    27   am
    22    27    28    2
    23    27    30    1
    24    30    31   ar
    25    31    32   ar
    26    32    33   ar
    27    33    34   ar
    28    34    35   ar
    29    35    40    1
    30    40    41   ar
    31    41    42   ar
    32    42    43   ar
    33    43    44   ar
    34    44    45   ar
    35    35    36   ar
    36    36    37   ar
    37    37    38   ar
    38    38    39    1
    39     4     5   ar
    40     5     6   ar
    41    10    11    1
    42    11    12    1
    43    21    16   ar
    44    12     7    1
    45     6     1   ar
    46    38    30   ar
    47    37    32   ar
    48    45    40   ar
    49    24    25    1
    50    26    29    1
