@<TRIPOS>MOLECULE
*****
 38 42 0 0 0
SMALL
GASTEIGER

@<TRIPOS>ATOM
      1 C         -22.2033   -9.6855  -13.3560 C.2     1  UNL1        0.2506
      2 O         -21.9146   -9.9637  -14.5515 O.2     1  UNL1       -0.2699
      3 N         -23.4639   -9.0581  -13.0469 N.am    1  UNL1       -0.2680
      4 C         -24.2010   -9.4494  -11.8408 C.3     1  UNL1        0.1412
      5 C         -24.0452   -8.3822  -10.7597 C.3     1  UNL1        0.2268
      6 O         -23.9361   -7.0761  -11.3227 O.3     1  UNL1       -0.4739
      7 C         -24.8591   -6.5739  -12.2424 C.ar    1  UNL1        0.1362
      8 C         -25.6220   -5.4624  -11.8711 C.ar    1  UNL1        0.0366
      9 C         -26.5799   -4.9375  -12.7380 C.ar    1  UNL1        0.0031
     10 C         -26.7840   -5.5148  -13.9980 C.ar    1  UNL1        0.0008
     11 C         -25.9932   -6.6057  -14.3906 C.ar    1  UNL1        0.0004
     12 C         -25.0314   -7.1539  -13.5237 C.ar    1  UNL1        0.0317
     13 C         -24.1292   -8.2455  -14.0753 C.3     1  UNL1        0.1236
     14 C         -27.7828   -4.9465  -14.9304 C.ar    1  UNL1        0.0121
     15 C         -29.1472   -5.3161  -14.7879 C.ar    1  UNL1        0.0025
     16 C         -30.1273   -4.8089  -15.6587 C.ar    1  UNL1        0.0207
     17 C         -29.7163   -3.9332  -16.6568 C.ar    1  UNL1        0.0994
     18 N         -30.4819   -3.3289  -17.5832 N.ar    1  UNL1       -0.2241
     19 C         -29.5829   -2.5866  -18.2806 C.ar    1  UNL1        0.1750
     20 N         -28.3134   -2.7076  -17.8250 N.ar    1  UNL1       -0.3343
     21 C         -28.4133   -3.5638  -16.7993 C.ar    1  UNL1        0.0863
     22 C         -27.4050   -4.0406  -15.9585 C.ar    1  UNL1        0.0747
     23 CL        -25.7504   -3.4659  -16.1522 Cl      1  UNL1       -0.0807
     24 H         -27.4582   -2.2369  -18.1955 H       1  UNL1        0.1675
     25 C         -20.9071  -11.3697  -11.9929 C.ar    1  UNL1        0.0503
     26 C         -19.9307  -11.6214  -11.0073 C.ar    1  UNL1        0.0328
     27 C         -19.3216  -10.5687  -10.3136 C.ar    1  UNL1        0.1069
     28 C         -19.6775   -9.2488  -10.6040 C.ar    1  UNL1        0.0186
     29 C         -20.6338   -8.9800  -11.5821 C.ar    1  UNL1        0.0071
     30 C         -21.2398  -10.0260  -12.2925 C.ar    1  UNL1        0.0667
     31 S         -18.0954  -10.9113   -9.0973 S.O2    1  UNL1        0.0105
     32 C         -17.9701  -12.6700   -8.8677 C.3     1  UNL1        0.1816
     33 O         -16.7653  -10.3686   -9.5398 O.2     1  UNL1       -0.1686
     34 O         -18.4748  -10.2579   -7.7981 O.2     1  UNL1       -0.1686
     35 N         -21.5861  -12.4564  -12.6626 N.pl3   1  UNL1       -0.3325
     36 H         -22.5876  -12.6504  -12.4391 H       1  UNL1        0.1468
     37 C         -21.9277  -13.5349  -14.8408 C.3     1  UNL1        0.0229
     38 C         -20.9746  -13.3230  -13.6700 C.3     1  UNL1        0.0871
@<TRIPOS>BOND
     1    37    38    1
     2    38    35    1
     3    35    25    1
     4    25    26   ar
     5    26    27   ar
     6    27    31    1
     7    31    32    1
     8    31    33    2
     9    31    34    2
    10    27    28   ar
    11    28    29   ar
    12    29    30   ar
    13    30     1    1
    14     1     2    2
    15     1     3   am
    16     3     4    1
    17     4     5    1
    18     5     6    1
    19     6     7    1
    20     7     8   ar
    21     8     9   ar
    22     9    10   ar
    23    10    14    1
    24    14    15   ar
    25    15    16   ar
    26    16    17   ar
    27    17    18   ar
    28    18    19   ar
    29    19    20   ar
    30    20    21   ar
    31    21    22   ar
    32    22    23    1
    33    10    11   ar
    34    11    12   ar
    35    12    13    1
    36    30    25   ar
    37    13     3    1
    38    12     7   ar
    39    22    14   ar
    40    21    17   ar
    41    35    36    1
    42    20    24    1
@<TRIPOS>MOLECULE
*****
 38 42 0 0 0
SMALL
GASTEIGER

@<TRIPOS>ATOM
      1 C         -21.7830   -8.2686   -9.4485 C.2     1  UNL1        0.2506
      2 O         -22.5689   -8.1656   -8.4678 O.2     1  UNL1       -0.2699
      3 N         -22.0828   -7.5917  -10.6856 N.am    1  UNL1       -0.2680
      4 C         -21.0037   -6.9722  -11.4622 C.3     1  UNL1        0.1412
      5 C         -20.6619   -7.8391  -12.6720 C.3     1  UNL1        0.2268
      6 O         -21.8121   -8.5167  -13.1746 O.3     1  UNL1       -0.4739
      7 C         -22.9993   -7.8520  -13.4887 C.ar    1  UNL1        0.1362
      8 C         -23.4238   -7.8543  -14.8210 C.ar    1  UNL1        0.0366
      9 C         -24.5857   -7.1810  -15.1968 C.ar    1  UNL1        0.0031
     10 C         -25.3477   -6.4990  -14.2392 C.ar    1  UNL1        0.0008
     11 C         -24.9471   -6.5272  -12.8946 C.ar    1  UNL1        0.0004
     12 C         -23.7719   -7.1916  -12.5014 C.ar    1  UNL1        0.0317
     13 C         -23.4830   -7.2862  -11.0123 C.3     1  UNL1        0.1236
     14 C         -26.5941   -5.8032  -14.6296 C.ar    1  UNL1        0.0121
     15 C         -26.5048   -4.5766  -15.3411 C.ar    1  UNL1        0.0025
     16 C         -27.6630   -3.8767  -15.7215 C.ar    1  UNL1        0.0207
     17 C         -28.8933   -4.4273  -15.3823 C.ar    1  UNL1        0.0994
     18 N         -30.1149   -3.9337  -15.6533 N.ar    1  UNL1       -0.2241
     19 C         -30.9437   -4.8654  -15.1143 C.ar    1  UNL1        0.1750
     20 N         -30.2893   -5.8984  -14.5323 N.ar    1  UNL1       -0.3343
     21 C         -28.9935   -5.6064  -14.7081 C.ar    1  UNL1        0.0863
     22 C         -27.8719   -6.3374  -14.3101 C.ar    1  UNL1        0.0747
     23 CL        -28.0730   -7.8920  -13.5048 Cl      1  UNL1       -0.0807
     24 H         -30.7080   -6.7286  -14.0573 H       1  UNL1        0.1675
     25 C         -19.6860   -8.9052   -8.1950 C.ar    1  UNL1        0.0503
     26 C         -18.5658   -9.7539   -8.0803 C.ar    1  UNL1        0.0328
     27 C         -18.2987  -10.7266   -9.0514 C.ar    1  UNL1        0.1069
     28 C         -19.1552  -10.8668  -10.1468 C.ar    1  UNL1        0.0186
     29 C         -20.2730  -10.0432  -10.2720 C.ar    1  UNL1        0.0071
     30 C         -20.5576   -9.0754   -9.2982 C.ar    1  UNL1        0.0667
     31 S         -16.9003  -11.7821   -8.8761 S.O2    1  UNL1        0.0105
     32 C         -16.5176  -11.9693   -7.1498 C.3     1  UNL1        0.1816
     33 O         -17.1946  -13.1302   -9.4723 O.2     1  UNL1       -0.1686
     34 O         -15.7221  -11.1845   -9.5929 O.2     1  UNL1       -0.1686
     35 N         -19.9266   -7.8559   -7.2298 N.pl3   1  UNL1       -0.3325
     36 H         -20.6863   -7.1614   -7.4062 H       1  UNL1        0.1468
     37 C         -19.7556   -8.5956   -4.8957 C.3     1  UNL1        0.0229
     38 C         -19.1839   -7.6900   -5.9805 C.3     1  UNL1        0.0871
@<TRIPOS>BOND
     1    37    38    1
     2    38    35    1
     3    35    25    1
     4    25    26   ar
     5    26    27   ar
     6    27    31    1
     7    31    32    1
     8    31    33    2
     9    31    34    2
    10    27    28   ar
    11    28    29   ar
    12    29    30   ar
    13    30     1    1
    14     1     2    2
    15     1     3   am
    16     3     4    1
    17     4     5    1
    18     5     6    1
    19     6     7    1
    20     7     8   ar
    21     8     9   ar
    22     9    10   ar
    23    10    14    1
    24    14    15   ar
    25    15    16   ar
    26    16    17   ar
    27    17    18   ar
    28    18    19   ar
    29    19    20   ar
    30    20    21   ar
    31    21    22   ar
    32    22    23    1
    33    10    11   ar
    34    11    12   ar
    35    12    13    1
    36    30    25   ar
    37    13     3    1
    38    12     7   ar
    39    22    14   ar
    40    21    17   ar
    41    35    36    1
    42    20    24    1
@<TRIPOS>MOLECULE
*****
 38 42 0 0 0
SMALL
GASTEIGER

@<TRIPOS>ATOM
      1 C         -22.1304   -8.0922   -9.4955 C.2     1  UNL1        0.2506
      2 O         -22.9329   -7.9441   -8.5342 O.2     1  UNL1       -0.2699
      3 N         -22.3793   -7.4274  -10.7503 N.am    1  UNL1       -0.2680
      4 C         -21.2625   -6.8604  -11.5135 C.3     1  UNL1        0.1412
      5 C         -20.9259   -7.7603  -12.7004 C.3     1  UNL1        0.2268
      6 O         -22.0885   -8.4059  -13.2165 O.3     1  UNL1       -0.4739
      7 C         -23.2443   -7.7055  -13.5680 C.ar    1  UNL1        0.1362
      8 C         -23.6400   -7.7167  -14.9092 C.ar    1  UNL1        0.0366
      9 C         -24.7689   -7.0097  -15.3220 C.ar    1  UNL1        0.0031
     10 C         -25.5264   -6.2842  -14.3932 C.ar    1  UNL1        0.0008
     11 C         -25.1560   -6.3024  -13.0398 C.ar    1  UNL1        0.0004
     12 C         -24.0139   -7.0007  -12.6094 C.ar    1  UNL1        0.0317
     13 C         -23.7604   -7.0787  -11.1130 C.3     1  UNL1        0.1236
     14 C         -26.7385   -5.5520  -14.8228 C.ar    1  UNL1        0.0121
     15 C         -26.5906   -4.3506  -15.5667 C.ar    1  UNL1        0.0025
     16 C         -27.7147   -3.6175  -15.9851 C.ar    1  UNL1        0.0207
     17 C         -28.9706   -4.1100  -15.6504 C.ar    1  UNL1        0.0994
     18 N         -30.1677   -3.5774  -15.9547 N.ar    1  UNL1       -0.2241
     19 C         -31.0403   -4.4604  -15.4032 C.ar    1  UNL1        0.1750
     20 N         -30.4357   -5.5010  -14.7822 N.ar    1  UNL1       -0.3343
     21 C         -29.1270   -5.2646  -14.9453 C.ar    1  UNL1        0.0863
     22 C         -28.0410   -6.0269  -14.5090 C.ar    1  UNL1        0.0747
     23 CL        -28.3149   -7.5489  -13.6639 Cl      1  UNL1       -0.0807
     24 H         -30.8937   -6.3004  -14.2910 H       1  UNL1        0.1675
     25 C         -20.6955  -10.0755  -10.1140 C.ar    1  UNL1        0.0503
     26 C         -19.5037  -10.8034   -9.9189 C.ar    1  UNL1        0.0328
     27 C         -18.5895  -10.4326   -8.9254 C.ar    1  UNL1        0.1069
     28 C         -18.8540   -9.3224   -8.1188 C.ar    1  UNL1        0.0186
     29 C         -20.0224   -8.5847   -8.3033 C.ar    1  UNL1        0.0071
     30 C         -20.9380   -8.9389   -9.3044 C.ar    1  UNL1        0.0667
     31 S         -17.1026  -11.3514   -8.7128 S.O2    1  UNL1        0.0105
     32 C         -17.3698  -13.0309   -9.2318 C.3     1  UNL1        0.1816
     33 O         -15.9998  -10.7436   -9.5336 O.2     1  UNL1       -0.1686
     34 O         -16.6958  -11.3282   -7.2660 O.2     1  UNL1       -0.1686
     35 N         -21.6725  -10.4958  -11.0933 N.pl3   1  UNL1       -0.3325
     36 H         -22.5879   -9.9963  -11.1514 H       1  UNL1        0.1468
     37 C         -22.6916  -11.7253  -12.9573 C.3     1  UNL1        0.0229
     38 C         -21.4744  -11.5843  -12.0503 C.3     1  UNL1        0.0871
@<TRIPOS>BOND
     1    37    38    1
     2    38    35    1
     3    35    25    1
     4    25    26   ar
     5    26    27   ar
     6    27    31    1
     7    31    32    1
     8    31    33    2
     9    31    34    2
    10    27    28   ar
    11    28    29   ar
    12    29    30   ar
    13    30     1    1
    14     1     2    2
    15     1     3   am
    16     3     4    1
    17     4     5    1
    18     5     6    1
    19     6     7    1
    20     7     8   ar
    21     8     9   ar
    22     9    10   ar
    23    10    14    1
    24    14    15   ar
    25    15    16   ar
    26    16    17   ar
    27    17    18   ar
    28    18    19   ar
    29    19    20   ar
    30    20    21   ar
    31    21    22   ar
    32    22    23    1
    33    10    11   ar
    34    11    12   ar
    35    12    13    1
    36    30    25   ar
    37    13     3    1
    38    12     7   ar
    39    22    14   ar
    40    21    17   ar
    41    35    36    1
    42    20    24    1
@<TRIPOS>MOLECULE
*****
 38 42 0 0 0
SMALL
GASTEIGER

@<TRIPOS>ATOM
      1 C         -23.1823   -8.6003  -10.6531 C.2     1  UNL1        0.2506
      2 O         -24.3018   -9.1613  -10.5048 O.2     1  UNL1       -0.2699
      3 N         -22.8967   -7.8717  -11.8638 N.am    1  UNL1       -0.2680
      4 C         -22.1353   -6.6196  -11.8033 C.3     1  UNL1        0.1412
      5 C         -20.7009   -6.8531  -12.2722 C.3     1  UNL1        0.2268
      6 O         -20.6352   -7.8589  -13.2815 O.3     1  UNL1       -0.4739
      7 C         -21.4253   -7.8224  -14.4324 C.ar    1  UNL1        0.1362
      8 C         -20.7843   -7.6930  -15.6684 C.ar    1  UNL1        0.0366
      9 C         -21.5250   -7.6208  -16.8478 C.ar    1  UNL1        0.0031
     10 C         -22.9239   -7.6852  -16.8082 C.ar    1  UNL1        0.0008
     11 C         -23.5696   -7.8550  -15.5738 C.ar    1  UNL1        0.0004
     12 C         -22.8379   -7.9177  -14.3747 C.ar    1  UNL1        0.0317
     13 C         -23.6029   -8.2354  -13.1006 C.3     1  UNL1        0.1236
     14 C         -23.7127   -7.6329  -18.0592 C.ar    1  UNL1        0.0121
     15 C         -24.3703   -6.4231  -18.4092 C.ar    1  UNL1        0.0025
     16 C         -25.1392   -6.3327  -19.5826 C.ar    1  UNL1        0.0207
     17 C         -25.2290   -7.4628  -20.3868 C.ar    1  UNL1        0.0994
     18 N         -25.8979   -7.5923  -21.5467 N.ar    1  UNL1       -0.2241
     19 C         -25.6380   -8.8770  -21.9035 C.ar    1  UNL1        0.1750
     20 N         -24.8458   -9.5326  -21.0224 N.ar    1  UNL1       -0.3343
     21 C         -24.5969   -8.6261  -20.0677 C.ar    1  UNL1        0.0863
     22 C         -23.8219   -8.7634  -18.9138 C.ar    1  UNL1        0.0747
     23 CL        -22.9715  -10.2742  -18.5975 Cl      1  UNL1       -0.0807
     24 H         -24.5107  -10.5197  -21.0820 H       1  UNL1        0.1675
     25 C         -20.9126   -9.2701   -9.7731 C.ar    1  UNL1        0.0503
     26 C         -19.9888   -9.2685   -8.7078 C.ar    1  UNL1        0.0328
     27 C         -20.3325   -8.7362   -7.4593 C.ar    1  UNL1        0.1069
     28 C         -21.6045   -8.1912   -7.2639 C.ar    1  UNL1        0.0186
     29 C         -22.5278   -8.1752   -8.3082 C.ar    1  UNL1        0.0071
     30 C         -22.1893   -8.6929   -9.5665 C.ar    1  UNL1        0.0667
     31 S         -19.1546   -8.7348   -6.1505 S.O2    1  UNL1        0.0105
     32 C         -20.0050   -8.8576   -4.5938 C.3     1  UNL1        0.1816
     33 O         -18.2161   -9.8993   -6.3010 O.2     1  UNL1       -0.1686
     34 O         -18.3550   -7.4628   -6.1906 O.2     1  UNL1       -0.1686
     35 N         -20.5839   -9.8797  -11.0423 N.pl3   1  UNL1       -0.3325
     36 H         -20.2603   -9.2774  -11.8318 H       1  UNL1        0.1468
     37 C         -21.8619  -11.6338  -12.1887 C.3     1  UNL1        0.0229
     38 C         -20.6524  -11.3148  -11.3173 C.3     1  UNL1        0.0871
@<TRIPOS>BOND
     1    37    38    1
     2    38    35    1
     3    35    25    1
     4    25    26   ar
     5    26    27   ar
     6    27    31    1
     7    31    32    1
     8    31    33    2
     9    31    34    2
    10    27    28   ar
    11    28    29   ar
    12    29    30   ar
    13    30     1    1
    14     1     2    2
    15     1     3   am
    16     3     4    1
    17     4     5    1
    18     5     6    1
    19     6     7    1
    20     7     8   ar
    21     8     9   ar
    22     9    10   ar
    23    10    14    1
    24    14    15   ar
    25    15    16   ar
    26    16    17   ar
    27    17    18   ar
    28    18    19   ar
    29    19    20   ar
    30    20    21   ar
    31    21    22   ar
    32    22    23    1
    33    10    11   ar
    34    11    12   ar
    35    12    13    1
    36    30    25   ar
    37    13     3    1
    38    12     7   ar
    39    22    14   ar
    40    21    17   ar
    41    35    36    1
    42    20    24    1
@<TRIPOS>MOLECULE
*****
 38 42 0 0 0
SMALL
GASTEIGER

@<TRIPOS>ATOM
      1 C         -22.1231   -9.5772  -13.2652 C.2     1  UNL1        0.2506
      2 O         -21.8558   -9.8699  -14.4622 O.2     1  UNL1       -0.2699
      3 N         -23.3977   -8.9902  -12.9348 N.am    1  UNL1       -0.2680
      4 C         -24.0876   -9.3827  -11.7014 C.3     1  UNL1        0.1412
      5 C         -23.9433   -8.2877  -10.6468 C.3     1  UNL1        0.2268
      6 O         -23.8980   -6.9908  -11.2389 O.3     1  UNL1       -0.4739
      7 C         -24.8630   -6.5425  -12.1432 C.ar    1  UNL1        0.1362
      8 C         -25.6569   -5.4522  -11.7739 C.ar    1  UNL1        0.0366
      9 C         -26.6563   -4.9814  -12.6249 C.ar    1  UNL1        0.0031
     10 C         -26.8718   -5.5926  -13.8670 C.ar    1  UNL1        0.0008
     11 C         -26.0514   -6.6616  -14.2587 C.ar    1  UNL1        0.0004
     12 C         -25.0473   -7.1556  -13.4073 C.ar    1  UNL1        0.0317
     13 C         -24.1198   -8.2246  -13.9610 C.3     1  UNL1        0.1236
     14 C         -27.9153   -5.0812  -14.7833 C.ar    1  UNL1        0.0121
     15 C         -29.2371   -5.5908  -14.6752 C.ar    1  UNL1        0.0025
     16 C         -30.2565   -5.1414  -15.5327 C.ar    1  UNL1        0.0207
     17 C         -29.9274   -4.1817  -16.4828 C.ar    1  UNL1        0.0994
     18 N         -30.7425   -3.6119  -17.3886 N.ar    1  UNL1       -0.2241
     19 C         -29.9168   -2.7512  -18.0387 C.ar    1  UNL1        0.1750
     20 N         -28.6449   -2.7678  -17.5741 N.ar    1  UNL1       -0.3343
     21 C         -28.6666   -3.6786  -16.5917 C.ar    1  UNL1        0.0863
     22 C         -27.6221   -4.0934  -15.7624 C.ar    1  UNL1        0.0747
     23 CL        -26.0315   -3.3489  -15.9083 Cl      1  UNL1       -0.0807
     24 H         -27.8381   -2.1972  -17.9113 H       1  UNL1        0.1675
     25 C         -20.4967   -8.8199  -11.4887 C.ar    1  UNL1        0.0503
     26 C         -19.5940   -9.1634  -10.4613 C.ar    1  UNL1        0.0328
     27 C         -19.2926  -10.5030  -10.1877 C.ar    1  UNL1        0.1069
     28 C         -19.8978  -11.5169  -10.9351 C.ar    1  UNL1        0.0186
     29 C         -20.8003  -11.1970  -11.9483 C.ar    1  UNL1        0.0071
     30 C         -21.1199   -9.8594  -12.2215 C.ar    1  UNL1        0.0667
     31 S         -18.1720  -10.9038   -8.8899 S.O2    1  UNL1        0.0105
     32 C         -18.5341   -9.8984   -7.4688 C.3     1  UNL1        0.1816
     33 O         -18.3067  -12.3553   -8.5232 O.2     1  UNL1       -0.1686
     34 O         -16.7615  -10.6496   -9.3426 O.2     1  UNL1       -0.1686
     35 N         -20.7581   -7.4365  -11.8180 N.pl3   1  UNL1       -0.3325
     36 H         -20.9755   -7.1770  -12.8060 H       1  UNL1        0.1468
     37 C         -21.3767   -5.0874  -11.4669 C.3     1  UNL1        0.0229
     38 C         -20.7604   -6.3386  -10.8514 C.3     1  UNL1        0.0871
@<TRIPOS>BOND
     1    37    38    1
     2    38    35    1
     3    35    25    1
     4    25    26   ar
     5    26    27   ar
     6    27    31    1
     7    31    32    1
     8    31    33    2
     9    31    34    2
    10    27    28   ar
    11    28    29   ar
    12    29    30   ar
    13    30     1    1
    14     1     2    2
    15     1     3   am
    16     3     4    1
    17     4     5    1
    18     5     6    1
    19     6     7    1
    20     7     8   ar
    21     8     9   ar
    22     9    10   ar
    23    10    14    1
    24    14    15   ar
    25    15    16   ar
    26    16    17   ar
    27    17    18   ar
    28    18    19   ar
    29    19    20   ar
    30    20    21   ar
    31    21    22   ar
    32    22    23    1
    33    10    11   ar
    34    11    12   ar
    35    12    13    1
    36    30    25   ar
    37    13     3    1
    38    12     7   ar
    39    22    14   ar
    40    21    17   ar
    41    35    36    1
    42    20    24    1
@<TRIPOS>MOLECULE
*****
 38 42 0 0 0
SMALL
GASTEIGER

@<TRIPOS>ATOM
      1 C         -22.2216   -8.0653   -9.5954 C.2     1  UNL1        0.2506
      2 O         -23.0290   -7.9189   -8.6379 O.2     1  UNL1       -0.2699
      3 N         -22.4647   -7.3992  -10.8505 N.am    1  UNL1       -0.2680
      4 C         -21.3445   -6.8305  -11.6075 C.3     1  UNL1        0.1412
      5 C         -21.0014   -7.7287  -12.7938 C.3     1  UNL1        0.2268
      6 O         -22.1610   -8.3744  -13.3165 O.3     1  UNL1       -0.4739
      7 C         -23.3155   -7.6744  -13.6729 C.ar    1  UNL1        0.1362
      8 C         -23.7045   -7.6842  -15.0160 C.ar    1  UNL1        0.0366
      9 C         -24.8318   -6.9774  -15.4335 C.ar    1  UNL1        0.0031
     10 C         -25.5945   -6.2536  -14.5077 C.ar    1  UNL1        0.0008
     11 C         -25.2308   -6.2732  -13.1525 C.ar    1  UNL1        0.0004
     12 C         -24.0903   -6.9712  -12.7173 C.ar    1  UNL1        0.0317
     13 C         -23.8443   -7.0509  -11.2197 C.3     1  UNL1        0.1236
     14 C         -26.8050   -5.5217  -14.9424 C.ar    1  UNL1        0.0121
     15 C         -28.0383   -5.7776  -14.2851 C.ar    1  UNL1        0.0025
     16 C         -29.2147   -5.1132  -14.6733 C.ar    1  UNL1        0.0207
     17 C         -29.1278   -4.1978  -15.7156 C.ar    1  UNL1        0.0994
     18 N         -30.1188   -3.4518  -16.2361 N.ar    1  UNL1       -0.2241
     19 C         -29.4842   -2.7379  -17.2019 C.ar    1  UNL1        0.1750
     20 N         -28.1608   -3.0103  -17.2935 N.ar    1  UNL1       -0.3343
     21 C         -27.9506   -3.9367  -16.3486 C.ar    1  UNL1        0.0863
     22 C         -26.7566   -4.5708  -15.9978 C.ar    1  UNL1        0.0747
     23 CL        -25.2545   -4.1333  -16.8090 Cl      1  UNL1       -0.0807
     24 H         -27.4699   -2.5892  -17.9535 H       1  UNL1        0.1675
     25 C         -20.7857  -10.0505  -10.2048 C.ar    1  UNL1        0.0503
     26 C         -19.5942  -10.7779  -10.0053 C.ar    1  UNL1        0.0328
     27 C         -18.6819  -10.4039   -9.0112 C.ar    1  UNL1        0.1069
     28 C         -18.9478   -9.2912   -8.2086 C.ar    1  UNL1        0.0186
     29 C         -20.1159   -8.5541   -8.3977 C.ar    1  UNL1        0.0071
     30 C         -21.0296   -8.9114   -9.3994 C.ar    1  UNL1        0.0667
     31 S         -17.1954  -11.3221   -8.7929 S.O2    1  UNL1        0.0105
     32 C         -17.4429  -12.9869   -9.3664 C.3     1  UNL1        0.1816
     33 O         -16.0780  -10.6858   -9.5714 O.2     1  UNL1       -0.1686
     34 O         -16.8204  -11.3395   -7.3376 O.2     1  UNL1       -0.1686
     35 N         -21.7609  -10.4740  -11.1847 N.pl3   1  UNL1       -0.3325
     36 H         -22.6654   -9.9580  -11.2639 H       1  UNL1        0.1468
     37 C         -22.7882  -11.7298  -13.0264 C.3     1  UNL1        0.0229
     38 C         -21.5748  -11.5879  -12.1144 C.3     1  UNL1        0.0871
@<TRIPOS>BOND
     1    37    38    1
     2    38    35    1
     3    35    25    1
     4    25    26   ar
     5    26    27   ar
     6    27    31    1
     7    31    32    1
     8    31    33    2
     9    31    34    2
    10    27    28   ar
    11    28    29   ar
    12    29    30   ar
    13    30     1    1
    14     1     2    2
    15     1     3   am
    16     3     4    1
    17     4     5    1
    18     5     6    1
    19     6     7    1
    20     7     8   ar
    21     8     9   ar
    22     9    10   ar
    23    10    14    1
    24    14    15   ar
    25    15    16   ar
    26    16    17   ar
    27    17    18   ar
    28    18    19   ar
    29    19    20   ar
    30    20    21   ar
    31    21    22   ar
    32    22    23    1
    33    10    11   ar
    34    11    12   ar
    35    12    13    1
    36    30    25   ar
    37    13     3    1
    38    12     7   ar
    39    22    14   ar
    40    21    17   ar
    41    35    36    1
    42    20    24    1
@<TRIPOS>MOLECULE
*****
 38 42 0 0 0
SMALL
GASTEIGER

@<TRIPOS>ATOM
      1 C         -21.8602   -8.3568   -9.4419 C.2     1  UNL1        0.2506
      2 O         -22.6475   -8.3005   -8.4586 O.2     1  UNL1       -0.2699
      3 N         -22.1807   -7.6587  -10.6619 N.am    1  UNL1       -0.2680
      4 C         -21.1208   -6.9897  -11.4236 C.3     1  UNL1        0.1412
      5 C         -20.7555   -7.8165  -12.6544 C.3     1  UNL1        0.2268
      6 O         -21.8863   -8.5144  -13.1729 O.3     1  UNL1       -0.4739
      7 C         -23.0925   -7.8767  -13.4701 C.ar    1  UNL1        0.1362
      8 C         -23.5183   -7.8586  -14.8019 C.ar    1  UNL1        0.0366
      9 C         -24.6995   -7.2100  -15.1607 C.ar    1  UNL1        0.0031
     10 C         -25.4797   -6.5738  -14.1863 C.ar    1  UNL1        0.0008
     11 C         -25.0770   -6.6234  -12.8430 C.ar    1  UNL1        0.0004
     12 C         -23.8827   -7.2631  -12.4666 C.ar    1  UNL1        0.0317
     13 C         -23.5895   -7.3857  -10.9804 C.3     1  UNL1        0.1236
     14 C         -26.7460   -5.9048  -14.5590 C.ar    1  UNL1        0.0121
     15 C         -27.9671   -6.3912  -14.0196 C.ar    1  UNL1        0.0025
     16 C         -29.1939   -5.7928  -14.3558 C.ar    1  UNL1        0.0207
     17 C         -29.1694   -4.7104  -15.2273 C.ar    1  UNL1        0.0994
     18 N         -30.2160   -3.9909  -15.6704 N.ar    1  UNL1       -0.2241
     19 C         -29.6283   -3.0636  -16.4704 C.ar    1  UNL1        0.1750
     20 N         -28.2808   -3.1818  -16.5345 N.ar    1  UNL1       -0.3343
     21 C         -28.0054   -4.2286  -15.7449 C.ar    1  UNL1        0.0863
     22 C         -26.7631   -4.7892  -15.4397 C.ar    1  UNL1        0.0747
     23 CL        -25.2892   -4.0717  -16.0863 Cl      1  UNL1       -0.0807
     24 H         -27.6163   -2.5877  -17.0784 H       1  UNL1        0.1675
     25 C         -19.7474   -8.9678   -8.2021 C.ar    1  UNL1        0.0503
     26 C         -18.6030   -9.7864   -8.1093 C.ar    1  UNL1        0.0328
     27 C         -18.3060  -10.7223   -9.1073 C.ar    1  UNL1        0.1069
     28 C         -19.1563  -10.8559  -10.2083 C.ar    1  UNL1        0.0186
     29 C         -20.2976  -10.0620  -10.3125 C.ar    1  UNL1        0.0071
     30 C         -20.6119   -9.1314   -9.3119 C.ar    1  UNL1        0.0667
     31 S         -16.8776  -11.7412   -8.9591 S.O2    1  UNL1        0.0105
     32 C         -16.5463  -12.0427   -7.2384 C.3     1  UNL1        0.1816
     33 O         -17.1037  -13.0505   -9.6619 O.2     1  UNL1       -0.1686
     34 O         -15.6981  -11.0537   -9.5878 O.2     1  UNL1       -0.1686
     35 N         -20.0201   -7.9543   -7.2077 N.pl3   1  UNL1       -0.3325
     36 H         -20.8512   -7.3326   -7.3239 H       1  UNL1        0.1468
     37 C         -19.7591   -8.5469   -4.8402 C.3     1  UNL1        0.0229
     38 C         -19.2151   -7.7305   -6.0070 C.3     1  UNL1        0.0871
@<TRIPOS>BOND
     1    37    38    1
     2    38    35    1
     3    35    25    1
     4    25    26   ar
     5    26    27   ar
     6    27    31    1
     7    31    32    1
     8    31    33    2
     9    31    34    2
    10    27    28   ar
    11    28    29   ar
    12    29    30   ar
    13    30     1    1
    14     1     2    2
    15     1     3   am
    16     3     4    1
    17     4     5    1
    18     5     6    1
    19     6     7    1
    20     7     8   ar
    21     8     9   ar
    22     9    10   ar
    23    10    14    1
    24    14    15   ar
    25    15    16   ar
    26    16    17   ar
    27    17    18   ar
    28    18    19   ar
    29    19    20   ar
    30    20    21   ar
    31    21    22   ar
    32    22    23    1
    33    10    11   ar
    34    11    12   ar
    35    12    13    1
    36    30    25   ar
    37    13     3    1
    38    12     7   ar
    39    22    14   ar
    40    21    17   ar
    41    35    36    1
    42    20    24    1
@<TRIPOS>MOLECULE
*****
 38 42 0 0 0
SMALL
GASTEIGER

@<TRIPOS>ATOM
      1 C         -21.7226  -10.9974  -12.7535 C.2     1  UNL1        0.2506
      2 O         -21.6648  -11.4367  -13.9341 O.2     1  UNL1       -0.2699
      3 N         -22.8378  -10.1816  -12.3425 N.am    1  UNL1       -0.2680
      4 C         -23.4087  -10.3426  -11.0010 C.3     1  UNL1        0.1412
      5 C         -22.9607   -9.1959  -10.0977 C.3     1  UNL1        0.2268
      6 O         -22.7985   -7.9826  -10.8302 O.3     1  UNL1       -0.4739
      7 C         -23.7962   -7.4651  -11.6588 C.ar    1  UNL1        0.1362
      8 C         -24.3591   -6.2304  -11.3213 C.ar    1  UNL1        0.0366
      9 C         -25.3800   -5.6804  -12.0958 C.ar    1  UNL1        0.0031
     10 C         -25.8494   -6.3571  -13.2292 C.ar    1  UNL1        0.0008
     11 C         -25.2603   -7.5773  -13.5943 C.ar    1  UNL1        0.0004
     12 C         -24.2382   -8.1509  -12.8174 C.ar    1  UNL1        0.0317
     13 C         -23.5658   -9.4034  -13.3550 C.3     1  UNL1        0.1236
     14 C         -26.9160   -5.7658  -14.0674 C.ar    1  UNL1        0.0121
     15 C         -26.5963   -4.6783  -14.9238 C.ar    1  UNL1        0.0025
     16 C         -27.5811   -4.0793  -15.7286 C.ar    1  UNL1        0.0207
     17 C         -28.8721   -4.5898  -15.6601 C.ar    1  UNL1        0.0994
     18 N         -29.9542   -4.1766  -16.3441 N.ar    1  UNL1       -0.2241
     19 C         -30.9266   -5.0193  -15.9089 C.ar    1  UNL1        0.1750
     20 N         -30.4911   -5.9225  -14.9986 N.ar    1  UNL1       -0.3343
     21 C         -29.1905   -5.6372  -14.8501 C.ar    1  UNL1        0.0863
     22 C         -28.2466   -6.2646  -14.0337 C.ar    1  UNL1        0.0747
     23 CL        -28.7091   -7.6615  -13.0640 Cl      1  UNL1       -0.0807
     24 H         -31.0494   -6.6675  -14.5259 H       1  UNL1        0.1675
     25 C         -20.0073  -10.3630  -11.0128 C.ar    1  UNL1        0.0503
     26 C         -19.0277  -10.7742  -10.0857 C.ar    1  UNL1        0.0328
     27 C         -18.6655  -12.1220   -9.9733 C.ar    1  UNL1        0.1069
     28 C         -19.2857  -13.0770  -10.7835 C.ar    1  UNL1        0.0186
     29 C         -20.2634  -12.6905  -11.6991 C.ar    1  UNL1        0.0071
     30 C         -20.6437  -11.3455  -11.8100 C.ar    1  UNL1        0.0667
     31 S         -17.4488  -12.6094   -8.7975 S.O2    1  UNL1        0.0105
     32 C         -17.3608  -11.3930   -7.5037 C.3     1  UNL1        0.1816
     33 O         -17.8095  -13.9435   -8.2061 O.2     1  UNL1       -0.1686
     34 O         -16.1111  -12.7269   -9.4725 O.2     1  UNL1       -0.1686
     35 N         -20.3348   -8.9645  -11.1784 N.pl3   1  UNL1       -0.3325
     36 H         -21.1343   -8.5583  -10.6431 H       1  UNL1        0.1468
     37 C         -20.5631   -7.3614  -13.0230 C.3     1  UNL1        0.0229
     38 C         -19.6080   -8.0381  -12.0463 C.3     1  UNL1        0.0871
@<TRIPOS>BOND
     1    37    38    1
     2    38    35    1
     3    35    25    1
     4    25    26   ar
     5    26    27   ar
     6    27    31    1
     7    31    32    1
     8    31    33    2
     9    31    34    2
    10    27    28   ar
    11    28    29   ar
    12    29    30   ar
    13    30     1    1
    14     1     2    2
    15     1     3   am
    16     3     4    1
    17     4     5    1
    18     5     6    1
    19     6     7    1
    20     7     8   ar
    21     8     9   ar
    22     9    10   ar
    23    10    14    1
    24    14    15   ar
    25    15    16   ar
    26    16    17   ar
    27    17    18   ar
    28    18    19   ar
    29    19    20   ar
    30    20    21   ar
    31    21    22   ar
    32    22    23    1
    33    10    11   ar
    34    11    12   ar
    35    12    13    1
    36    30    25   ar
    37    13     3    1
    38    12     7   ar
    39    22    14   ar
    40    21    17   ar
    41    35    36    1
    42    20    24    1
@<TRIPOS>MOLECULE
*****
 38 42 0 0 0
SMALL
GASTEIGER

@<TRIPOS>ATOM
      1 C         -22.4370   -9.3922  -11.3197 C.2     1  UNL1        0.2506
      2 O         -23.5238   -9.4593  -10.6838 O.2     1  UNL1       -0.2699
      3 N         -22.2932   -8.4514  -12.4026 N.am    1  UNL1       -0.2680
      4 C         -21.0250   -7.7390  -12.5910 C.3     1  UNL1        0.1412
      5 C         -20.2502   -8.3444  -13.7594 C.3     1  UNL1        0.2268
      6 O         -21.1262   -8.8362  -14.7720 O.3     1  UNL1       -0.4739
      7 C         -22.1403   -8.0571  -15.3328 C.ar    1  UNL1        0.1362
      8 C         -22.0606   -7.7518  -16.6951 C.ar    1  UNL1        0.0366
      9 C         -23.0293   -6.9525  -17.3012 C.ar    1  UNL1        0.0031
     10 C         -24.1012   -6.4511  -16.5513 C.ar    1  UNL1        0.0008
     11 C         -24.2069   -6.7875  -15.1930 C.ar    1  UNL1        0.0004
     12 C         -23.2322   -7.5826  -14.5644 C.ar    1  UNL1        0.0317
     13 C         -23.4920   -8.0086  -13.1289 C.3     1  UNL1        0.1236
     14 C         -25.1442   -5.6222  -17.1956 C.ar    1  UNL1        0.0121
     15 C         -25.1865   -5.5474  -18.6138 C.ar    1  UNL1        0.0025
     16 C         -26.1532   -4.7630  -19.2668 C.ar    1  UNL1        0.0207
     17 C         -27.0648   -4.0699  -18.4792 C.ar    1  UNL1        0.0994
     18 N         -28.0683   -3.2756  -18.8933 N.ar    1  UNL1       -0.2241
     19 C         -28.6390   -2.8768  -17.7269 C.ar    1  UNL1        0.1750
     20 N         -28.0358   -3.3885  -16.6277 N.ar    1  UNL1       -0.3343
     21 C         -27.0409   -4.1394  -17.1193 C.ar    1  UNL1        0.0863
     22 C         -26.1007   -4.9053  -16.4264 C.ar    1  UNL1        0.0747
     23 CL        -26.1709   -5.0092  -14.6686 Cl      1  UNL1       -0.0807
     24 H         -28.2943   -3.2284  -15.6289 H       1  UNL1        0.1675
     25 C         -21.1422  -11.5507  -11.5171 C.ar    1  UNL1        0.0503
     26 C         -20.0213  -12.3180  -11.1390 C.ar    1  UNL1        0.0328
     27 C         -19.1207  -11.8482  -10.1753 C.ar    1  UNL1        0.1069
     28 C         -19.3272  -10.5993   -9.5832 C.ar    1  UNL1        0.0186
     29 C         -20.4245   -9.8223   -9.9514 C.ar    1  UNL1        0.0071
     30 C         -21.3248  -10.2769  -10.9253 C.ar    1  UNL1        0.0667
     31 S         -17.7218  -12.8214   -9.7320 S.O2    1  UNL1        0.0105
     32 C         -16.3970  -11.7498   -9.2241 C.3     1  UNL1        0.1816
     33 O         -18.0762  -13.7483   -8.6030 O.2     1  UNL1       -0.1686
     34 O         -17.2829  -13.6435  -10.9112 O.2     1  UNL1       -0.1686
     35 N         -22.1099  -12.0621  -12.4617 N.pl3   1  UNL1       -0.3325
     36 H         -23.0467  -12.3716  -12.1191 H       1  UNL1        0.1468
     37 C         -23.1286  -11.7290  -14.6698 C.3     1  UNL1        0.0229
     38 C         -21.8869  -12.1703  -13.9033 C.3     1  UNL1        0.0871
@<TRIPOS>BOND
     1    37    38    1
     2    38    35    1
     3    35    25    1
     4    25    26   ar
     5    26    27   ar
     6    27    31    1
     7    31    32    1
     8    31    33    2
     9    31    34    2
    10    27    28   ar
    11    28    29   ar
    12    29    30   ar
    13    30     1    1
    14     1     2    2
    15     1     3   am
    16     3     4    1
    17     4     5    1
    18     5     6    1
    19     6     7    1
    20     7     8   ar
    21     8     9   ar
    22     9    10   ar
    23    10    14    1
    24    14    15   ar
    25    15    16   ar
    26    16    17   ar
    27    17    18   ar
    28    18    19   ar
    29    19    20   ar
    30    20    21   ar
    31    21    22   ar
    32    22    23    1
    33    10    11   ar
    34    11    12   ar
    35    12    13    1
    36    30    25   ar
    37    13     3    1
    38    12     7   ar
    39    22    14   ar
    40    21    17   ar
    41    35    36    1
    42    20    24    1
