@<TRIPOS>MOLECULE
*****
 76 78 0 0 0
SMALL
GASTEIGER

@<TRIPOS>ATOM
      1 C         -28.7406   50.2731   -8.9186 C.ar    1  UNL1        0.1694
      2 C         -28.3622   50.1455   -7.5606 C.ar    1  UNL1        0.1811
      3 C         -27.0416   50.4233   -7.1877 C.ar    1  UNL1        0.1358
      4 C         -26.0813   50.7638   -8.1337 C.ar    1  UNL1        0.2879
      5 O         -24.8393   50.9678   -7.7195 O.3     1  UNL1       -0.5462
      6 C         -23.8509   51.3238   -8.5252 C.ar    1  UNL1        0.2910
      7 C         -22.5826   51.5106   -7.9810 C.ar    1  UNL1        0.1326
      8 C         -21.5037   51.9061   -8.7854 C.ar    1  UNL1        0.1469
      9 C         -21.7164   52.1471  -10.1571 C.ar    1  UNL1        0.0504
     10 C         -23.0021   51.9701  -10.7175 C.ar    1  UNL1        0.1441
     11 O         -23.1751   52.3191  -12.0621 O.3     1  UNL1       -0.5053
     12 C         -24.0749   51.5000   -9.9055 C.ar    1  UNL1        0.1601
     13 C         -25.3573   51.1616  -10.4021 C.2     1  UNL1        0.2146
     14 O         -25.5299   51.0418  -11.6423 O.2     1  UNL1       -0.2859
     15 C         -26.4187   50.8742   -9.4997 C.ar    1  UNL1        0.1263
     16 C         -27.7846   50.6821   -9.8853 C.ar    1  UNL1        0.0304
     17 H         -24.0596   52.5893  -12.4682 H       1  UNL1        0.2922
     18 H         -24.6507   50.8542   -6.8087 H       1  UNL1        0.5634
     19 C         -30.6011   48.7201   -9.6768 C.3     1  UNL1        0.2526
     20 O         -30.0476   49.9959   -9.3735 O.3     1  UNL1       -0.4687
     21 O         -20.2119   52.0775   -8.2552 O.3     1  UNL1       -0.4655
     22 C         -19.8950   52.7403   -7.0316 C.3     1  UNL1        0.2893
     23 C         -19.4056   54.1328   -7.2967 C.2     1  UNL1        0.2673
     24 O         -18.2450   54.3023   -7.7595 O.2     1  UNL1       -0.2711
     25 N         -20.2434   55.2614   -7.0062 N.am    1  UNL1       -0.2953
     26 H         -21.1769   55.0761   -6.5743 H       1  UNL1        0.1499
     27 C         -19.9238   56.6138   -7.4829 C.3     1  UNL1        0.1485
     28 C         -20.1076   56.7334   -8.9762 C.2     1  UNL1        0.2372
     29 N         -20.0142   58.0113   -9.6058 N.am    1  UNL1       -0.3275
     30 O         -20.2950   55.7080   -9.6856 O.2     1  UNL1       -0.2736
     31 H         -20.1203   58.0974  -10.6410 H       1  UNL1        0.1450
     32 H         -19.8269   58.8707   -9.0434 H       1  UNL1        0.1450
     33 C         -18.5038   57.0289   -7.0383 C.3     1  UNL1        0.0325
     34 C         -18.4292   58.3868   -6.3065 C.3     1  UNL1        0.0450
     35 C         -18.5683   59.5808   -7.2612 C.3     1  UNL1        0.1740
     36 N         -19.3779   60.6377   -6.6553 N.pl3   1  UNL1       -0.2625
     37 H         -19.5388   61.5248   -7.1844 H       1  UNL1        0.2587
     38 C         -19.9993   60.4999   -5.3687 C.cat   1  UNL1        0.3769
     39 N         -19.4992   61.1344   -4.3565 N.pl3   1  UNL1       -0.1298
     40 N         -21.1593   59.6770   -5.1896 N.pl3   1  UNL1       -0.2892
     41 H         -19.9162   61.0650   -3.4015 H       1  UNL1        0.3062
     42 H         -21.6031   59.5849   -4.2488 H       1  UNL1        0.2546
     43 H         -21.5882   59.1520   -5.9821 H       1  UNL1        0.2546
     44 C         -20.5715   52.6129  -11.0338 C.3     1  UNL1        0.0578
     45 C         -19.2488   52.2981  -10.3773 C.2     1  UNL1       -0.0297
     46 C         -18.0953   52.0424  -11.0338 C.2     1  UNL1       -0.0475
     47 C         -18.0124   52.0270  -12.5410 C.3     1  UNL1        0.0260
     48 C         -16.8553   51.7689  -10.2220 C.3     1  UNL1        0.0260
     49 O         -29.3093   49.7524   -6.5997 O.3     1  UNL1       -0.4623
     50 C         -29.5301   50.3899   -5.3413 C.3     1  UNL1        0.2895
     51 C         -29.8393   49.3615   -4.2953 C.2     1  UNL1        0.2673
     52 O         -31.0334   49.2030   -3.9234 O.2     1  UNL1       -0.2711
     53 N         -28.7984   48.5324   -3.7607 N.am    1  UNL1       -0.2953
     54 H         -27.8103   48.7789   -3.9916 H       1  UNL1        0.1499
     55 C         -29.0704   47.1928   -3.2338 C.3     1  UNL1        0.1485
     56 C         -28.6038   47.1075   -1.8019 C.2     1  UNL1        0.2372
     57 N         -28.6939   48.2433   -0.9411 N.am    1  UNL1       -0.3275
     58 O         -28.1418   46.0239   -1.3524 O.2     1  UNL1       -0.2736
     59 H         -29.0850   49.1482   -1.2846 H       1  UNL1        0.1450
     60 H         -28.3735   48.1775    0.0505 H       1  UNL1        0.1450
     61 C         -28.3607   46.1480   -4.1141 C.3     1  UNL1        0.0325
     62 C         -27.0924   46.7034   -4.7784 C.3     1  UNL1        0.0450
     63 C         -25.9724   45.6553   -4.8141 C.3     1  UNL1        0.1740
     64 N         -26.0071   44.7973   -3.6277 N.pl3   1  UNL1       -0.2625
     65 H         -26.5851   43.9263   -3.6300 H       1  UNL1        0.2587
     66 C         -25.2000   45.0672   -2.4748 C.cat   1  UNL1        0.3769
     67 N         -24.1135   45.7647   -2.5868 N.pl3   1  UNL1       -0.1298
     68 N         -25.5967   44.5564   -1.2001 N.pl3   1  UNL1       -0.2892
     69 H         -23.5073   45.9735   -1.7632 H       1  UNL1        0.3062
     70 H         -25.0147   44.7223   -0.3503 H       1  UNL1        0.2546
     71 H         -26.4795   44.0084   -1.1017 H       1  UNL1        0.2546
     72 C         -28.2673   50.8973  -11.3119 C.3     1  UNL1        0.0552
     73 C         -29.0224   52.1992  -11.4344 C.2     1  UNL1       -0.0298
     74 C         -30.2113   52.3079  -12.0634 C.2     1  UNL1       -0.0475
     75 C         -30.8805   51.1133  -12.7003 C.3     1  UNL1        0.0260
     76 C         -30.8778   53.6577  -12.1217 C.3     1  UNL1        0.0260
@<TRIPOS>BOND
     1    19    20    1
     2    20     1    1
     3     1     2   ar
     4     2    49    1
     5    49    50    1
     6    50    51    1
     7    51    52    2
     8    51    53   am
     9    53    55    1
    10    55    61    1
    11    61    62    1
    12    62    63    1
    13    63    64    1
    14    64    66    1
    15    66    67    2
    16    66    68    1
    17    55    56    1
    18    56    57   am
    19    56    58    2
    20     2     3   ar
    21     3     4   ar
    22     4     5    1
    23     5     6    1
    24     6     7   ar
    25     7     8   ar
    26     8    21    1
    27    21    22    1
    28    22    23    1
    29    23    24    2
    30    23    25   am
    31    25    27    1
    32    27    33    1
    33    33    34    1
    34    34    35    1
    35    35    36    1
    36    36    38    1
    37    38    39    2
    38    38    40    1
    39    27    28    1
    40    28    29   am
    41    28    30    2
    42     8     9   ar
    43     9    44    1
    44    44    45    1
    45    45    46    2
    46    46    47    1
    47    46    48    1
    48     9    10   ar
    49    10    11    1
    50    10    12   ar
    51    12    13    1
    52    13    14    2
    53    13    15    1
    54    15    16   ar
    55    16    72    1
    56    72    73    1
    57    73    74    2
    58    74    75    1
    59    74    76    1
    60    16     1   ar
    61    15     4   ar
    62    12     6   ar
    63    53    54    1
    64    64    65    1
    65    67    69    1
    66    68    70    1
    67    68    71    1
    68    57    59    1
    69    57    60    1
    70    25    26    1
    71    36    37    1
    72    39    41    1
    73    40    42    1
    74    40    43    1
    75    29    31    1
    76    29    32    1
    77    11    17    1
    78     5    18    1
@<TRIPOS>MOLECULE
*****
 76 78 0 0 0
SMALL
GASTEIGER

@<TRIPOS>ATOM
      1 C         -29.0789   50.7058   -9.0616 C.ar    1  UNL1        0.1694
      2 C         -28.7272   50.6092   -7.6939 C.ar    1  UNL1        0.1811
      3 C         -27.3949   50.8086   -7.3128 C.ar    1  UNL1        0.1358
      4 C         -26.4013   51.0404   -8.2573 C.ar    1  UNL1        0.2879
      5 O         -25.1531   51.1735   -7.8329 O.3     1  UNL1       -0.5462
      6 C         -24.1322   51.4246   -8.6375 C.ar    1  UNL1        0.2910
      7 C         -22.8605   51.5442   -8.0821 C.ar    1  UNL1        0.1326
      8 C         -21.7464   51.8284   -8.8856 C.ar    1  UNL1        0.1469
      9 C         -21.9246   52.0259  -10.2692 C.ar    1  UNL1        0.0504
     10 C         -23.2127   51.9165  -10.8413 C.ar    1  UNL1        0.1441
     11 O         -23.3440   52.2199  -12.2017 O.3     1  UNL1       -0.5053
     12 C         -24.3261   51.5579  -10.0271 C.ar    1  UNL1        0.1601
     13 C         -25.6231   51.2901  -10.5288 C.2     1  UNL1        0.2146
     14 O         -25.7885   51.1307  -11.7655 O.2     1  UNL1       -0.2859
     15 C         -26.7133   51.1166   -9.6316 C.ar    1  UNL1        0.1263
     16 C         -28.0845   51.0053  -10.0297 C.ar    1  UNL1        0.0304
     17 H         -24.2019   52.5344  -12.6319 H       1  UNL1        0.2922
     18 H         -24.9843   51.0853   -6.9155 H       1  UNL1        0.5634
     19 C         -31.1444   49.2920   -9.4894 C.3     1  UNL1        0.2526
     20 O         -30.3967   50.5026   -9.5246 O.3     1  UNL1       -0.4687
     21 O         -20.4524   51.9304   -8.3434 O.3     1  UNL1       -0.4655
     22 C         -20.1189   52.5275   -7.0906 C.3     1  UNL1        0.2893
     23 C         -19.5052   53.8801   -7.2969 C.2     1  UNL1        0.2673
     24 O         -18.3125   53.9628   -7.6978 O.2     1  UNL1       -0.2711
     25 N         -20.2622   55.0676   -7.0203 N.am    1  UNL1       -0.2953
     26 H         -21.2284   54.9511   -6.6395 H       1  UNL1        0.1499
     27 C         -19.8099   56.3986   -7.4473 C.3     1  UNL1        0.1485
     28 C         -20.0148   56.6054   -8.9282 C.2     1  UNL1        0.2372
     29 N         -20.0460   57.9276   -9.4657 N.am    1  UNL1       -0.3275
     30 O         -20.1106   55.6196   -9.7084 O.2     1  UNL1       -0.2736
     31 H         -20.1671   58.0762  -10.4921 H       1  UNL1        0.1450
     32 H         -19.9358   58.7590   -8.8439 H       1  UNL1        0.1450
     33 C         -18.3434   56.6390   -7.0256 C.3     1  UNL1        0.0325
     34 C         -18.1106   57.9307   -6.2116 C.3     1  UNL1        0.0450
     35 C         -18.9349   59.1153   -6.7348 C.3     1  UNL1        0.1740
     36 N         -19.0727   60.1459   -5.7059 N.pl3   1  UNL1       -0.2625
     37 H         -18.2504   60.7476   -5.4725 H       1  UNL1        0.2587
     38 C         -20.3073   60.3976   -5.0183 C.cat   1  UNL1        0.3769
     39 N         -20.4309   61.4833   -4.3230 N.pl3   1  UNL1       -0.1298
     40 N         -21.3992   59.4718   -5.0914 N.pl3   1  UNL1       -0.2892
     41 H         -21.3094   61.7096   -3.8056 H       1  UNL1        0.3062
     42 H         -22.2929   59.6661   -4.5873 H       1  UNL1        0.2546
     43 H         -21.3344   58.5882   -5.6416 H       1  UNL1        0.2546
     44 C         -20.7389   52.3723  -11.1468 C.3     1  UNL1        0.0578
     45 C         -19.4480   52.1156  -10.4068 C.2     1  UNL1       -0.0297
     46 C         -18.2321   51.9894  -10.9834 C.2     1  UNL1       -0.0475
     47 C         -18.0360   52.0771  -12.4776 C.3     1  UNL1        0.0260
     48 C         -17.0384   51.7576  -10.0930 C.3     1  UNL1        0.0260
     49 O         -29.7117   50.3247   -6.7321 O.3     1  UNL1       -0.4623
     50 C         -29.7991   50.9122   -5.4338 C.3     1  UNL1        0.2895
     51 C         -29.4714   49.8897   -4.3877 C.2     1  UNL1        0.2673
     52 O         -30.3212   49.6318   -3.4928 O.2     1  UNL1       -0.2711
     53 N         -28.2282   49.1761   -4.4327 N.am    1  UNL1       -0.2953
     54 H         -27.4993   49.5064   -5.1034 H       1  UNL1        0.1499
     55 C         -28.0866   47.8325   -3.8661 C.3     1  UNL1        0.1485
     56 C         -27.6426   47.9335   -2.4281 C.2     1  UNL1        0.2372
     57 N         -28.6004   48.1131   -1.3844 N.am    1  UNL1       -0.3275
     58 O         -26.4186   47.8466   -2.1382 O.2     1  UNL1       -0.2736
     59 H         -29.6208   48.1746   -1.5962 H       1  UNL1        0.1450
     60 H         -28.2879   48.1780   -0.3902 H       1  UNL1        0.1450
     61 C         -27.0753   47.0319   -4.7065 C.3     1  UNL1        0.0325
     62 C         -27.1141   47.4138   -6.1935 C.3     1  UNL1        0.0450
     63 C         -28.3026   46.7598   -6.9102 C.3     1  UNL1        0.1740
     64 N         -28.3148   47.0938   -8.3361 N.pl3   1  UNL1       -0.2625
     65 H         -29.1261   47.6115   -8.7442 H       1  UNL1        0.2587
     66 C         -27.2006   46.8064   -9.1902 C.cat   1  UNL1        0.3769
     67 N         -26.9729   45.5916   -9.5803 N.pl3   1  UNL1       -0.1298
     68 N         -26.3367   47.8671   -9.6045 N.pl3   1  UNL1       -0.2892
     69 H         -26.1674   45.3556  -10.2006 H       1  UNL1        0.3062
     70 H         -25.5076   47.6792  -10.2092 H       1  UNL1        0.2546
     71 H         -26.5254   48.8494   -9.3068 H       1  UNL1        0.2546
     72 C         -28.5331   51.1937  -11.4711 C.3     1  UNL1        0.0552
     73 C         -29.2696   52.5012  -11.6395 C.2     1  UNL1       -0.0298
     74 C         -30.4763   52.5985  -12.2356 C.2     1  UNL1       -0.0475
     75 C         -31.1860   51.3845  -12.7862 C.3     1  UNL1        0.0260
     76 C         -31.1213   53.9555  -12.3453 C.3     1  UNL1        0.0260
@<TRIPOS>BOND
     1    19    20    1
     2    20     1    1
     3     1     2   ar
     4     2    49    1
     5    49    50    1
     6    50    51    1
     7    51    52    2
     8    51    53   am
     9    53    55    1
    10    55    61    1
    11    61    62    1
    12    62    63    1
    13    63    64    1
    14    64    66    1
    15    66    67    2
    16    66    68    1
    17    55    56    1
    18    56    57   am
    19    56    58    2
    20     2     3   ar
    21     3     4   ar
    22     4     5    1
    23     5     6    1
    24     6     7   ar
    25     7     8   ar
    26     8    21    1
    27    21    22    1
    28    22    23    1
    29    23    24    2
    30    23    25   am
    31    25    27    1
    32    27    33    1
    33    33    34    1
    34    34    35    1
    35    35    36    1
    36    36    38    1
    37    38    39    2
    38    38    40    1
    39    27    28    1
    40    28    29   am
    41    28    30    2
    42     8     9   ar
    43     9    44    1
    44    44    45    1
    45    45    46    2
    46    46    47    1
    47    46    48    1
    48     9    10   ar
    49    10    11    1
    50    10    12   ar
    51    12    13    1
    52    13    14    2
    53    13    15    1
    54    15    16   ar
    55    16    72    1
    56    72    73    1
    57    73    74    2
    58    74    75    1
    59    74    76    1
    60    16     1   ar
    61    15     4   ar
    62    12     6   ar
    63    53    54    1
    64    64    65    1
    65    67    69    1
    66    68    70    1
    67    68    71    1
    68    57    59    1
    69    57    60    1
    70    25    26    1
    71    36    37    1
    72    39    41    1
    73    40    42    1
    74    40    43    1
    75    29    31    1
    76    29    32    1
    77    11    17    1
    78     5    18    1
@<TRIPOS>MOLECULE
*****
 76 78 0 0 0
SMALL
GASTEIGER

@<TRIPOS>ATOM
      1 C         -28.7518   49.6462   -9.5134 C.ar    1  UNL1        0.1694
      2 C         -28.8982   50.5289  -10.6102 C.ar    1  UNL1        0.1811
      3 C         -27.8132   51.3227  -11.0011 C.ar    1  UNL1        0.1358
      4 C         -26.6149   51.3043  -10.2963 C.ar    1  UNL1        0.2879
      5 O         -25.6440   52.1151  -10.6909 O.3     1  UNL1       -0.5462
      6 C         -24.4533   52.1620  -10.1141 C.ar    1  UNL1        0.2910
      7 C         -23.5070   53.0545  -10.6118 C.ar    1  UNL1        0.1326
      8 C         -22.2237   53.1323  -10.0507 C.ar    1  UNL1        0.1469
      9 C         -21.8804   52.2720   -8.9892 C.ar    1  UNL1        0.0504
     10 C         -22.8304   51.3554   -8.4831 C.ar    1  UNL1        0.1441
     11 O         -22.4027   50.4595   -7.4961 O.3     1  UNL1       -0.5053
     12 C         -24.1530   51.3341   -9.0137 C.ar    1  UNL1        0.1601
     13 C         -25.2087   50.5531   -8.4834 C.2     1  UNL1        0.2146
     14 O         -25.0733   50.0116   -7.3562 O.2     1  UNL1       -0.2859
     15 C         -26.4441   50.4552   -9.1819 C.ar    1  UNL1        0.1263
     16 C         -27.5126   49.5710   -8.8245 C.ar    1  UNL1        0.0304
     17 H         -22.8296   49.5607   -7.3233 H       1  UNL1        0.2922
     18 H         -25.8088   52.6851  -11.4161 H       1  UNL1        0.5634
     19 C         -31.0818   49.2463   -8.5865 C.3     1  UNL1        0.2526
     20 O         -29.8036   48.8264   -9.0508 O.3     1  UNL1       -0.4687
     21 O         -21.2640   54.0437  -10.5274 O.3     1  UNL1       -0.4655
     22 C         -21.3381   55.4648  -10.4173 C.3     1  UNL1        0.2893
     23 C         -20.3313   55.9712   -9.4280 C.2     1  UNL1        0.2673
     24 O         -19.4915   55.1696   -8.9358 O.2     1  UNL1       -0.2711
     25 N         -20.3383   57.3502   -9.0304 N.am    1  UNL1       -0.2953
     26 H         -21.0853   57.9662   -9.4237 H       1  UNL1        0.1499
     27 C         -19.2290   57.9509   -8.2774 C.3     1  UNL1        0.1485
     28 C         -19.3875   57.7377   -6.7916 C.2     1  UNL1        0.2372
     29 N         -20.6727   57.8737   -6.1851 N.am    1  UNL1       -0.3275
     30 O         -18.4040   57.3912   -6.0828 O.2     1  UNL1       -0.2736
     31 H         -20.7922   57.7076   -5.1612 H       1  UNL1        0.1450
     32 H         -21.5084   58.1277   -6.7572 H       1  UNL1        0.1450
     33 C         -19.0711   59.4452   -8.6353 C.3     1  UNL1        0.0325
     34 C         -18.5167   60.3259   -7.4941 C.3     1  UNL1        0.0450
     35 C         -19.3653   61.5819   -7.2518 C.3     1  UNL1        0.1740
     36 N         -20.4232   61.3131   -6.2779 N.pl3   1  UNL1       -0.2625
     37 H         -21.4190   61.3012   -6.5957 H       1  UNL1        0.2587
     38 C         -20.1542   61.0259   -4.8974 C.cat   1  UNL1        0.3769
     39 N         -20.8311   60.0945   -4.3044 N.pl3   1  UNL1       -0.1298
     40 N         -19.1521   61.7490   -4.1710 N.pl3   1  UNL1       -0.2892
     41 H         -20.6713   59.8501   -3.3017 H       1  UNL1        0.3062
     42 H         -18.9649   61.5306   -3.1671 H       1  UNL1        0.2546
     43 H         -18.5885   62.5048   -4.6167 H       1  UNL1        0.2546
     44 C         -20.4865   52.3143   -8.3964 C.3     1  UNL1        0.0578
     45 C         -19.4585   51.9930   -9.4546 C.2     1  UNL1       -0.0297
     46 C         -18.1238   51.9314   -9.2500 C.2     1  UNL1       -0.0475
     47 C         -17.5020   52.2044   -7.9018 C.3     1  UNL1        0.0260
     48 C         -17.2370   51.5728  -10.4147 C.3     1  UNL1        0.0260
     49 O         -30.1199   50.5966  -11.3014 O.3     1  UNL1       -0.4623
     50 C         -30.2777   50.5268  -12.7187 C.3     1  UNL1        0.2895
     51 C         -30.5951   49.1202  -13.1284 C.2     1  UNL1        0.2673
     52 O         -31.4898   48.4860  -12.5065 O.2     1  UNL1       -0.2711
     53 N         -29.9264   48.5199  -14.2461 N.am    1  UNL1       -0.2953
     54 H         -29.1048   49.0215  -14.6508 H       1  UNL1        0.1499
     55 C         -30.5513   47.4625  -15.0446 C.3     1  UNL1        0.1485
     56 C         -30.1655   46.1140  -14.4898 C.2     1  UNL1        0.2372
     57 N         -29.8485   45.9631  -13.1057 N.am    1  UNL1       -0.3275
     58 O         -30.1334   45.1062  -15.2466 O.2     1  UNL1       -0.2736
     59 H         -29.8805   46.7789  -12.4550 H       1  UNL1        0.1450
     60 H         -29.5863   45.0265  -12.7259 H       1  UNL1        0.1450
     61 C         -30.1103   47.6079  -16.5124 C.3     1  UNL1        0.0325
     62 C         -29.3417   48.9125  -16.7686 C.3     1  UNL1        0.0450
     63 C         -28.7618   48.9528  -18.1885 C.3     1  UNL1        0.1740
     64 N         -27.6447   49.8952  -18.2816 N.pl3   1  UNL1       -0.2625
     65 H         -27.8305   50.9108  -18.4454 H       1  UNL1        0.2587
     66 C         -26.2882   49.4842  -18.0702 C.cat   1  UNL1        0.3769
     67 N         -26.0007   48.2283  -17.9292 N.pl3   1  UNL1       -0.1298
     68 N         -25.2537   50.4686  -18.0087 N.pl3   1  UNL1       -0.2892
     69 H         -25.0215   47.9031  -17.7723 H       1  UNL1        0.3062
     70 H         -24.2620   50.1952  -17.8352 H       1  UNL1        0.2546
     71 H         -25.4778   51.4797  -18.1383 H       1  UNL1        0.2546
     72 C         -27.3795   48.5368   -7.7168 C.3     1  UNL1        0.0552
     73 C         -27.9465   49.0613   -6.4193 C.2     1  UNL1       -0.0298
     74 C         -27.6963   48.4944   -5.2205 C.2     1  UNL1       -0.0475
     75 C         -26.8167   47.2736   -5.0917 C.3     1  UNL1        0.0260
     76 C         -28.3126   49.1053   -3.9890 C.3     1  UNL1        0.0260
@<TRIPOS>BOND
     1    19    20    1
     2    20     1    1
     3     1     2   ar
     4     2    49    1
     5    49    50    1
     6    50    51    1
     7    51    52    2
     8    51    53   am
     9    53    55    1
    10    55    61    1
    11    61    62    1
    12    62    63    1
    13    63    64    1
    14    64    66    1
    15    66    67    2
    16    66    68    1
    17    55    56    1
    18    56    57   am
    19    56    58    2
    20     2     3   ar
    21     3     4   ar
    22     4     5    1
    23     5     6    1
    24     6     7   ar
    25     7     8   ar
    26     8    21    1
    27    21    22    1
    28    22    23    1
    29    23    24    2
    30    23    25   am
    31    25    27    1
    32    27    33    1
    33    33    34    1
    34    34    35    1
    35    35    36    1
    36    36    38    1
    37    38    39    2
    38    38    40    1
    39    27    28    1
    40    28    29   am
    41    28    30    2
    42     8     9   ar
    43     9    44    1
    44    44    45    1
    45    45    46    2
    46    46    47    1
    47    46    48    1
    48     9    10   ar
    49    10    11    1
    50    10    12   ar
    51    12    13    1
    52    13    14    2
    53    13    15    1
    54    15    16   ar
    55    16    72    1
    56    72    73    1
    57    73    74    2
    58    74    75    1
    59    74    76    1
    60    16     1   ar
    61    15     4   ar
    62    12     6   ar
    63    53    54    1
    64    64    65    1
    65    67    69    1
    66    68    70    1
    67    68    71    1
    68    57    59    1
    69    57    60    1
    70    25    26    1
    71    36    37    1
    72    39    41    1
    73    40    42    1
    74    40    43    1
    75    29    31    1
    76    29    32    1
    77    11    17    1
    78     5    18    1
@<TRIPOS>MOLECULE
*****
 76 78 0 0 0
SMALL
GASTEIGER

@<TRIPOS>ATOM
      1 C         -26.7148   51.5244  -10.2384 C.ar    1  UNL1        0.1694
      2 C         -25.6014   51.6434   -9.3725 C.ar    1  UNL1        0.1811
      3 C         -25.7295   51.2550   -8.0335 C.ar    1  UNL1        0.1358
      4 C         -26.9447   50.8114   -7.5241 C.ar    1  UNL1        0.2879
      5 O         -27.0091   50.5044   -6.2367 O.3     1  UNL1       -0.5462
      6 C         -28.1038   50.0455   -5.6503 C.ar    1  UNL1        0.2910
      7 C         -28.0582   49.7557   -4.2887 C.ar    1  UNL1        0.1326
      8 C         -29.1831   49.2493   -3.6211 C.ar    1  UNL1        0.1469
      9 C         -30.3647   49.0021   -4.3475 C.ar    1  UNL1        0.0504
     10 C         -30.4183   49.2835   -5.7319 C.ar    1  UNL1        0.1441
     11 O         -31.5839   48.9257   -6.4198 O.3     1  UNL1       -0.5053
     12 C         -29.2925   49.8637   -6.3854 C.ar    1  UNL1        0.1601
     13 C         -29.2965   50.3066   -7.7305 C.2     1  UNL1        0.2146
     14 O         -30.3894   50.4176   -8.3433 O.2     1  UNL1       -0.2859
     15 C         -28.0815   50.7056   -8.3537 C.ar    1  UNL1        0.1263
     16 C         -27.9442   51.0124   -9.7460 C.ar    1  UNL1        0.0304
     17 H         -31.6197   48.7285   -7.4097 H       1  UNL1        0.2922
     18 H         -26.2398   50.6180   -5.7141 H       1  UNL1        0.5634
     19 C         -25.9347   51.2837  -12.6428 C.3     1  UNL1        0.2526
     20 O         -26.6679   51.9093  -11.5955 O.3     1  UNL1       -0.4687
     21 O         -29.1601   48.9726   -2.2420 O.3     1  UNL1       -0.4655
     22 C         -28.0234   48.5318   -1.4998 C.3     1  UNL1        0.2893
     23 C         -27.6669   47.1222   -1.8672 C.2     1  UNL1        0.2673
     24 O         -28.2775   46.1667   -1.3157 O.2     1  UNL1       -0.2711
     25 N         -26.6264   46.8647   -2.8216 N.am    1  UNL1       -0.2953
     26 H         -26.1116   47.6854   -3.2135 H       1  UNL1        0.1499
     27 C         -26.4165   45.5338   -3.4072 C.3     1  UNL1        0.1485
     28 C         -25.4672   44.7056   -2.5761 C.2     1  UNL1        0.2372
     29 N         -25.7112   44.5270   -1.1808 N.am    1  UNL1       -0.3275
     30 O         -24.4829   44.1257   -3.1097 O.2     1  UNL1       -0.2736
     31 H         -25.0691   43.9384   -0.6049 H       1  UNL1        0.1450
     32 H         -26.5381   44.9702   -0.7228 H       1  UNL1        0.1450
     33 C         -25.9518   45.6497   -4.8758 C.3     1  UNL1        0.0325
     34 C         -26.7687   46.6406   -5.7336 C.3     1  UNL1        0.0450
     35 C         -25.9040   47.3853   -6.7603 C.3     1  UNL1        0.1740
     36 N         -25.8607   46.6564   -8.0278 N.pl3   1  UNL1       -0.2625
     37 H         -24.9553   46.2448   -8.3497 H       1  UNL1        0.2587
     38 C         -27.0229   46.4457   -8.8435 C.cat   1  UNL1        0.3769
     39 N         -27.0159   45.4871   -9.7143 N.pl3   1  UNL1       -0.1298
     40 N         -28.1847   47.2743   -8.7074 N.pl3   1  UNL1       -0.2892
     41 H         -27.8373   45.2955  -10.3300 H       1  UNL1        0.3062
     42 H         -29.0246   47.1110   -9.3060 H       1  UNL1        0.2546
     43 H         -28.2250   48.0549   -8.0169 H       1  UNL1        0.2546
     44 C         -31.5774   48.4185   -3.6512 C.3     1  UNL1        0.0578
     45 C         -31.2505   47.0575   -3.0851 C.2     1  UNL1       -0.0297
     46 C         -31.2402   45.9037   -3.7890 C.2     1  UNL1       -0.0475
     47 C         -31.5832   45.8531   -5.2582 C.3     1  UNL1        0.0260
     48 C         -30.8676   44.6313   -3.0722 C.3     1  UNL1        0.0260
     49 O         -24.3799   52.1385   -9.8601 O.3     1  UNL1       -0.4623
     50 C         -23.4882   51.4405  -10.7298 C.3     1  UNL1        0.2895
     51 C         -22.2979   52.2986  -11.0361 C.2     1  UNL1        0.2673
     52 O         -22.4662   53.3862  -11.6511 O.2     1  UNL1       -0.2711
     53 N         -20.9900   51.9136  -10.5910 N.am    1  UNL1       -0.2953
     54 H         -20.8692   50.9512  -10.2045 H       1  UNL1        0.1499
     55 C         -19.9423   52.9017  -10.3225 C.3     1  UNL1        0.1485
     56 C         -18.5944   52.3151  -10.6606 C.2     1  UNL1        0.2372
     57 N         -18.2737   51.9634  -12.0069 N.am    1  UNL1       -0.3275
     58 O         -17.7356   52.1436   -9.7537 O.2     1  UNL1       -0.2736
     59 H         -18.9621   52.1077  -12.7785 H       1  UNL1        0.1450
     60 H         -17.3376   51.5617  -12.2362 H       1  UNL1        0.1450
     61 C         -20.0109   53.3243   -8.8438 C.3     1  UNL1        0.0325
     62 C         -19.5859   54.7844   -8.6295 C.3     1  UNL1        0.0450
     63 C         -19.2867   55.0710   -7.1522 C.3     1  UNL1        0.1740
     64 N         -18.3405   56.1790   -7.0050 N.pl3   1  UNL1       -0.2625
     65 H         -17.3120   55.9927   -7.0188 H       1  UNL1        0.2587
     66 C         -18.7772   57.5415   -6.9251 C.cat   1  UNL1        0.3769
     67 N         -18.5112   58.2521   -5.8745 N.pl3   1  UNL1       -0.1298
     68 N         -19.5148   58.1112   -8.0089 N.pl3   1  UNL1       -0.2892
     69 H         -18.8194   59.2458   -5.7907 H       1  UNL1        0.3062
     70 H         -19.8609   59.0943   -7.9648 H       1  UNL1        0.2546
     71 H         -19.7171   57.5482   -8.8642 H       1  UNL1        0.2546
     72 C         -29.0781   50.8143  -10.7405 C.3     1  UNL1        0.0552
     73 C         -29.2945   49.3472  -11.0254 C.2     1  UNL1       -0.0298
     74 C         -30.3570   48.8761  -11.7110 C.2     1  UNL1       -0.0475
     75 C         -31.4228   49.8004  -12.2498 C.3     1  UNL1        0.0260
     76 C         -30.4691   47.3914  -11.9402 C.3     1  UNL1        0.0260
@<TRIPOS>BOND
     1    19    20    1
     2    20     1    1
     3     1     2   ar
     4     2    49    1
     5    49    50    1
     6    50    51    1
     7    51    52    2
     8    51    53   am
     9    53    55    1
    10    55    61    1
    11    61    62    1
    12    62    63    1
    13    63    64    1
    14    64    66    1
    15    66    67    2
    16    66    68    1
    17    55    56    1
    18    56    57   am
    19    56    58    2
    20     2     3   ar
    21     3     4   ar
    22     4     5    1
    23     5     6    1
    24     6     7   ar
    25     7     8   ar
    26     8    21    1
    27    21    22    1
    28    22    23    1
    29    23    24    2
    30    23    25   am
    31    25    27    1
    32    27    33    1
    33    33    34    1
    34    34    35    1
    35    35    36    1
    36    36    38    1
    37    38    39    2
    38    38    40    1
    39    27    28    1
    40    28    29   am
    41    28    30    2
    42     8     9   ar
    43     9    44    1
    44    44    45    1
    45    45    46    2
    46    46    47    1
    47    46    48    1
    48     9    10   ar
    49    10    11    1
    50    10    12   ar
    51    12    13    1
    52    13    14    2
    53    13    15    1
    54    15    16   ar
    55    16    72    1
    56    72    73    1
    57    73    74    2
    58    74    75    1
    59    74    76    1
    60    16     1   ar
    61    15     4   ar
    62    12     6   ar
    63    53    54    1
    64    64    65    1
    65    67    69    1
    66    68    70    1
    67    68    71    1
    68    57    59    1
    69    57    60    1
    70    25    26    1
    71    36    37    1
    72    39    41    1
    73    40    42    1
    74    40    43    1
    75    29    31    1
    76    29    32    1
    77    11    17    1
    78     5    18    1
@<TRIPOS>MOLECULE
*****
 76 78 0 0 0
SMALL
GASTEIGER

@<TRIPOS>ATOM
      1 C         -27.4386   50.7942  -10.2040 C.ar    1  UNL1        0.1694
      2 C         -26.0697   50.8575   -9.8496 C.ar    1  UNL1        0.1811
      3 C         -25.5640   49.9578   -8.9036 C.ar    1  UNL1        0.1358
      4 C         -26.3925   49.0438   -8.2624 C.ar    1  UNL1        0.2879
      5 O         -25.8587   48.2529   -7.3429 O.3     1  UNL1       -0.5462
      6 C         -26.5442   47.3274   -6.6899 C.ar    1  UNL1        0.2910
      7 C         -25.8806   46.5522   -5.7421 C.ar    1  UNL1        0.1326
      8 C         -26.5537   45.5450   -5.0348 C.ar    1  UNL1        0.1469
      9 C         -27.9124   45.2961   -5.3120 C.ar    1  UNL1        0.0504
     10 C         -28.5927   46.0707   -6.2794 C.ar    1  UNL1        0.1441
     11 O         -29.9118   45.7136   -6.5828 O.3     1  UNL1       -0.5053
     12 C         -27.9180   47.1376   -6.9410 C.ar    1  UNL1        0.1601
     13 C         -28.5486   48.0525   -7.8190 C.2     1  UNL1        0.2146
     14 O         -29.8046   48.0983   -7.8688 O.2     1  UNL1       -0.2859
     15 C         -27.7673   48.9717   -8.5729 C.ar    1  UNL1        0.1263
     16 C         -28.2821   49.8228   -9.6033 C.ar    1  UNL1        0.0304
     17 H         -30.3661   45.9172   -7.4616 H       1  UNL1        0.2922
     18 H         -24.9485   48.3539   -7.1445 H       1  UNL1        0.5634
     19 C         -27.9388   51.6094  -12.5563 C.3     1  UNL1        0.2526
     20 O         -28.0247   51.6763  -11.1371 O.3     1  UNL1       -0.4687
     21 O         -25.9035   44.7683   -4.0586 O.3     1  UNL1       -0.4655
     22 C         -25.3147   45.2635   -2.8565 C.3     1  UNL1        0.2893
     23 C         -25.7553   46.6727   -2.5941 C.2     1  UNL1        0.2673
     24 O         -24.8930   47.5917   -2.5500 O.2     1  UNL1       -0.2711
     25 N         -27.1426   46.9677   -2.3747 N.am    1  UNL1       -0.2953
     26 H         -27.8150   46.1677   -2.3678 H       1  UNL1        0.1499
     27 C         -27.6573   48.3438   -2.3744 C.3     1  UNL1        0.1485
     28 C         -28.9815   48.4405   -1.6568 C.2     1  UNL1        0.2372
     29 N         -29.0554   48.1681   -0.2573 N.am    1  UNL1       -0.3275
     30 O         -30.0201   48.8084   -2.2697 O.2     1  UNL1       -0.2736
     31 H         -29.9649   48.2531    0.2485 H       1  UNL1        0.1450
     32 H         -28.2025   47.8937    0.2786 H       1  UNL1        0.1450
     33 C         -27.7358   48.8984   -3.8140 C.3     1  UNL1        0.0325
     34 C         -26.9199   50.1877   -4.0530 C.3     1  UNL1        0.0450
     35 C         -27.2245   50.8364   -5.4106 C.3     1  UNL1        0.1740
     36 N         -28.2729   51.8479   -5.2784 N.pl3   1  UNL1       -0.2625
     37 H         -28.0164   52.8112   -4.9637 H       1  UNL1        0.2587
     38 C         -29.6480   51.5885   -5.5980 C.cat   1  UNL1        0.3769
     39 N         -29.9348   50.6149   -6.4025 N.pl3   1  UNL1       -0.1298
     40 N         -30.7019   52.3851   -5.0415 N.pl3   1  UNL1       -0.2892
     41 H         -30.9200   50.3883   -6.6646 H       1  UNL1        0.3062
     42 H         -31.6987   52.1864   -5.2810 H       1  UNL1        0.2546
     43 H         -30.5074   53.1765   -4.3908 H       1  UNL1        0.2546
     44 C         -28.6457   44.1863   -4.5861 C.3     1  UNL1        0.0578
     45 C         -29.9625   44.6937   -4.0491 C.2     1  UNL1       -0.0297
     46 C         -30.2045   45.0167   -2.7592 C.2     1  UNL1       -0.0475
     47 C         -29.1535   44.8817   -1.6840 C.3     1  UNL1        0.0260
     48 C         -31.5732   45.5321   -2.3952 C.3     1  UNL1        0.0260
     49 O         -25.2299   51.8101  -10.4515 O.3     1  UNL1       -0.4623
     50 C         -24.1834   51.5264  -11.3804 C.3     1  UNL1        0.2895
     51 C         -22.8504   51.7216  -10.7228 C.2     1  UNL1        0.2673
     52 O         -22.0306   50.7641  -10.6995 O.2     1  UNL1       -0.2711
     53 N         -22.4910   52.9960  -10.1721 N.am    1  UNL1       -0.2953
     54 H         -23.2377   53.7214  -10.0910 H       1  UNL1        0.1499
     55 C         -21.0950   53.4282  -10.0691 C.3     1  UNL1        0.1485
     56 C         -20.3967   53.2031  -11.3870 C.2     1  UNL1        0.2372
     57 N         -20.8242   53.8937  -12.5615 N.am    1  UNL1       -0.3275
     58 O         -19.4191   52.4099  -11.4556 O.2     1  UNL1       -0.2736
     59 H         -21.6224   54.5660  -12.5289 H       1  UNL1        0.1450
     60 H         -20.3345   53.7375  -13.4703 H       1  UNL1        0.1450
     61 C         -20.4058   52.6502   -8.9335 C.3     1  UNL1        0.0325
     62 C         -19.1857   53.3925   -8.3688 C.3     1  UNL1        0.0450
     63 C         -19.6031   54.6437   -7.5850 C.3     1  UNL1        0.1740
     64 N         -18.4559   55.5150   -7.3214 N.pl3   1  UNL1       -0.2625
     65 H         -17.4894   55.1896   -7.5510 H       1  UNL1        0.2587
     66 C         -18.6178   56.8514   -6.8299 C.cat   1  UNL1        0.3769
     67 N         -19.5354   57.6221   -7.3235 N.pl3   1  UNL1       -0.1298
     68 N         -17.7561   57.3325   -5.7959 N.pl3   1  UNL1       -0.2892
     69 H         -19.6726   58.5997   -6.9845 H       1  UNL1        0.3062
     70 H         -17.8415   58.3082   -5.4365 H       1  UNL1        0.2546
     71 H         -17.0267   56.7103   -5.3836 H       1  UNL1        0.2546
     72 C         -29.7203   49.7345  -10.0913 C.3     1  UNL1        0.0552
     73 C         -29.9190   48.5192  -10.9652 C.2     1  UNL1       -0.0298
     74 C         -30.5505   48.5608  -12.1570 C.2     1  UNL1       -0.0475
     75 C         -31.1129   49.8492  -12.7087 C.3     1  UNL1        0.0260
     76 C         -30.6881   47.2857  -12.9474 C.3     1  UNL1        0.0260
@<TRIPOS>BOND
     1    19    20    1
     2    20     1    1
     3     1     2   ar
     4     2    49    1
     5    49    50    1
     6    50    51    1
     7    51    52    2
     8    51    53   am
     9    53    55    1
    10    55    61    1
    11    61    62    1
    12    62    63    1
    13    63    64    1
    14    64    66    1
    15    66    67    2
    16    66    68    1
    17    55    56    1
    18    56    57   am
    19    56    58    2
    20     2     3   ar
    21     3     4   ar
    22     4     5    1
    23     5     6    1
    24     6     7   ar
    25     7     8   ar
    26     8    21    1
    27    21    22    1
    28    22    23    1
    29    23    24    2
    30    23    25   am
    31    25    27    1
    32    27    33    1
    33    33    34    1
    34    34    35    1
    35    35    36    1
    36    36    38    1
    37    38    39    2
    38    38    40    1
    39    27    28    1
    40    28    29   am
    41    28    30    2
    42     8     9   ar
    43     9    44    1
    44    44    45    1
    45    45    46    2
    46    46    47    1
    47    46    48    1
    48     9    10   ar
    49    10    11    1
    50    10    12   ar
    51    12    13    1
    52    13    14    2
    53    13    15    1
    54    15    16   ar
    55    16    72    1
    56    72    73    1
    57    73    74    2
    58    74    75    1
    59    74    76    1
    60    16     1   ar
    61    15     4   ar
    62    12     6   ar
    63    53    54    1
    64    64    65    1
    65    67    69    1
    66    68    70    1
    67    68    71    1
    68    57    59    1
    69    57    60    1
    70    25    26    1
    71    36    37    1
    72    39    41    1
    73    40    42    1
    74    40    43    1
    75    29    31    1
    76    29    32    1
    77    11    17    1
    78     5    18    1
@<TRIPOS>MOLECULE
*****
 76 78 0 0 0
SMALL
GASTEIGER

@<TRIPOS>ATOM
      1 C         -29.0341   49.3858   -8.8821 C.ar    1  UNL1        0.1694
      2 C         -29.4032   50.3526   -9.8478 C.ar    1  UNL1        0.1811
      3 C         -28.4386   51.2482  -10.3249 C.ar    1  UNL1        0.1358
      4 C         -27.1413   51.2450   -9.8248 C.ar    1  UNL1        0.2879
      5 O         -26.2907   52.1505  -10.2856 O.3     1  UNL1       -0.5462
      6 C         -25.0251   52.2233   -9.9036 C.ar    1  UNL1        0.2910
      7 C         -24.2197   53.2176  -10.4536 C.ar    1  UNL1        0.1326
      8 C         -22.8672   53.3286  -10.0987 C.ar    1  UNL1        0.1469
      9 C         -22.3111   52.4003   -9.1966 C.ar    1  UNL1        0.0504
     10 C         -23.1176   51.3811   -8.6402 C.ar    1  UNL1        0.1441
     11 O         -22.4888   50.4297   -7.8283 O.3     1  UNL1       -0.5053
     12 C         -24.5066   51.3208   -8.9533 C.ar    1  UNL1        0.1601
     13 C         -25.4201   50.4272   -8.3427 C.2     1  UNL1        0.2146
     14 O         -25.0740   49.7959   -7.3113 O.2     1  UNL1       -0.2859
     15 C         -26.7470   50.3117   -8.8423 C.ar    1  UNL1        0.1263
     16 C         -27.6963   49.3303   -8.4099 C.ar    1  UNL1        0.0304
     17 H         -22.8357   49.4927   -7.6806 H       1  UNL1        0.2922
     18 H         -26.6010   52.7716  -10.9148 H       1  UNL1        0.5634
     19 C         -31.1065   48.7483   -7.5603 C.3     1  UNL1        0.2526
     20 O         -29.9529   48.4600   -8.3425 O.3     1  UNL1       -0.4687
     21 O         -22.0461   54.3407  -10.6282 O.3     1  UNL1       -0.4655
     22 C         -21.9802   55.6884  -10.1629 C.3     1  UNL1        0.2893
     23 C         -20.6405   55.9710   -9.5511 C.2     1  UNL1        0.2673
     24 O         -19.6025   55.5041  -10.0940 O.2     1  UNL1       -0.2711
     25 N         -20.5441   56.7475   -8.3480 N.am    1  UNL1       -0.2953
     26 H         -21.4338   57.0691   -7.9039 H       1  UNL1        0.1499
     27 C         -19.2617   57.2696   -7.8568 C.3     1  UNL1        0.1485
     28 C         -18.5743   56.2835   -6.9441 C.2     1  UNL1        0.2372
     29 N         -18.4214   54.9234   -7.3500 N.am    1  UNL1       -0.3275
     30 O         -18.0872   56.6576   -5.8429 O.2     1  UNL1       -0.2736
     31 H         -17.9288   54.2414   -6.7316 H       1  UNL1        0.1450
     32 H         -18.7874   54.5974   -8.2719 H       1  UNL1        0.1450
     33 C         -19.4539   58.6466   -7.1836 C.3     1  UNL1        0.0325
     34 C         -18.7384   59.8164   -7.8939 C.3     1  UNL1        0.0450
     35 C         -18.9758   61.1640   -7.1980 C.3     1  UNL1        0.1740
     36 N         -20.1341   61.0908   -6.3076 N.pl3   1  UNL1       -0.2625
     37 H         -21.0835   60.9351   -6.7163 H       1  UNL1        0.2587
     38 C         -20.0242   61.1879   -4.8797 C.cat   1  UNL1        0.3769
     39 N         -20.6260   60.3110   -4.1407 N.pl3   1  UNL1       -0.1298
     40 N         -19.2611   62.2335   -4.2639 N.pl3   1  UNL1       -0.2892
     41 H         -20.5753   60.3408   -3.0979 H       1  UNL1        0.3062
     42 H         -19.1878   62.2935   -3.2239 H       1  UNL1        0.2546
     43 H         -18.7639   62.9560   -4.8280 H       1  UNL1        0.2546
     44 C         -20.8426   52.4805   -8.8317 C.3     1  UNL1        0.0578
     45 C         -19.9877   52.3193  -10.0658 C.2     1  UNL1       -0.0297
     46 C         -18.6645   52.0432  -10.0655 C.2     1  UNL1       -0.0475
     47 C         -17.8758   51.8802   -8.7887 C.3     1  UNL1        0.0260
     48 C         -17.9649   51.8912  -11.3917 C.3     1  UNL1        0.0260
     49 O         -30.7239   50.4018  -10.3258 O.3     1  UNL1       -0.4623
     50 C         -31.1078   50.5793  -11.6895 C.3     1  UNL1        0.2895
     51 C         -30.8586   49.3168  -12.4584 C.2     1  UNL1        0.2673
     52 O         -30.0833   49.3454  -13.4521 O.2     1  UNL1       -0.2711
     53 N         -31.4534   48.0809  -12.0396 N.am    1  UNL1       -0.2953
     54 H         -32.1886   48.1188  -11.2990 H       1  UNL1        0.1499
     55 C         -30.8328   46.7861  -12.3303 C.3     1  UNL1        0.1485
     56 C         -29.9670   46.3673  -11.1683 C.2     1  UNL1        0.2372
     57 N         -30.5118   46.2845   -9.8509 N.am    1  UNL1       -0.3275
     58 O         -28.7554   46.0745  -11.3576 O.2     1  UNL1       -0.2736
     59 H         -31.5153   46.5085   -9.6694 H       1  UNL1        0.1450
     60 H         -29.9092   45.9898   -9.0508 H       1  UNL1        0.1450
     61 C         -30.0096   46.8980  -13.6264 C.3     1  UNL1        0.0325
     62 C         -30.5403   45.9839  -14.7404 C.3     1  UNL1        0.0450
     63 C         -30.5261   46.6915  -16.1017 C.3     1  UNL1        0.1740
     64 N         -30.3353   48.1356  -15.9500 N.pl3   1  UNL1       -0.2625
     65 H         -30.9957   48.6904  -15.3593 H       1  UNL1        0.2587
     66 C         -29.2106   48.8145  -16.5224 C.cat   1  UNL1        0.3769
     67 N         -28.8743   49.9925  -16.0996 N.pl3   1  UNL1       -0.1298
     68 N         -28.4651   48.1876  -17.5685 N.pl3   1  UNL1       -0.2892
     69 H         -28.0609   50.5089  -16.5010 H       1  UNL1        0.3062
     70 H         -27.6552   48.6708  -18.0146 H       1  UNL1        0.2546
     71 H         -28.7216   47.2321  -17.9010 H       1  UNL1        0.2546
     72 C         -27.3309   48.2111   -7.4465 C.3     1  UNL1        0.0552
     73 C         -27.6115   48.6161   -6.0191 C.2     1  UNL1       -0.0298
     74 C         -27.1498   47.9313   -4.9519 C.2     1  UNL1       -0.0475
     75 C         -26.3058   46.6896   -5.1146 C.3     1  UNL1        0.0260
     76 C         -27.4888   48.4296   -3.5712 C.3     1  UNL1        0.0260
@<TRIPOS>BOND
     1    19    20    1
     2    20     1    1
     3     1     2   ar
     4     2    49    1
     5    49    50    1
     6    50    51    1
     7    51    52    2
     8    51    53   am
     9    53    55    1
    10    55    61    1
    11    61    62    1
    12    62    63    1
    13    63    64    1
    14    64    66    1
    15    66    67    2
    16    66    68    1
    17    55    56    1
    18    56    57   am
    19    56    58    2
    20     2     3   ar
    21     3     4   ar
    22     4     5    1
    23     5     6    1
    24     6     7   ar
    25     7     8   ar
    26     8    21    1
    27    21    22    1
    28    22    23    1
    29    23    24    2
    30    23    25   am
    31    25    27    1
    32    27    33    1
    33    33    34    1
    34    34    35    1
    35    35    36    1
    36    36    38    1
    37    38    39    2
    38    38    40    1
    39    27    28    1
    40    28    29   am
    41    28    30    2
    42     8     9   ar
    43     9    44    1
    44    44    45    1
    45    45    46    2
    46    46    47    1
    47    46    48    1
    48     9    10   ar
    49    10    11    1
    50    10    12   ar
    51    12    13    1
    52    13    14    2
    53    13    15    1
    54    15    16   ar
    55    16    72    1
    56    72    73    1
    57    73    74    2
    58    74    75    1
    59    74    76    1
    60    16     1   ar
    61    15     4   ar
    62    12     6   ar
    63    53    54    1
    64    64    65    1
    65    67    69    1
    66    68    70    1
    67    68    71    1
    68    57    59    1
    69    57    60    1
    70    25    26    1
    71    36    37    1
    72    39    41    1
    73    40    42    1
    74    40    43    1
    75    29    31    1
    76    29    32    1
    77    11    17    1
    78     5    18    1
