@<TRIPOS>MOLECULE
*****
 43 47 0 0 0
SMALL
GASTEIGER

@<TRIPOS>ATOM
      1 C          14.8266   87.8287   22.3178 C.3     1  UNL1        0.2392
      2 O          14.9981   87.3179   23.6444 O.3     1  UNL1       -0.4694
      3 C          14.5261   86.0525   24.0036 C.ar    1  UNL1        0.1723
      4 C          14.4370   85.6789   25.3462 C.ar    1  UNL1        0.0398
      5 C          13.9309   84.4205   25.6874 C.ar    1  UNL1        0.0026
      6 C          13.5220   83.5207   24.6844 C.ar    1  UNL1        0.0233
      7 C          13.6192   83.9055   23.3352 C.ar    1  UNL1        0.0393
      8 C          14.1380   85.1588   22.9990 C.ar    1  UNL1        0.1725
      9 O          14.2746   85.5380   21.6609 O.3     1  UNL1       -0.4679
     10 C          15.0390   86.6889   21.2856 C.3     1  UNL1        0.2305
     11 C          12.9377   82.1769   25.0507 C.3     1  UNL1        0.2223
     12 O          11.9293   81.8132   24.1077 O.3     1  UNL1       -0.4715
     13 C          11.3803   80.5279   24.0850 C.ar    1  UNL1        0.1477
     14 C          10.1893   80.3073   23.4022 C.ar    1  UNL1        0.0737
     15 C           9.6134   79.0264   23.3554 C.ar    1  UNL1        0.1406
     16 C          10.2270   77.9550   24.0522 C.ar    1  UNL1        0.0456
     17 C          11.4046   78.2066   24.8065 C.ar    1  UNL1        0.1433
     18 C          12.0318   79.4727   24.7369 C.ar    1  UNL1        0.1049
     19 C          13.4142   79.7213   25.2308 C.2     1  UNL1        0.2095
     20 O          14.1388   78.7644   25.6162 O.2     1  UNL1       -0.2884
     21 C          14.0318   81.0948   25.1079 C.3     1  UNL1        0.2169
     22 O          14.8731   81.3447   26.2052 O.3     1  UNL1       -0.3739
     23 H          15.7460   80.9160   26.0045 H       1  UNL1        0.2110
     24 C           9.6226   76.5505   23.9605 C.3     1  UNL1        0.0283
     25 C           8.1424   76.5398   24.3656 C.3     1  UNL1        0.0049
     26 C           9.8337   75.9086   22.5838 C.3     1  UNL1        0.0049
     27 O           8.4297   78.7927   22.6331 O.3     1  UNL1       -0.4715
     28 C           8.2666   79.0238   21.2373 C.3     1  UNL1        0.2525
     29 O          11.9337   77.2016   25.6229 O.3     1  UNL1       -0.4714
     30 C          11.4695   76.9955   26.9558 C.3     1  UNL1        0.2525
     31 C          14.6490   87.1151   19.8889 C.ar    1  UNL1        0.0241
     32 C          14.3050   88.4486   19.6267 C.ar    1  UNL1        0.0026
     33 C          13.9210   88.8404   18.3434 C.ar    1  UNL1        0.0398
     34 C          13.8692   87.9010   17.2965 C.ar    1  UNL1        0.1724
     35 C          14.2048   86.5619   17.5501 C.ar    1  UNL1        0.1722
     36 C          14.5915   86.1745   18.8478 C.ar    1  UNL1        0.0393
     37 O          13.4879   88.2580   15.9934 O.3     1  UNL1       -0.4684
     38 C          14.3585   88.8423   15.0299 C.3     1  UNL1        0.2526
     39 O          14.1406   85.6464   16.4876 O.3     1  UNL1       -0.4684
     40 C          15.0193   84.5380   16.3229 C.3     1  UNL1        0.2526
     41 C          15.7958   88.9953   22.0981 C.3     1  UNL1        0.1897
     42 C          17.8201   89.3154   21.0481 C.3     1  UNL1        0.1743
     43 O          17.1039   88.4880   21.9370 O.3     1  UNL1       -0.3471
@<TRIPOS>BOND
     1    42    43    1
     2    43    41    1
     3    41     1    1
     4     1     2    1
     5     2     3    1
     6     3     4   ar
     7     4     5   ar
     8     5     6   ar
     9     6    11    1
    10    11    12    1
    11    12    13    1
    12    13    14   ar
    13    14    15   ar
    14    15    27    1
    15    27    28    1
    16    15    16   ar
    17    16    24    1
    18    24    25    1
    19    24    26    1
    20    16    17   ar
    21    17    29    1
    22    29    30    1
    23    17    18   ar
    24    18    19    1
    25    19    20    2
    26    19    21    1
    27    21    22    1
    28     6     7   ar
    29     7     8   ar
    30     8     9    1
    31     9    10    1
    32    10    31    1
    33    31    32   ar
    34    32    33   ar
    35    33    34   ar
    36    34    37    1
    37    37    38    1
    38    34    35   ar
    39    35    39    1
    40    39    40    1
    41    35    36   ar
    42    10     1    1
    43    36    31   ar
    44     8     3   ar
    45    21    11    1
    46    18    13   ar
    47    22    23    1
@<TRIPOS>MOLECULE
*****
 43 47 0 0 0
SMALL
GASTEIGER

@<TRIPOS>ATOM
      1 C          14.7800   87.8984   23.6533 C.3     1  UNL1        0.2392
      2 O          14.8916   87.1670   24.8792 O.3     1  UNL1       -0.4694
      3 C          14.4164   85.8575   24.9912 C.ar    1  UNL1        0.1723
      4 C          14.2656   85.2580   26.2433 C.ar    1  UNL1        0.0398
      5 C          13.7572   83.9584   26.3371 C.ar    1  UNL1        0.0026
      6 C          13.4080   83.2439   25.1750 C.ar    1  UNL1        0.0233
      7 C          13.5672   83.8557   23.9188 C.ar    1  UNL1        0.0393
      8 C          14.0881   85.1494   23.8296 C.ar    1  UNL1        0.1725
      9 O          14.2861   85.7538   22.5853 O.3     1  UNL1       -0.4679
     10 C          15.0554   86.9540   22.4525 C.3     1  UNL1        0.2305
     11 C          12.8212   81.8557   25.2748 C.3     1  UNL1        0.2223
     12 O          11.7715   81.7031   24.3193 O.3     1  UNL1       -0.4715
     13 C          11.2052   80.4537   24.0500 C.ar    1  UNL1        0.1477
     14 C           9.9852   80.3870   23.3863 C.ar    1  UNL1        0.0737
     15 C           9.3912   79.1472   23.0955 C.ar    1  UNL1        0.1406
     16 C          10.0180   77.9504   23.5254 C.ar    1  UNL1        0.0456
     17 C          11.2278   78.0325   24.2661 C.ar    1  UNL1        0.1433
     18 C          11.8683   79.2821   24.4380 C.ar    1  UNL1        0.1049
     19 C          13.2723   79.4152   24.9151 C.2     1  UNL1        0.2095
     20 O          13.9992   78.3954   25.0605 O.2     1  UNL1       -0.2884
     21 C          13.9025   80.7810   25.0579 C.3     1  UNL1        0.2169
     22 O          14.7899   80.7906   26.1472 O.3     1  UNL1       -0.3739
     23 H          15.6485   80.4100   25.8248 H       1  UNL1        0.2110
     24 C           9.3921   76.5994   23.1661 C.3     1  UNL1        0.0283
     25 C           7.9225   76.5187   23.6007 C.3     1  UNL1        0.0049
     26 C           9.5598   76.2501   21.6822 C.3     1  UNL1        0.0049
     27 O           8.1768   79.0759   22.3900 O.3     1  UNL1       -0.4715
     28 C           7.9785   79.5398   21.0582 C.3     1  UNL1        0.2525
     29 O          11.7758   76.8759   24.8304 O.3     1  UNL1       -0.4714
     30 C          11.3064   76.3512   26.0710 C.3     1  UNL1        0.2525
     31 C          14.7299   87.6135   21.1320 C.ar    1  UNL1        0.0241
     32 C          15.6936   88.3891   20.4726 C.ar    1  UNL1        0.0026
     33 C          15.3886   89.0193   19.2653 C.ar    1  UNL1        0.0398
     34 C          14.1078   88.8887   18.6963 C.ar    1  UNL1        0.1724
     35 C          13.1335   88.1201   19.3520 C.ar    1  UNL1        0.1722
     36 C          13.4493   87.4871   20.5700 C.ar    1  UNL1        0.0393
     37 O          13.7646   89.5076   17.4838 O.3     1  UNL1       -0.4684
     38 C          14.2041   89.0696   16.2020 C.3     1  UNL1        0.2526
     39 O          11.8638   88.0105   18.7630 O.3     1  UNL1       -0.4684
     40 C          10.8472   89.0042   18.8455 C.3     1  UNL1        0.2526
     41 C          15.7459   89.0876   23.6865 C.3     1  UNL1        0.1897
     42 C          18.0090   89.4080   23.4061 C.3     1  UNL1        0.1743
     43 O          17.0297   88.6327   24.0600 O.3     1  UNL1       -0.3471
@<TRIPOS>BOND
     1    42    43    1
     2    43    41    1
     3    41     1    1
     4     1     2    1
     5     2     3    1
     6     3     4   ar
     7     4     5   ar
     8     5     6   ar
     9     6    11    1
    10    11    12    1
    11    12    13    1
    12    13    14   ar
    13    14    15   ar
    14    15    27    1
    15    27    28    1
    16    15    16   ar
    17    16    24    1
    18    24    25    1
    19    24    26    1
    20    16    17   ar
    21    17    29    1
    22    29    30    1
    23    17    18   ar
    24    18    19    1
    25    19    20    2
    26    19    21    1
    27    21    22    1
    28     6     7   ar
    29     7     8   ar
    30     8     9    1
    31     9    10    1
    32    10    31    1
    33    31    32   ar
    34    32    33   ar
    35    33    34   ar
    36    34    37    1
    37    37    38    1
    38    34    35   ar
    39    35    39    1
    40    39    40    1
    41    35    36   ar
    42    10     1    1
    43    36    31   ar
    44     8     3   ar
    45    21    11    1
    46    18    13   ar
    47    22    23    1
@<TRIPOS>MOLECULE
*****
 43 47 0 0 0
SMALL
GASTEIGER

@<TRIPOS>ATOM
      1 C          14.0661   87.0831   24.0162 C.3     1  UNL1        0.2392
      2 O          14.4511   86.3466   25.1822 O.3     1  UNL1       -0.4694
      3 C          14.0634   85.0164   25.3638 C.ar    1  UNL1        0.1723
      4 C          14.1913   84.3997   26.6101 C.ar    1  UNL1        0.0398
      5 C          13.7669   83.0779   26.7806 C.ar    1  UNL1        0.0026
      6 C          13.2228   82.3588   25.6991 C.ar    1  UNL1        0.0233
      7 C          13.1017   82.9881   24.4473 C.ar    1  UNL1        0.0393
      8 C          13.5395   84.3045   24.2787 C.ar    1  UNL1        0.1725
      9 O          13.4591   84.9280   23.0307 O.3     1  UNL1       -0.4679
     10 C          14.1352   86.1625   22.7683 C.3     1  UNL1        0.2305
     11 C          12.7266   80.9450   25.8896 C.3     1  UNL1        0.2223
     12 O          11.3303   80.9570   26.1874 O.3     1  UNL1       -0.4715
     13 C          10.5756   79.7804   26.1967 C.ar    1  UNL1        0.1477
     14 C           9.3275   79.7760   26.8096 C.ar    1  UNL1        0.0737
     15 C           8.5411   78.6117   26.8321 C.ar    1  UNL1        0.1406
     16 C           9.0448   77.4134   26.2660 C.ar    1  UNL1        0.0456
     17 C          10.3508   77.4100   25.7064 C.ar    1  UNL1        0.1433
     18 C          11.0711   78.6215   25.5848 C.ar    1  UNL1        0.1049
     19 C          12.2886   78.7600   24.7392 C.2     1  UNL1        0.2095
     20 O          12.6536   77.8201   23.9824 O.2     1  UNL1       -0.2884
     21 C          12.9994   80.0896   24.6386 C.3     1  UNL1        0.2169
     22 O          14.3838   79.8872   24.5090 O.3     1  UNL1       -0.3739
     23 H          14.5608   79.7011   23.5499 H       1  UNL1        0.2110
     24 C           8.1664   76.1586   26.2505 C.3     1  UNL1        0.0283
     25 C           8.0638   75.5178   27.6411 C.3     1  UNL1        0.0049
     26 C           6.7805   76.4188   25.6474 C.3     1  UNL1        0.0049
     27 O           7.2623   78.6151   27.4169 O.3     1  UNL1       -0.4715
     28 C           6.9692   79.0680   28.7350 C.3     1  UNL1        0.2525
     29 O          10.9225   76.2047   25.2859 O.3     1  UNL1       -0.4714
     30 C          10.4859   75.5398   24.1018 C.3     1  UNL1        0.2525
     31 C          13.5248   86.8184   21.5510 C.ar    1  UNL1        0.0241
     32 C          12.5290   87.7941   21.6982 C.ar    1  UNL1        0.0026
     33 C          11.9462   88.3843   20.5757 C.ar    1  UNL1        0.0398
     34 C          12.3469   88.0041   19.2811 C.ar    1  UNL1        0.1724
     35 C          13.3381   87.0232   19.1227 C.ar    1  UNL1        0.1722
     36 C          13.9216   86.4325   20.2604 C.ar    1  UNL1        0.0393
     37 O          11.7836   88.5756   18.1290 O.3     1  UNL1       -0.4684
     38 C          10.7068   89.5073   18.1348 C.3     1  UNL1        0.2526
     39 O          13.7152   86.6614   17.8196 O.3     1  UNL1       -0.4684
     40 C          14.4503   85.4876   17.4885 C.3     1  UNL1        0.2526
     41 C          14.9683   88.3139   23.8771 C.3     1  UNL1        0.1897
     42 C          17.2340   88.1589   24.2587 C.3     1  UNL1        0.1743
     43 O          16.2066   87.9215   23.3228 O.3     1  UNL1       -0.3471
@<TRIPOS>BOND
     1    42    43    1
     2    43    41    1
     3    41     1    1
     4     1     2    1
     5     2     3    1
     6     3     4   ar
     7     4     5   ar
     8     5     6   ar
     9     6    11    1
    10    11    12    1
    11    12    13    1
    12    13    14   ar
    13    14    15   ar
    14    15    27    1
    15    27    28    1
    16    15    16   ar
    17    16    24    1
    18    24    25    1
    19    24    26    1
    20    16    17   ar
    21    17    29    1
    22    29    30    1
    23    17    18   ar
    24    18    19    1
    25    19    20    2
    26    19    21    1
    27    21    22    1
    28     6     7   ar
    29     7     8   ar
    30     8     9    1
    31     9    10    1
    32    10    31    1
    33    31    32   ar
    34    32    33   ar
    35    33    34   ar
    36    34    37    1
    37    37    38    1
    38    34    35   ar
    39    35    39    1
    40    39    40    1
    41    35    36   ar
    42    10     1    1
    43    36    31   ar
    44     8     3   ar
    45    21    11    1
    46    18    13   ar
    47    22    23    1
@<TRIPOS>MOLECULE
*****
 43 47 0 0 0
SMALL
GASTEIGER

@<TRIPOS>ATOM
      1 C          14.7699   86.7009   24.5689 C.3     1  UNL1        0.2392
      2 O          14.7713   85.7938   25.6768 O.3     1  UNL1       -0.4694
      3 C          14.0573   84.5933   25.6353 C.ar    1  UNL1        0.1723
      4 C          13.8271   83.8594   26.8008 C.ar    1  UNL1        0.0398
      5 C          13.0819   82.6771   26.7444 C.ar    1  UNL1        0.0026
      6 C          12.5722   82.2137   25.5163 C.ar    1  UNL1        0.0233
      7 C          12.8127   82.9586   24.3479 C.ar    1  UNL1        0.0393
      8 C          13.5692   84.1321   24.4074 C.ar    1  UNL1        0.1725
      9 O          13.8467   84.8608   23.2477 O.3     1  UNL1       -0.4679
     10 C          14.8278   85.9035   23.2384 C.3     1  UNL1        0.2305
     11 C          11.7332   80.9591   25.4579 C.3     1  UNL1        0.2223
     12 O          10.9803   80.8226   26.6632 O.3     1  UNL1       -0.4715
     13 C           9.9637   79.8710   26.7853 C.ar    1  UNL1        0.1477
     14 C           9.4914   79.5364   28.0496 C.ar    1  UNL1        0.0737
     15 C           8.4668   78.5877   28.2070 C.ar    1  UNL1        0.1406
     16 C           7.9403   77.9276   27.0682 C.ar    1  UNL1        0.0456
     17 C           8.4799   78.2240   25.7876 C.ar    1  UNL1        0.1433
     18 C           9.4216   79.2696   25.6419 C.ar    1  UNL1        0.1049
     19 C           9.7929   79.8487   24.3215 C.2     1  UNL1        0.2095
     20 O           9.1727   79.5121   23.2768 O.2     1  UNL1       -0.2884
     21 C          10.7926   80.9787   24.2389 C.3     1  UNL1        0.2169
     22 O          11.5547   80.8628   23.0642 O.3     1  UNL1       -0.3739
     23 H          11.0180   81.2618   22.3302 H       1  UNL1        0.2110
     24 C           6.7916   76.9288   27.2386 C.3     1  UNL1        0.0283
     25 C           7.2549   75.6407   27.9324 C.3     1  UNL1        0.0049
     26 C           5.5782   77.5439   27.9467 C.3     1  UNL1        0.0049
     27 O           7.9606   78.2762   29.4814 O.3     1  UNL1       -0.4715
     28 C           8.2251   79.0180   30.6681 C.3     1  UNL1        0.2525
     29 O           8.0830   77.4728   24.6765 O.3     1  UNL1       -0.4714
     30 C           8.7380   76.2569   24.3198 C.3     1  UNL1        0.2525
     31 C          14.6003   86.7940   22.0385 C.ar    1  UNL1        0.0241
     32 C          15.6475   87.0568   21.1444 C.ar    1  UNL1        0.0026
     33 C          15.4473   87.8981   20.0489 C.ar    1  UNL1        0.0398
     34 C          14.1929   88.4978   19.8301 C.ar    1  UNL1        0.1724
     35 C          13.1397   88.2466   20.7232 C.ar    1  UNL1        0.1722
     36 C          13.3497   87.3963   21.8263 C.ar    1  UNL1        0.0393
     37 O          13.9542   89.3490   18.7395 O.3     1  UNL1       -0.4684
     38 C          14.1249   88.9790   17.3751 C.3     1  UNL1        0.2526
     39 O          11.9007   88.8612   20.4819 O.3     1  UNL1       -0.4684
     40 C          10.9967   88.4778   19.4507 C.3     1  UNL1        0.2526
     41 C          15.9461   87.6727   24.7120 C.3     1  UNL1        0.1897
     42 C          18.1022   88.0487   23.9958 C.3     1  UNL1        0.1743
     43 O          17.1155   87.0638   24.2056 O.3     1  UNL1       -0.3471
@<TRIPOS>BOND
     1    42    43    1
     2    43    41    1
     3    41     1    1
     4     1     2    1
     5     2     3    1
     6     3     4   ar
     7     4     5   ar
     8     5     6   ar
     9     6    11    1
    10    11    12    1
    11    12    13    1
    12    13    14   ar
    13    14    15   ar
    14    15    27    1
    15    27    28    1
    16    15    16   ar
    17    16    24    1
    18    24    25    1
    19    24    26    1
    20    16    17   ar
    21    17    29    1
    22    29    30    1
    23    17    18   ar
    24    18    19    1
    25    19    20    2
    26    19    21    1
    27    21    22    1
    28     6     7   ar
    29     7     8   ar
    30     8     9    1
    31     9    10    1
    32    10    31    1
    33    31    32   ar
    34    32    33   ar
    35    33    34   ar
    36    34    37    1
    37    37    38    1
    38    34    35   ar
    39    35    39    1
    40    39    40    1
    41    35    36   ar
    42    10     1    1
    43    36    31   ar
    44     8     3   ar
    45    21    11    1
    46    18    13   ar
    47    22    23    1
@<TRIPOS>MOLECULE
*****
 43 47 0 0 0
SMALL
GASTEIGER

@<TRIPOS>ATOM
      1 C           9.6732   76.2433   26.0410 C.3     1  UNL1        0.2392
      2 O           8.6770   75.2243   25.9023 O.3     1  UNL1       -0.4694
      3 C           7.7902   75.2156   24.8224 C.ar    1  UNL1        0.1723
      4 C           6.6537   74.4043   24.8388 C.ar    1  UNL1        0.0398
      5 C           5.7605   74.4341   23.7630 C.ar    1  UNL1        0.0026
      6 C           6.0061   75.2681   22.6554 C.ar    1  UNL1        0.0233
      7 C           7.1554   76.0785   22.6472 C.ar    1  UNL1        0.0393
      8 C           8.0517   76.0352   23.7185 C.ar    1  UNL1        0.1725
      9 O           9.2162   76.8076   23.7051 O.3     1  UNL1       -0.4679
     10 C          10.2694   76.5865   24.6495 C.3     1  UNL1        0.2305
     11 C           5.0232   75.3326   21.5103 C.3     1  UNL1        0.2223
     12 O           3.9847   74.3730   21.7079 O.3     1  UNL1       -0.4715
     13 C           2.8344   74.3680   20.9136 C.ar    1  UNL1        0.1477
     14 C           2.0192   73.2416   20.9017 C.ar    1  UNL1        0.0737
     15 C           0.8530   73.2058   20.1186 C.ar    1  UNL1        0.1406
     16 C           0.5274   74.3116   19.2932 C.ar    1  UNL1        0.0456
     17 C           1.4051   75.4284   19.2577 C.ar    1  UNL1        0.1433
     18 C           2.5042   75.4925   20.1461 C.ar    1  UNL1        0.1049
     19 C           3.2746   76.7421   20.3945 C.2     1  UNL1        0.2095
     20 O           2.8863   77.8408   19.9132 O.2     1  UNL1       -0.2884
     21 C           4.4266   76.7455   21.3722 C.3     1  UNL1        0.2169
     22 O           5.4271   77.6297   20.9348 O.3     1  UNL1       -0.3739
     23 H           5.1564   78.5399   21.2250 H       1  UNL1        0.2110
     24 C          -0.7685   74.2884   18.4770 C.3     1  UNL1        0.0283
     25 C          -0.9716   72.9423   17.7686 C.3     1  UNL1        0.0049
     26 C          -1.9956   74.6758   19.3114 C.3     1  UNL1        0.0049
     27 O           0.0064   72.0830   20.1347 O.3     1  UNL1       -0.4715
     28 C           0.3395   70.8181   20.6979 C.3     1  UNL1        0.2525
     29 O           1.1826   76.4568   18.3361 O.3     1  UNL1       -0.4714
     30 C           2.1791   76.8488   17.3938 C.3     1  UNL1        0.2525
     31 C          11.1575   77.8083   24.7039 C.ar    1  UNL1        0.0241
     32 C          10.5937   79.0915   24.7332 C.ar    1  UNL1        0.0026
     33 C          11.4112   80.2224   24.7590 C.ar    1  UNL1        0.0398
     34 C          12.8124   80.0898   24.7507 C.ar    1  UNL1        0.1724
     35 C          13.3870   78.8097   24.7144 C.ar    1  UNL1        0.1722
     36 C          12.5552   77.6734   24.6887 C.ar    1  UNL1        0.0393
     37 O          13.6663   81.2039   24.7761 O.3     1  UNL1       -0.4684
     38 C          13.3694   82.4329   25.4311 C.3     1  UNL1        0.2526
     39 O          14.7872   78.7080   24.7033 O.3     1  UNL1       -0.4684
     40 C          15.5395   78.0319   23.7010 C.3     1  UNL1        0.2526
     41 C          10.7453   75.7688   27.0279 C.3     1  UNL1        0.1897
     42 C           9.9696   77.2201   28.6389 C.3     1  UNL1        0.1743
     43 O          11.0958   76.8377   27.8818 O.3     1  UNL1       -0.3471
@<TRIPOS>BOND
     1    42    43    1
     2    43    41    1
     3    41     1    1
     4     1     2    1
     5     2     3    1
     6     3     4   ar
     7     4     5   ar
     8     5     6   ar
     9     6    11    1
    10    11    12    1
    11    12    13    1
    12    13    14   ar
    13    14    15   ar
    14    15    27    1
    15    27    28    1
    16    15    16   ar
    17    16    24    1
    18    24    25    1
    19    24    26    1
    20    16    17   ar
    21    17    29    1
    22    29    30    1
    23    17    18   ar
    24    18    19    1
    25    19    20    2
    26    19    21    1
    27    21    22    1
    28     6     7   ar
    29     7     8   ar
    30     8     9    1
    31     9    10    1
    32    10    31    1
    33    31    32   ar
    34    32    33   ar
    35    33    34   ar
    36    34    37    1
    37    37    38    1
    38    34    35   ar
    39    35    39    1
    40    39    40    1
    41    35    36   ar
    42    10     1    1
    43    36    31   ar
    44     8     3   ar
    45    21    11    1
    46    18    13   ar
    47    22    23    1
@<TRIPOS>MOLECULE
*****
 43 47 0 0 0
SMALL
GASTEIGER

@<TRIPOS>ATOM
      1 C           9.6443   79.7124   27.9989 C.3     1  UNL1        0.2392
      2 O           8.6352   78.8007   28.4470 O.3     1  UNL1       -0.4694
      3 C           7.8573   78.0738   27.5418 C.ar    1  UNL1        0.1723
      4 C           6.7000   77.4157   27.9632 C.ar    1  UNL1        0.0398
      5 C           5.9165   76.7208   27.0362 C.ar    1  UNL1        0.0026
      6 C           6.2939   76.6690   25.6805 C.ar    1  UNL1        0.0233
      7 C           7.4631   77.3323   25.2672 C.ar    1  UNL1        0.0393
      8 C           8.2497   78.0140   26.1997 C.ar    1  UNL1        0.1725
      9 O           9.4333   78.6451   25.8079 O.3     1  UNL1       -0.4679
     10 C          10.3827   79.1150   26.7712 C.3     1  UNL1        0.2305
     11 C           5.4290   75.9536   24.6699 C.3     1  UNL1        0.2223
     12 O           4.5009   76.8706   24.0902 O.3     1  UNL1       -0.4715
     13 C           3.7313   76.5241   22.9758 C.ar    1  UNL1        0.1477
     14 C           2.6183   77.2914   22.6508 C.ar    1  UNL1        0.0737
     15 C           1.8265   76.9736   21.5343 C.ar    1  UNL1        0.1406
     16 C           2.1364   75.8294   20.7567 C.ar    1  UNL1        0.0456
     17 C           3.2329   75.0108   21.1397 C.ar    1  UNL1        0.1433
     18 C           4.0870   75.4195   22.1909 C.ar    1  UNL1        0.1049
     19 C           5.4160   74.7981   22.4442 C.2     1  UNL1        0.2095
     20 O           5.8954   73.9582   21.6354 O.2     1  UNL1       -0.2884
     21 C           6.2875   75.2964   23.5734 C.3     1  UNL1        0.2169
     22 O           7.0118   74.2289   24.1301 O.3     1  UNL1       -0.3739
     23 H           7.8089   74.0884   23.5549 H       1  UNL1        0.2110
     24 C           1.2997   75.5125   19.5134 C.3     1  UNL1        0.0283
     25 C           2.0467   75.8630   18.2195 C.3     1  UNL1        0.0049
     26 C           0.7960   74.0640   19.4975 C.3     1  UNL1        0.0049
     27 O           0.7232   77.7708   21.1808 O.3     1  UNL1       -0.4715
     28 C           0.4726   79.0825   21.6756 C.3     1  UNL1        0.2525
     29 O           3.4572   73.7981   20.4799 O.3     1  UNL1       -0.4714
     30 C           4.5596   73.6193   19.5925 C.3     1  UNL1        0.2525
     31 C          11.2987   80.1252   26.1194 C.ar    1  UNL1        0.0241
     32 C          10.8773   81.4504   25.9416 C.ar    1  UNL1        0.0026
     33 C          11.7113   82.3798   25.3183 C.ar    1  UNL1        0.0398
     34 C          12.9845   81.9978   24.8555 C.ar    1  UNL1        0.1724
     35 C          13.4132   80.6718   25.0224 C.ar    1  UNL1        0.1722
     36 C          12.5658   79.7399   25.6526 C.ar    1  UNL1        0.0393
     37 O          13.8507   82.9046   24.2242 O.3     1  UNL1       -0.4684
     38 C          13.6374   84.3110   24.1582 C.3     1  UNL1        0.2526
     39 O          14.6864   80.3186   24.5477 O.3     1  UNL1       -0.4684
     40 C          15.2490   79.0137   24.6402 C.3     1  UNL1        0.2526
     41 C          10.6005   80.0146   29.1577 C.3     1  UNL1        0.1897
     42 C           9.4931   80.5337   31.1088 C.3     1  UNL1        0.1743
     43 O          10.0624   79.4887   30.3528 O.3     1  UNL1       -0.3471
@<TRIPOS>BOND
     1    42    43    1
     2    43    41    1
     3    41     1    1
     4     1     2    1
     5     2     3    1
     6     3     4   ar
     7     4     5   ar
     8     5     6   ar
     9     6    11    1
    10    11    12    1
    11    12    13    1
    12    13    14   ar
    13    14    15   ar
    14    15    27    1
    15    27    28    1
    16    15    16   ar
    17    16    24    1
    18    24    25    1
    19    24    26    1
    20    16    17   ar
    21    17    29    1
    22    29    30    1
    23    17    18   ar
    24    18    19    1
    25    19    20    2
    26    19    21    1
    27    21    22    1
    28     6     7   ar
    29     7     8   ar
    30     8     9    1
    31     9    10    1
    32    10    31    1
    33    31    32   ar
    34    32    33   ar
    35    33    34   ar
    36    34    37    1
    37    37    38    1
    38    34    35   ar
    39    35    39    1
    40    39    40    1
    41    35    36   ar
    42    10     1    1
    43    36    31   ar
    44     8     3   ar
    45    21    11    1
    46    18    13   ar
    47    22    23    1
@<TRIPOS>MOLECULE
*****
 43 47 0 0 0
SMALL
GASTEIGER

@<TRIPOS>ATOM
      1 C          11.3720   76.7576   24.0539 C.3     1  UNL1        0.2392
      2 O          12.5537   77.1070   24.7830 O.3     1  UNL1       -0.4694
      3 C          12.9750   78.4349   24.8930 C.ar    1  UNL1        0.1723
      4 C          14.2590   78.7407   25.3490 C.ar    1  UNL1        0.0398
      5 C          14.6739   80.0744   25.4209 C.ar    1  UNL1        0.0026
      6 C          13.8001   81.1139   25.0484 C.ar    1  UNL1        0.0233
      7 C          12.5079   80.7952   24.5938 C.ar    1  UNL1        0.0393
      8 C          12.0935   79.4618   24.5366 C.ar    1  UNL1        0.1725
      9 O          10.7995   79.1348   24.1225 O.3     1  UNL1       -0.4679
     10 C          10.2673   77.8184   24.3064 C.3     1  UNL1        0.2305
     11 C          14.2584   82.5525   25.0865 C.3     1  UNL1        0.2223
     12 O          13.8527   83.2226   23.8929 O.3     1  UNL1       -0.4715
     13 C          13.9573   84.6105   23.7631 C.ar    1  UNL1        0.1477
     14 C          13.8792   85.1848   22.4992 C.ar    1  UNL1        0.0737
     15 C          13.9752   86.5770   22.3343 C.ar    1  UNL1        0.1406
     16 C          14.2026   87.4036   23.4635 C.ar    1  UNL1        0.0456
     17 C          14.3530   86.8006   24.7413 C.ar    1  UNL1        0.1433
     18 C          14.1292   85.4126   24.8989 C.ar    1  UNL1        0.1049
     19 C          13.9554   84.7648   26.2281 C.2     1  UNL1        0.2095
     20 O          13.8683   85.4625   27.2746 O.2     1  UNL1       -0.2884
     21 C          13.6996   83.2788   26.3240 C.3     1  UNL1        0.2169
     22 O          14.3070   82.7589   27.4794 O.3     1  UNL1       -0.3739
     23 H          13.6866   82.9313   28.2354 H       1  UNL1        0.2110
     24 C          14.2599   88.9240   23.2866 C.3     1  UNL1        0.0283
     25 C          15.4350   89.3500   22.3963 C.3     1  UNL1        0.0049
     26 C          12.9334   89.5076   22.7846 C.3     1  UNL1        0.0049
     27 O          13.8576   87.1633   21.0616 O.3     1  UNL1       -0.4715
     28 C          13.2743   86.5348   19.9245 C.3     1  UNL1        0.2525
     29 O          14.7314   87.5827   25.8375 O.3     1  UNL1       -0.4714
     30 C          16.0826   87.9949   26.0346 C.3     1  UNL1        0.2525
     31 C           9.0817   77.6252   23.3891 C.ar    1  UNL1        0.0241
     32 C           9.1344   78.0733   22.0618 C.ar    1  UNL1        0.0026
     33 C           8.0327   77.9183   21.2191 C.ar    1  UNL1        0.0398
     34 C           6.8524   77.3146   21.6921 C.ar    1  UNL1        0.1724
     35 C           6.7870   76.8688   23.0213 C.ar    1  UNL1        0.1722
     36 C           7.9031   77.0287   23.8654 C.ar    1  UNL1        0.0393
     37 O           5.7247   77.1415   20.8740 O.3     1  UNL1       -0.4684
     38 C           4.7875   78.1679   20.5648 C.3     1  UNL1        0.2526
     39 O           5.5958   76.2737   23.4665 O.3     1  UNL1       -0.4684
     40 C           4.9901   76.5272   24.7301 C.3     1  UNL1        0.2526
     41 C          10.9256   75.3498   24.4629 C.3     1  UNL1        0.1897
     42 C          10.4477   73.9932   22.6645 C.3     1  UNL1        0.1743
     43 O          11.4596   74.4108   23.5530 O.3     1  UNL1       -0.3471
@<TRIPOS>BOND
     1    42    43    1
     2    43    41    1
     3    41     1    1
     4     1     2    1
     5     2     3    1
     6     3     4   ar
     7     4     5   ar
     8     5     6   ar
     9     6    11    1
    10    11    12    1
    11    12    13    1
    12    13    14   ar
    13    14    15   ar
    14    15    27    1
    15    27    28    1
    16    15    16   ar
    17    16    24    1
    18    24    25    1
    19    24    26    1
    20    16    17   ar
    21    17    29    1
    22    29    30    1
    23    17    18   ar
    24    18    19    1
    25    19    20    2
    26    19    21    1
    27    21    22    1
    28     6     7   ar
    29     7     8   ar
    30     8     9    1
    31     9    10    1
    32    10    31    1
    33    31    32   ar
    34    32    33   ar
    35    33    34   ar
    36    34    37    1
    37    37    38    1
    38    34    35   ar
    39    35    39    1
    40    39    40    1
    41    35    36   ar
    42    10     1    1
    43    36    31   ar
    44     8     3   ar
    45    21    11    1
    46    18    13   ar
    47    22    23    1
@<TRIPOS>MOLECULE
*****
 43 47 0 0 0
SMALL
GASTEIGER

@<TRIPOS>ATOM
      1 C          10.1252   78.1053   25.5784 C.3     1  UNL1        0.2392
      2 O          10.1234   79.3805   26.2296 O.3     1  UNL1       -0.4694
      3 C          11.0013   80.3965   25.8427 C.ar    1  UNL1        0.1723
      4 C          11.1956   81.5181   26.6516 C.ar    1  UNL1        0.0398
      5 C          12.1034   82.5087   26.2634 C.ar    1  UNL1        0.0026
      6 C          12.8145   82.3895   25.0539 C.ar    1  UNL1        0.0233
      7 C          12.6089   81.2577   24.2448 C.ar    1  UNL1        0.0393
      8 C          11.6908   80.2772   24.6307 C.ar    1  UNL1        0.1725
      9 O          11.4501   79.1667   23.8172 O.3     1  UNL1       -0.4679
     10 C          10.3381   78.2962   24.0527 C.3     1  UNL1        0.2305
     11 C          13.8250   83.4374   24.6512 C.3     1  UNL1        0.2223
     12 O          13.6667   83.7579   23.2690 O.3     1  UNL1       -0.4715
     13 C          14.3253   84.8476   22.6921 C.ar    1  UNL1        0.1477
     14 C          14.4221   84.9305   21.3074 C.ar    1  UNL1        0.0737
     15 C          15.0728   86.0152   20.6954 C.ar    1  UNL1        0.1406
     16 C          15.6803   87.0133   21.4983 C.ar    1  UNL1        0.0456
     17 C          15.6384   86.8816   22.9125 C.ar    1  UNL1        0.1433
     18 C          14.8727   85.8495   23.5041 C.ar    1  UNL1        0.1049
     19 C          14.5201   85.8283   24.9504 C.2     1  UNL1        0.2095
     20 O          14.7840   86.8154   25.6889 O.2     1  UNL1       -0.2884
     21 C          13.6817   84.7047   25.5140 C.3     1  UNL1        0.2169
     22 O          14.0831   84.4171   26.8294 O.3     1  UNL1       -0.3739
     23 H          13.6302   85.0739   27.4206 H       1  UNL1        0.2110
     24 C          16.3478   88.2181   20.8282 C.3     1  UNL1        0.0283
     25 C          15.5439   89.5074   21.0434 C.3     1  UNL1        0.0049
     26 C          17.8115   88.3904   21.2527 C.3     1  UNL1        0.0049
     27 O          15.1380   86.1213   19.2946 O.3     1  UNL1       -0.4715
     28 C          14.2409   85.4905   18.3860 C.3     1  UNL1        0.2525
     29 O          16.3633   87.7696   23.7139 O.3     1  UNL1       -0.4714
     30 C          17.6460   87.4315   24.2381 C.3     1  UNL1        0.2525
     31 C          10.5753   76.9797   23.3488 C.ar    1  UNL1        0.0241
     32 C          11.8106   76.3275   23.4668 C.ar    1  UNL1        0.0026
     33 C          12.0412   75.1241   22.7987 C.ar    1  UNL1        0.0398
     34 C          11.0384   74.5518   21.9936 C.ar    1  UNL1        0.1724
     35 C           9.8006   75.2004   21.8633 C.ar    1  UNL1        0.1722
     36 C           9.5756   76.4145   22.5409 C.ar    1  UNL1        0.0393
     37 O          11.2339   73.3430   21.3069 O.3     1  UNL1       -0.4684
     38 C          12.1363   72.3201   21.7155 C.3     1  UNL1        0.2526
     39 O           8.8205   74.6082   21.0508 O.3     1  UNL1       -0.4684
     40 C           7.8693   73.6495   21.5022 C.3     1  UNL1        0.2526
     41 C           8.8136   77.3775   25.8923 C.3     1  UNL1        0.1897
     42 C          10.3041   76.0786   27.0731 C.3     1  UNL1        0.1743
     43 O           9.1037   76.0677   26.3337 O.3     1  UNL1       -0.3471
@<TRIPOS>BOND
     1    42    43    1
     2    43    41    1
     3    41     1    1
     4     1     2    1
     5     2     3    1
     6     3     4   ar
     7     4     5   ar
     8     5     6   ar
     9     6    11    1
    10    11    12    1
    11    12    13    1
    12    13    14   ar
    13    14    15   ar
    14    15    27    1
    15    27    28    1
    16    15    16   ar
    17    16    24    1
    18    24    25    1
    19    24    26    1
    20    16    17   ar
    21    17    29    1
    22    29    30    1
    23    17    18   ar
    24    18    19    1
    25    19    20    2
    26    19    21    1
    27    21    22    1
    28     6     7   ar
    29     7     8   ar
    30     8     9    1
    31     9    10    1
    32    10    31    1
    33    31    32   ar
    34    32    33   ar
    35    33    34   ar
    36    34    37    1
    37    37    38    1
    38    34    35   ar
    39    35    39    1
    40    39    40    1
    41    35    36   ar
    42    10     1    1
    43    36    31   ar
    44     8     3   ar
    45    21    11    1
    46    18    13   ar
    47    22    23    1
