@<TRIPOS>MOLECULE
*****
 48 53 0 0 0
SMALL
GASTEIGER

@<TRIPOS>ATOM
      1 C         -66.3985  -53.7763  -23.7132 C.ar    1  UNL1        0.0702
      2 C         -66.6104  -54.8324  -24.6133 C.ar    1  UNL1        0.0191
      3 C         -67.8975  -55.3323  -24.8169 C.ar    1  UNL1        0.0356
      4 C         -68.9793  -54.7671  -24.1223 C.ar    1  UNL1        0.1318
      5 N         -68.7519  -53.7251  -23.2754 N.ar    1  UNL1       -0.2279
      6 C         -67.5077  -53.2215  -23.0623 C.ar    1  UNL1        0.1149
      7 N         -70.3232  -55.2555  -24.3055 N.pl3   1  UNL1       -0.2927
      8 C         -70.9530  -56.0595  -23.2514 C.3     1  UNL1        0.0923
      9 C         -71.7261  -57.2320  -23.8616 C.3     1  UNL1        0.0258
     10 C         -72.7012  -56.7781  -24.9689 C.3     1  UNL1        0.0577
     11 C         -71.9775  -55.9148  -26.0383 C.3     1  UNL1        0.1222
     12 C         -71.1663  -54.7639  -25.4049 C.3     1  UNL1        0.1033
     13 C         -71.1159  -56.7846  -26.9270 C.2     1  UNL1        0.3151
     14 O         -71.5182  -57.1404  -28.0671 O.2     1  UNL1       -0.2502
     15 O         -69.8386  -57.1544  -26.5151 O.3     1  UNL1       -0.4801
     16 H         -69.4693  -56.8577  -25.6195 H       1  UNL1        0.2951
     17 C         -73.9338  -56.0577  -24.3732 C.3     1  UNL1        0.2059
     18 O         -75.0508  -56.1235  -25.2620 O.3     1  UNL1       -0.4754
     19 C         -75.1037  -55.5768  -26.5548 C.ar    1  UNL1        0.1388
     20 C         -75.1785  -56.4591  -27.6374 C.ar    1  UNL1        0.0369
     21 C         -75.2383  -55.9743  -28.9448 C.ar    1  UNL1        0.0033
     22 C         -75.2206  -54.5992  -29.1850 C.ar    1  UNL1        0.0066
     23 C         -75.1390  -53.6918  -28.1142 C.ar    1  UNL1        0.0785
     24 C         -75.0772  -54.1886  -26.7994 C.ar    1  UNL1        0.0433
     25 C         -75.1178  -52.2330  -28.3640 C.2     1  UNL1        0.3381
     26 O         -75.3493  -51.7791  -29.5174 O.2     1  UNL1       -0.2451
     27 O         -74.8425  -51.3463  -27.3260 O.3     1  UNL1       -0.4771
     28 H         -74.8261  -50.3462  -27.4864 H       1  UNL1        0.2954
     29 C         -64.3247  -52.5612  -24.5164 C.2     1  UNL1        0.2839
     30 O         -64.5167  -52.8449  -25.7294 O.2     1  UNL1       -0.2665
     31 N         -65.0913  -53.2180  -23.4959 N.am    1  UNL1       -0.2766
     32 H         -64.6277  -53.3949  -22.5768 H       1  UNL1        0.1553
     33 C         -64.3515  -49.3445  -24.8532 C.3     1  UNL1        0.0345
     34 C         -63.2627  -50.2195  -24.3091 C.ar    1  UNL1        0.0202
     35 C         -63.2502  -51.6133  -24.1720 C.ar    1  UNL1        0.1946
     36 O         -62.0893  -52.0081  -23.6793 O.2     1  UNL1       -0.4492
     37 C         -61.3571  -50.9417  -23.4690 C.ar    1  UNL1        0.1452
     38 C         -60.0682  -50.8900  -22.9498 C.ar    1  UNL1        0.0375
     39 C         -59.4661  -49.6280  -22.8028 C.ar    1  UNL1        0.0031
     40 C         -60.1572  -48.4430  -23.1751 C.ar    1  UNL1        0.0002
     41 C         -61.4676  -48.5409  -23.7015 C.ar    1  UNL1        0.0028
     42 C         -62.0332  -49.8093  -23.8335 C.ar    1  UNL1        0.0337
     43 C         -59.5119  -47.1153  -23.0142 C.ar    1  UNL1        0.0000
     44 C         -58.1150  -47.0110  -22.8716 C.ar    1  UNL1        0.0000
     45 C         -57.5100  -45.7595  -22.7204 C.ar    1  UNL1        0.0000
     46 C         -58.2892  -44.6007  -22.7110 C.ar    1  UNL1        0.0000
     47 C         -59.6757  -44.6906  -22.8522 C.ar    1  UNL1        0.0000
     48 C         -60.2863  -45.9395  -23.0027 C.ar    1  UNL1        0.0000
@<TRIPOS>BOND
     1    33    34    1
     2    34    35   ar
     3    35    29    1
     4    29    30    2
     5    29    31   am
     6    31     1    1
     7     1     2   ar
     8     2     3   ar
     9     3     4   ar
    10     4     7    1
    11     7     8    1
    12     8     9    1
    13     9    10    1
    14    10    17    1
    15    17    18    1
    16    18    19    1
    17    19    20   ar
    18    20    21   ar
    19    21    22   ar
    20    22    23   ar
    21    23    25    1
    22    25    26    2
    23    25    27    1
    24    23    24   ar
    25    10    11    1
    26    11    13    1
    27    13    14    2
    28    13    15    1
    29    11    12    1
    30     4     5   ar
    31     5     6   ar
    32    35    36   ar
    33    36    37   ar
    34    37    38   ar
    35    38    39   ar
    36    39    40   ar
    37    40    43    1
    38    43    44   ar
    39    44    45   ar
    40    45    46   ar
    41    46    47   ar
    42    47    48   ar
    43    40    41   ar
    44    41    42   ar
    45    42    34   ar
    46     6     1   ar
    47    42    37   ar
    48    12     7    1
    49    48    43   ar
    50    24    19   ar
    51    31    32    1
    52    27    28    1
    53    15    16    1
@<TRIPOS>MOLECULE
*****
 48 53 0 0 0
SMALL
GASTEIGER

@<TRIPOS>ATOM
      1 C         -62.1698  -41.2054  -20.2246 C.ar    1  UNL1        0.0702
      2 C         -60.7886  -41.4551  -20.2103 C.ar    1  UNL1        0.0191
      3 C         -60.2770  -42.6009  -20.8215 C.ar    1  UNL1        0.0356
      4 C         -61.1513  -43.4972  -21.4574 C.ar    1  UNL1        0.1318
      5 N         -62.4842  -43.2187  -21.4817 N.ar    1  UNL1       -0.2279
      6 C         -63.0045  -42.1091  -20.8942 C.ar    1  UNL1        0.1149
      7 N         -60.6616  -44.6912  -22.0998 N.pl3   1  UNL1       -0.2927
      8 C         -61.1154  -46.0058  -21.6305 C.3     1  UNL1        0.0923
      9 C         -59.9451  -46.9925  -21.5873 C.3     1  UNL1        0.0258
     10 C         -59.1676  -47.0383  -22.9201 C.3     1  UNL1        0.0577
     11 C         -58.7369  -45.6155  -23.3707 C.3     1  UNL1        0.1222
     12 C         -59.9184  -44.6216  -23.3662 C.3     1  UNL1        0.1033
     13 C         -57.5837  -45.1189  -22.5268 C.2     1  UNL1        0.3151
     14 O         -57.4424  -43.8899  -22.2865 O.2     1  UNL1       -0.2502
     15 O         -56.6951  -46.0258  -21.9559 O.3     1  UNL1       -0.4801
     16 H         -56.7984  -47.0234  -22.0995 H       1  UNL1        0.2951
     17 C         -59.9704  -47.7797  -24.0151 C.3     1  UNL1        0.2059
     18 O         -61.0761  -48.4899  -23.4541 O.3     1  UNL1       -0.4754
     19 C         -61.1771  -49.8856  -23.3306 C.ar    1  UNL1        0.1388
     20 C         -60.0205  -50.6002  -23.0020 C.ar    1  UNL1        0.0369
     21 C         -60.0604  -51.9881  -22.8610 C.ar    1  UNL1        0.0033
     22 C         -61.2587  -52.6788  -23.0507 C.ar    1  UNL1        0.0066
     23 C         -62.4335  -51.9842  -23.3884 C.ar    1  UNL1        0.0785
     24 C         -62.3845  -50.5853  -23.5304 C.ar    1  UNL1        0.0433
     25 C         -63.7060  -52.7123  -23.5926 C.2     1  UNL1        0.3381
     26 O         -64.4495  -52.4361  -24.5729 O.2     1  UNL1       -0.2451
     27 O         -64.0944  -53.7113  -22.7036 O.3     1  UNL1       -0.4771
     28 H         -64.9631  -54.2157  -22.8348 H       1  UNL1        0.2954
     29 C         -62.7817  -38.7468  -20.2817 C.2     1  UNL1        0.2839
     30 O         -61.9419  -38.4645  -21.1782 O.2     1  UNL1       -0.2665
     31 N         -62.7314  -40.0237  -19.6279 N.am    1  UNL1       -0.2766
     32 H         -63.0192  -40.0687  -18.6249 H       1  UNL1        0.1553
     33 C         -65.9969  -38.8118  -20.6277 C.3     1  UNL1        0.0345
     34 C         -65.1435  -37.7457  -20.0097 C.ar    1  UNL1        0.0202
     35 C         -63.7503  -37.7160  -19.8684 C.ar    1  UNL1        0.1946
     36 O         -63.3783  -36.5835  -19.2980 O.2     1  UNL1       -0.4492
     37 C         -64.4588  -35.8874  -19.0418 C.ar    1  UNL1        0.1452
     38 C         -64.5357  -34.6374  -18.4375 C.ar    1  UNL1        0.0375
     39 C         -65.8091  -34.0705  -18.2537 C.ar    1  UNL1        0.0031
     40 C         -66.9802  -34.7574  -18.6744 C.ar    1  UNL1        0.0002
     41 C         -66.8567  -36.0274  -19.2873 C.ar    1  UNL1        0.0028
     42 C         -65.5776  -36.5588  -19.4537 C.ar    1  UNL1        0.0337
     43 C         -68.3201  -34.1496  -18.4740 C.ar    1  UNL1        0.0000
     44 C         -68.4893  -33.0643  -17.5931 C.ar    1  UNL1        0.0000
     45 C         -69.7522  -32.4937  -17.4064 C.ar    1  UNL1        0.0000
     46 C         -70.8577  -32.9971  -18.0954 C.ar    1  UNL1        0.0000
     47 C         -70.7030  -34.0728  -18.9725 C.ar    1  UNL1        0.0000
     48 C         -69.4427  -34.6480  -19.1624 C.ar    1  UNL1        0.0000
@<TRIPOS>BOND
     1    33    34    1
     2    34    35   ar
     3    35    29    1
     4    29    30    2
     5    29    31   am
     6    31     1    1
     7     1     2   ar
     8     2     3   ar
     9     3     4   ar
    10     4     7    1
    11     7     8    1
    12     8     9    1
    13     9    10    1
    14    10    17    1
    15    17    18    1
    16    18    19    1
    17    19    20   ar
    18    20    21   ar
    19    21    22   ar
    20    22    23   ar
    21    23    25    1
    22    25    26    2
    23    25    27    1
    24    23    24   ar
    25    10    11    1
    26    11    13    1
    27    13    14    2
    28    13    15    1
    29    11    12    1
    30     4     5   ar
    31     5     6   ar
    32    35    36   ar
    33    36    37   ar
    34    37    38   ar
    35    38    39   ar
    36    39    40   ar
    37    40    43    1
    38    43    44   ar
    39    44    45   ar
    40    45    46   ar
    41    46    47   ar
    42    47    48   ar
    43    40    41   ar
    44    41    42   ar
    45    42    34   ar
    46     6     1   ar
    47    42    37   ar
    48    12     7    1
    49    48    43   ar
    50    24    19   ar
    51    31    32    1
    52    27    28    1
    53    15    16    1
@<TRIPOS>MOLECULE
*****
 48 53 0 0 0
SMALL
GASTEIGER

@<TRIPOS>ATOM
      1 C         -62.2626  -41.2022  -20.2493 C.ar    1  UNL1        0.0702
      2 C         -60.8854  -41.4734  -20.2305 C.ar    1  UNL1        0.0191
      3 C         -60.3876  -42.6174  -20.8561 C.ar    1  UNL1        0.0356
      4 C         -61.2715  -43.4904  -21.5109 C.ar    1  UNL1        0.1318
      5 N         -62.5998  -43.1912  -21.5389 N.ar    1  UNL1       -0.2279
      6 C         -63.1068  -42.0828  -20.9377 C.ar    1  UNL1        0.1149
      7 N         -60.7960  -44.6819  -22.1685 N.pl3   1  UNL1       -0.2927
      8 C         -61.2890  -45.9951  -21.7362 C.3     1  UNL1        0.0923
      9 C         -60.1425  -47.0093  -21.6906 C.3     1  UNL1        0.0258
     10 C         -59.3393  -47.0454  -23.0084 C.3     1  UNL1        0.0577
     11 C         -58.8673  -45.6240  -23.4202 C.3     1  UNL1        0.1222
     12 C         -60.0257  -44.6033  -23.4181 C.3     1  UNL1        0.1033
     13 C         -57.7205  -45.1717  -22.5432 C.2     1  UNL1        0.3151
     14 O         -56.8873  -46.0023  -22.0913 O.2     1  UNL1       -0.2502
     15 O         -57.5400  -43.8181  -22.2731 O.3     1  UNL1       -0.4801
     16 H         -58.1704  -43.1192  -22.6482 H       1  UNL1        0.2951
     17 C         -60.1362  -47.7453  -24.1346 C.3     1  UNL1        0.2059
     18 O         -60.2406  -46.9106  -25.2896 O.3     1  UNL1       -0.4754
     19 C         -61.3900  -46.7433  -26.0797 C.ar    1  UNL1        0.1388
     20 C         -61.9364  -45.4596  -26.1791 C.ar    1  UNL1        0.0369
     21 C         -63.0749  -45.2313  -26.9533 C.ar    1  UNL1        0.0033
     22 C         -63.6831  -46.2867  -27.6354 C.ar    1  UNL1        0.0066
     23 C         -63.1572  -47.5875  -27.5461 C.ar    1  UNL1        0.0785
     24 C         -62.0103  -47.8096  -26.7621 C.ar    1  UNL1        0.0433
     25 C         -63.7998  -48.7101  -28.2658 C.2     1  UNL1        0.3381
     26 O         -63.9890  -49.8145  -27.6876 O.2     1  UNL1       -0.2451
     27 O         -64.2029  -48.5569  -29.5900 O.3     1  UNL1       -0.4771
     28 H         -64.6439  -49.3188  -30.0911 H       1  UNL1        0.2954
     29 C         -62.8438  -38.7357  -20.2756 C.2     1  UNL1        0.2839
     30 O         -61.9999  -38.4526  -21.1681 O.2     1  UNL1       -0.2665
     31 N         -62.8098  -40.0213  -19.6380 N.am    1  UNL1       -0.2766
     32 H         -63.0988  -40.0754  -18.6358 H       1  UNL1        0.1553
     33 C         -66.0586  -38.7528  -20.6310 C.3     1  UNL1        0.0345
     34 C         -65.1928  -37.7073  -19.9951 C.ar    1  UNL1        0.0202
     35 C         -63.7998  -37.6983  -19.8498 C.ar    1  UNL1        0.1946
     36 O         -63.4143  -36.5793  -19.2619 O.2     1  UNL1       -0.4492
     37 C         -64.4861  -35.8726  -18.9984 C.ar    1  UNL1        0.1452
     38 C         -64.5481  -34.6307  -18.3760 C.ar    1  UNL1        0.0375
     39 C         -65.8144  -34.0496  -18.1872 C.ar    1  UNL1        0.0031
     40 C         -66.9934  -34.7146  -18.6210 C.ar    1  UNL1        0.0002
     41 C         -66.8851  -35.9771  -19.2522 C.ar    1  UNL1        0.0028
     42 C         -65.6126  -36.5229  -19.4230 C.ar    1  UNL1        0.0337
     43 C         -68.3257  -34.0920  -18.4152 C.ar    1  UNL1        0.0000
     44 C         -68.4746  -32.9883  -17.5537 C.ar    1  UNL1        0.0000
     45 C         -69.7303  -32.4038  -17.3619 C.ar    1  UNL1        0.0000
     46 C         -70.8487  -32.9115  -18.0264 C.ar    1  UNL1        0.0000
     47 C         -70.7142  -34.0054  -18.8841 C.ar    1  UNL1        0.0000
     48 C         -69.4611  -34.5945  -19.0790 C.ar    1  UNL1        0.0000
@<TRIPOS>BOND
     1    33    34    1
     2    34    35   ar
     3    35    29    1
     4    29    30    2
     5    29    31   am
     6    31     1    1
     7     1     2   ar
     8     2     3   ar
     9     3     4   ar
    10     4     7    1
    11     7     8    1
    12     8     9    1
    13     9    10    1
    14    10    17    1
    15    17    18    1
    16    18    19    1
    17    19    20   ar
    18    20    21   ar
    19    21    22   ar
    20    22    23   ar
    21    23    25    1
    22    25    26    2
    23    25    27    1
    24    23    24   ar
    25    10    11    1
    26    11    13    1
    27    13    14    2
    28    13    15    1
    29    11    12    1
    30     4     5   ar
    31     5     6   ar
    32    35    36   ar
    33    36    37   ar
    34    37    38   ar
    35    38    39   ar
    36    39    40   ar
    37    40    43    1
    38    43    44   ar
    39    44    45   ar
    40    45    46   ar
    41    46    47   ar
    42    47    48   ar
    43    40    41   ar
    44    41    42   ar
    45    42    34   ar
    46     6     1   ar
    47    42    37   ar
    48    12     7    1
    49    48    43   ar
    50    24    19   ar
    51    31    32    1
    52    27    28    1
    53    15    16    1
@<TRIPOS>MOLECULE
*****
 48 53 0 0 0
SMALL
GASTEIGER

@<TRIPOS>ATOM
      1 C         -62.3611  -41.1651  -20.2447 C.ar    1  UNL1        0.0702
      2 C         -61.0055  -41.5068  -20.1179 C.ar    1  UNL1        0.0191
      3 C         -60.5059  -42.6419  -20.7582 C.ar    1  UNL1        0.0356
      4 C         -61.3654  -43.4347  -21.5358 C.ar    1  UNL1        0.1318
      5 N         -62.6703  -43.0671  -21.6659 N.ar    1  UNL1       -0.2279
      6 C         -63.1785  -41.9658  -21.0526 C.ar    1  UNL1        0.1149
      7 N         -60.8873  -44.6144  -22.2125 N.pl3   1  UNL1       -0.2927
      8 C         -59.5111  -45.0725  -21.9872 C.3     1  UNL1        0.0923
      9 C         -58.8723  -45.5184  -23.3055 C.3     1  UNL1        0.0258
     10 C         -59.7515  -46.5312  -24.0697 C.3     1  UNL1        0.0577
     11 C         -61.1978  -45.9956  -24.2545 C.3     1  UNL1        0.1222
     12 C         -61.8119  -45.5086  -22.9243 C.3     1  UNL1        0.1033
     13 C         -61.2321  -44.9177  -25.3154 C.2     1  UNL1        0.3151
     14 O         -60.5352  -45.0185  -26.3605 O.2     1  UNL1       -0.2502
     15 O         -62.0833  -43.8253  -25.1733 O.3     1  UNL1       -0.4801
     16 H         -62.6832  -43.7290  -24.3626 H       1  UNL1        0.2951
     17 C         -59.7257  -47.9222  -23.3933 C.3     1  UNL1        0.2059
     18 O         -60.9008  -48.6719  -23.7078 O.3     1  UNL1       -0.4754
     19 C         -61.0933  -50.0401  -23.4543 C.ar    1  UNL1        0.1388
     20 C         -59.9981  -50.7838  -23.0029 C.ar    1  UNL1        0.0369
     21 C         -60.1299  -52.1461  -22.7298 C.ar    1  UNL1        0.0033
     22 C         -61.3597  -52.7821  -22.9086 C.ar    1  UNL1        0.0066
     23 C         -62.4740  -52.0581  -23.3679 C.ar    1  UNL1        0.0785
     24 C         -62.3324  -50.6855  -23.6426 C.ar    1  UNL1        0.0433
     25 C         -63.7795  -52.7284  -23.5610 C.2     1  UNL1        0.3381
     26 O         -64.5398  -52.3853  -24.5066 O.2     1  UNL1       -0.2451
     27 O         -64.1809  -53.7464  -22.6997 O.3     1  UNL1       -0.4771
     28 H         -65.0722  -54.2117  -22.8236 H       1  UNL1        0.2954
     29 C         -62.9180  -38.6929  -20.2357 C.2     1  UNL1        0.2839
     30 O         -62.0569  -38.4022  -21.1090 O.2     1  UNL1       -0.2665
     31 N         -62.9069  -39.9900  -19.6211 N.am    1  UNL1       -0.2766
     32 H         -63.2129  -40.0592  -18.6248 H       1  UNL1        0.1553
     33 C         -66.1303  -38.6876  -20.6130 C.3     1  UNL1        0.0345
     34 C         -65.2628  -37.6532  -19.9616 C.ar    1  UNL1        0.0202
     35 C         -63.8708  -37.6538  -19.8068 C.ar    1  UNL1        0.1946
     36 O         -63.4828  -36.5426  -19.2059 O.2     1  UNL1       -0.4492
     37 C         -64.5523  -35.8320  -18.9431 C.ar    1  UNL1        0.1452
     38 C         -64.6113  -34.5956  -18.3097 C.ar    1  UNL1        0.0375
     39 C         -65.8754  -34.0088  -18.1241 C.ar    1  UNL1        0.0031
     40 C         -67.0552  -34.6627  -18.5721 C.ar    1  UNL1        0.0002
     41 C         -66.9500  -35.9200  -19.2142 C.ar    1  UNL1        0.0028
     42 C         -65.6796  -36.4717  -19.3814 C.ar    1  UNL1        0.0337
     43 C         -68.3852  -34.0342  -18.3696 C.ar    1  UNL1        0.0000
     44 C         -69.5256  -34.5481  -19.0160 C.ar    1  UNL1        0.0000
     45 C         -70.7769  -33.9543  -18.8235 C.ar    1  UNL1        0.0000
     46 C         -70.9047  -32.8448  -17.9851 C.ar    1  UNL1        0.0000
     47 C         -69.7814  -32.3259  -17.3376 C.ar    1  UNL1        0.0000
     48 C         -68.5274  -32.9150  -17.5273 C.ar    1  UNL1        0.0000
@<TRIPOS>BOND
     1    33    34    1
     2    34    35   ar
     3    35    29    1
     4    29    30    2
     5    29    31   am
     6    31     1    1
     7     1     2   ar
     8     2     3   ar
     9     3     4   ar
    10     4     7    1
    11     7     8    1
    12     8     9    1
    13     9    10    1
    14    10    17    1
    15    17    18    1
    16    18    19    1
    17    19    20   ar
    18    20    21   ar
    19    21    22   ar
    20    22    23   ar
    21    23    25    1
    22    25    26    2
    23    25    27    1
    24    23    24   ar
    25    10    11    1
    26    11    13    1
    27    13    14    2
    28    13    15    1
    29    11    12    1
    30     4     5   ar
    31     5     6   ar
    32    35    36   ar
    33    36    37   ar
    34    37    38   ar
    35    38    39   ar
    36    39    40   ar
    37    40    43    1
    38    43    44   ar
    39    44    45   ar
    40    45    46   ar
    41    46    47   ar
    42    47    48   ar
    43    40    41   ar
    44    41    42   ar
    45    42    34   ar
    46     6     1   ar
    47    42    37   ar
    48    12     7    1
    49    48    43   ar
    50    24    19   ar
    51    31    32    1
    52    27    28    1
    53    15    16    1
@<TRIPOS>MOLECULE
*****
 48 53 0 0 0
SMALL
GASTEIGER

@<TRIPOS>ATOM
      1 C         -64.1707  -51.4976  -24.3123 C.ar    1  UNL1        0.0702
      2 C         -64.2714  -50.2293  -24.9055 C.ar    1  UNL1        0.0191
      3 C         -63.3328  -49.2400  -24.6085 C.ar    1  UNL1        0.0356
      4 C         -62.2834  -49.5237  -23.7195 C.ar    1  UNL1        0.1318
      5 N         -62.1914  -50.7700  -23.1783 N.ar    1  UNL1       -0.2279
      6 C         -63.0930  -51.7490  -23.4537 C.ar    1  UNL1        0.1149
      7 N         -61.2945  -48.5286  -23.3877 N.pl3   1  UNL1       -0.2927
      8 C         -60.0104  -48.9456  -22.8118 C.3     1  UNL1        0.0923
      9 C         -59.5987  -48.0003  -21.6797 C.3     1  UNL1        0.0258
     10 C         -59.6396  -46.5183  -22.1096 C.3     1  UNL1        0.0577
     11 C         -61.0151  -46.1489  -22.7298 C.3     1  UNL1        0.1222
     12 C         -61.4370  -47.1368  -23.8388 C.3     1  UNL1        0.1033
     13 C         -62.0692  -46.0342  -21.6508 C.2     1  UNL1        0.3151
     14 O         -63.0319  -45.2300  -21.7721 O.2     1  UNL1       -0.2502
     15 O         -62.0173  -46.8628  -20.5333 O.3     1  UNL1       -0.4801
     16 H         -61.2769  -47.5449  -20.4193 H       1  UNL1        0.2951
     17 C         -58.4624  -46.1725  -23.0518 C.3     1  UNL1        0.2059
     18 O         -58.2094  -44.7663  -23.0686 O.3     1  UNL1       -0.4754
     19 C         -59.1804  -43.7567  -22.9638 C.ar    1  UNL1        0.1388
     20 C         -59.8494  -43.3669  -24.1286 C.ar    1  UNL1        0.0369
     21 C         -60.8275  -42.3722  -24.0857 C.ar    1  UNL1        0.0033
     22 C         -61.1460  -41.7527  -22.8759 C.ar    1  UNL1        0.0066
     23 C         -60.4830  -42.1219  -21.6923 C.ar    1  UNL1        0.0785
     24 C         -59.4970  -43.1241  -21.7444 C.ar    1  UNL1        0.0433
     25 C         -60.8157  -41.4664  -20.4075 C.2     1  UNL1        0.3381
     26 O         -60.8327  -42.1319  -19.3367 O.2     1  UNL1       -0.2451
     27 O         -61.1127  -40.1064  -20.3687 O.3     1  UNL1       -0.4771
     28 H         -61.3411  -39.6483  -19.4946 H       1  UNL1        0.2954
     29 C         -65.6270  -53.4564  -23.6308 C.2     1  UNL1        0.2839
     30 O         -64.9691  -53.6992  -22.5835 O.2     1  UNL1       -0.2665
     31 N         -65.1035  -52.5499  -24.6129 N.am    1  UNL1       -0.2766
     32 H         -65.3291  -52.7353  -25.6157 H       1  UNL1        0.1553
     33 C         -68.4012  -53.1401  -21.9982 C.3     1  UNL1        0.0345
     34 C         -68.0949  -54.0394  -23.1577 C.ar    1  UNL1        0.0202
     35 C         -66.8901  -54.1806  -23.8579 C.ar    1  UNL1        0.1946
     36 O         -67.0183  -55.1027  -24.7958 O.2     1  UNL1       -0.4492
     37 C         -68.2493  -55.5505  -24.7550 C.ar    1  UNL1        0.1452
     38 C         -68.8235  -56.5208  -25.5690 C.ar    1  UNL1        0.0375
     39 C         -70.1736  -56.8486  -25.3534 C.ar    1  UNL1        0.0031
     40 C         -70.9256  -56.2055  -24.3329 C.ar    1  UNL1        0.0002
     41 C         -70.3016  -55.2245  -23.5253 C.ar    1  UNL1        0.0028
     42 C         -68.9607  -54.9252  -23.7676 C.ar    1  UNL1        0.0337
     43 C         -72.3514  -56.5588  -24.1150 C.ar    1  UNL1        0.0000
     44 C         -72.8413  -56.7885  -22.8151 C.ar    1  UNL1        0.0000
     45 C         -74.1843  -57.1208  -22.6127 C.ar    1  UNL1        0.0000
     46 C         -75.0521  -57.2265  -23.7018 C.ar    1  UNL1        0.0000
     47 C         -74.5787  -57.0005  -24.9961 C.ar    1  UNL1        0.0000
     48 C         -73.2364  -56.6688  -25.2045 C.ar    1  UNL1        0.0000
@<TRIPOS>BOND
     1    33    34    1
     2    34    35   ar
     3    35    29    1
     4    29    30    2
     5    29    31   am
     6    31     1    1
     7     1     2   ar
     8     2     3   ar
     9     3     4   ar
    10     4     7    1
    11     7     8    1
    12     8     9    1
    13     9    10    1
    14    10    17    1
    15    17    18    1
    16    18    19    1
    17    19    20   ar
    18    20    21   ar
    19    21    22   ar
    20    22    23   ar
    21    23    25    1
    22    25    26    2
    23    25    27    1
    24    23    24   ar
    25    10    11    1
    26    11    13    1
    27    13    14    2
    28    13    15    1
    29    11    12    1
    30     4     5   ar
    31     5     6   ar
    32    35    36   ar
    33    36    37   ar
    34    37    38   ar
    35    38    39   ar
    36    39    40   ar
    37    40    43    1
    38    43    44   ar
    39    44    45   ar
    40    45    46   ar
    41    46    47   ar
    42    47    48   ar
    43    40    41   ar
    44    41    42   ar
    45    42    34   ar
    46     6     1   ar
    47    42    37   ar
    48    12     7    1
    49    48    43   ar
    50    24    19   ar
    51    31    32    1
    52    27    28    1
    53    15    16    1
@<TRIPOS>MOLECULE
*****
 48 53 0 0 0
SMALL
GASTEIGER

@<TRIPOS>ATOM
      1 C         -63.6350  -40.9409  -22.3990 C.ar    1  UNL1        0.0702
      2 C         -62.4934  -41.6886  -22.0703 C.ar    1  UNL1        0.0191
      3 C         -61.8800  -42.4915  -23.0332 C.ar    1  UNL1        0.0356
      4 C         -62.4070  -42.5402  -24.3339 C.ar    1  UNL1        0.1318
      5 N         -63.4990  -41.7845  -24.6357 N.ar    1  UNL1       -0.2279
      6 C         -64.1120  -40.9949  -23.7149 C.ar    1  UNL1        0.1149
      7 N         -61.8020  -43.3573  -25.3560 N.pl3   1  UNL1       -0.2927
      8 C         -62.0553  -43.0561  -26.7701 C.3     1  UNL1        0.0923
      9 C         -62.2852  -44.3476  -27.5600 C.3     1  UNL1        0.0258
     10 C         -61.1621  -45.3818  -27.3322 C.3     1  UNL1        0.0577
     11 C         -60.9301  -45.6377  -25.8178 C.3     1  UNL1        0.1222
     12 C         -60.7445  -44.3242  -25.0278 C.3     1  UNL1        0.1033
     13 C         -62.0472  -46.4824  -25.2459 C.2     1  UNL1        0.3151
     14 O         -62.6072  -46.1641  -24.1627 O.2     1  UNL1       -0.2502
     15 O         -62.5096  -47.5942  -25.9446 O.3     1  UNL1       -0.4801
     16 H         -62.1062  -47.8597  -26.8352 H       1  UNL1        0.2951
     17 C         -59.8612  -44.9701  -28.0609 C.3     1  UNL1        0.2059
     18 O         -59.7639  -45.5989  -29.3403 O.3     1  UNL1       -0.4754
     19 C         -59.9444  -44.9660  -30.5814 C.ar    1  UNL1        0.1388
     20 C         -58.8720  -44.9655  -31.4793 C.ar    1  UNL1        0.0369
     21 C         -58.9937  -44.3564  -32.7291 C.ar    1  UNL1        0.0033
     22 C         -60.1901  -43.7368  -33.0945 C.ar    1  UNL1        0.0066
     23 C         -61.2804  -43.7177  -32.2071 C.ar    1  UNL1        0.0785
     24 C         -61.1491  -44.3324  -30.9483 C.ar    1  UNL1        0.0433
     25 C         -62.5503  -43.0601  -32.5891 C.2     1  UNL1        0.3381
     26 O         -63.3087  -42.5746  -31.7065 O.2     1  UNL1       -0.2451
     27 O         -62.9199  -42.9705  -33.9287 O.3     1  UNL1       -0.4771
     28 H         -63.7866  -42.5221  -34.2006 H       1  UNL1        0.2954
     29 C         -63.6744  -38.9022  -20.8943 C.2     1  UNL1        0.2839
     30 O         -62.4189  -38.8056  -20.8387 O.2     1  UNL1       -0.2665
     31 N         -64.2795  -40.0832  -21.4416 N.am    1  UNL1       -0.2766
     32 H         -65.1923  -40.3934  -21.0397 H       1  UNL1        0.1553
     33 C         -66.8865  -38.5615  -21.0614 C.3     1  UNL1        0.0345
     34 C         -65.8859  -37.6786  -20.3785 C.ar    1  UNL1        0.0202
     35 C         -64.4944  -37.8238  -20.3146 C.ar    1  UNL1        0.1946
     36 O         -63.9655  -36.8153  -19.6441 O.2     1  UNL1       -0.4492
     37 C         -64.9431  -36.0359  -19.2509 C.ar    1  UNL1        0.1452
     38 C         -64.8442  -34.8646  -18.5082 C.ar    1  UNL1        0.0375
     39 C         -66.0317  -34.1824  -18.1901 C.ar    1  UNL1        0.0031
     40 C         -67.2936  -34.6782  -18.6171 C.ar    1  UNL1        0.0002
     41 C         -67.3491  -35.8737  -19.3733 C.ar    1  UNL1        0.0028
     42 C         -66.1509  -36.5234  -19.6703 C.ar    1  UNL1        0.0337
     43 C         -68.5415  -33.9502  -18.2743 C.ar    1  UNL1        0.0000
     44 C         -69.7880  -34.4048  -18.7456 C.ar    1  UNL1        0.0000
     45 C         -70.9616  -33.7174  -18.4212 C.ar    1  UNL1        0.0000
     46 C         -70.9056  -32.5722  -17.6240 C.ar    1  UNL1        0.0000
     47 C         -69.6756  -32.1113  -17.1496 C.ar    1  UNL1        0.0000
     48 C         -68.4986  -32.7942  -17.4717 C.ar    1  UNL1        0.0000
@<TRIPOS>BOND
     1    33    34    1
     2    34    35   ar
     3    35    29    1
     4    29    30    2
     5    29    31   am
     6    31     1    1
     7     1     2   ar
     8     2     3   ar
     9     3     4   ar
    10     4     7    1
    11     7     8    1
    12     8     9    1
    13     9    10    1
    14    10    17    1
    15    17    18    1
    16    18    19    1
    17    19    20   ar
    18    20    21   ar
    19    21    22   ar
    20    22    23   ar
    21    23    25    1
    22    25    26    2
    23    25    27    1
    24    23    24   ar
    25    10    11    1
    26    11    13    1
    27    13    14    2
    28    13    15    1
    29    11    12    1
    30     4     5   ar
    31     5     6   ar
    32    35    36   ar
    33    36    37   ar
    34    37    38   ar
    35    38    39   ar
    36    39    40   ar
    37    40    43    1
    38    43    44   ar
    39    44    45   ar
    40    45    46   ar
    41    46    47   ar
    42    47    48   ar
    43    40    41   ar
    44    41    42   ar
    45    42    34   ar
    46     6     1   ar
    47    42    37   ar
    48    12     7    1
    49    48    43   ar
    50    24    19   ar
    51    31    32    1
    52    27    28    1
    53    15    16    1
@<TRIPOS>MOLECULE
*****
 48 53 0 0 0
SMALL
GASTEIGER

@<TRIPOS>ATOM
      1 C         -63.5989  -41.0217  -22.2697 C.ar    1  UNL1        0.0702
      2 C         -62.5618  -41.8918  -21.8988 C.ar    1  UNL1        0.0191
      3 C         -61.9635  -42.7162  -22.8530 C.ar    1  UNL1        0.0356
      4 C         -62.3998  -42.6639  -24.1868 C.ar    1  UNL1        0.1318
      5 N         -63.3888  -41.7917  -24.5271 N.ar    1  UNL1       -0.2279
      6 C         -63.9851  -40.9790  -23.6155 C.ar    1  UNL1        0.1149
      7 N         -61.8071  -43.4993  -25.2011 N.pl3   1  UNL1       -0.2927
      8 C         -62.1231  -43.2597  -26.6143 C.3     1  UNL1        0.0923
      9 C         -62.3399  -44.5866  -27.3472 C.3     1  UNL1        0.0258
     10 C         -61.1755  -45.5756  -27.1256 C.3     1  UNL1        0.0577
     11 C         -60.8785  -45.7669  -25.6130 C.3     1  UNL1        0.1222
     12 C         -60.7067  -44.4194  -24.8791 C.3     1  UNL1        0.1033
     13 C         -61.9449  -46.6243  -24.9678 C.2     1  UNL1        0.3151
     14 O         -62.3600  -47.6716  -25.5327 O.2     1  UNL1       -0.2502
     15 O         -62.4393  -46.2939  -23.7091 O.3     1  UNL1       -0.4801
     16 H         -62.1036  -45.4783  -23.2106 H       1  UNL1        0.2951
     17 C         -59.9171  -45.1508  -27.9187 C.3     1  UNL1        0.2059
     18 O         -59.9016  -45.7423  -29.2194 O.3     1  UNL1       -0.4754
     19 C         -60.0242  -45.0515  -30.4363 C.ar    1  UNL1        0.1388
     20 C         -58.9093  -45.0054  -31.2795 C.ar    1  UNL1        0.0369
     21 C         -58.9727  -44.3377  -32.5035 C.ar    1  UNL1        0.0033
     22 C         -60.1530  -43.7045  -32.8972 C.ar    1  UNL1        0.0066
     23 C         -61.2854  -43.7306  -32.0644 C.ar    1  UNL1        0.0785
     24 C         -61.2127  -44.4042  -30.8314 C.ar    1  UNL1        0.0433
     25 C         -62.5384  -43.0589  -32.4766 C.2     1  UNL1        0.3381
     26 O         -62.8951  -43.0594  -33.6861 O.2     1  UNL1       -0.2451
     27 O         -63.3368  -42.4198  -31.5314 O.3     1  UNL1       -0.4771
     28 H         -64.1963  -41.9577  -31.8032 H       1  UNL1        0.2954
     29 C         -63.6341  -38.9109  -20.8678 C.2     1  UNL1        0.2839
     30 O         -62.3822  -38.7665  -20.8888 O.2     1  UNL1       -0.2665
     31 N         -64.2223  -40.1394  -21.3207 N.am    1  UNL1       -0.2766
     32 H         -65.0989  -40.4610  -20.8526 H       1  UNL1        0.1553
     33 C         -66.8446  -38.5745  -21.0704 C.3     1  UNL1        0.0345
     34 C         -65.8530  -37.6908  -20.3756 C.ar    1  UNL1        0.0202
     35 C         -64.4620  -37.8341  -20.2963 C.ar    1  UNL1        0.1946
     36 O         -63.9421  -36.8255  -19.6190 O.2     1  UNL1       -0.4492
     37 C         -64.9251  -36.0478  -19.2361 C.ar    1  UNL1        0.1452
     38 C         -64.8360  -34.8770  -18.4913 C.ar    1  UNL1        0.0375
     39 C         -66.0279  -34.1968  -18.1859 C.ar    1  UNL1        0.0031
     40 C         -67.2843  -34.6940  -18.6272 C.ar    1  UNL1        0.0002
     41 C         -67.3298  -35.8888  -19.3851 C.ar    1  UNL1        0.0028
     42 C         -66.1274  -36.5366  -19.6694 C.ar    1  UNL1        0.0337
     43 C         -68.5370  -33.9679  -18.2977 C.ar    1  UNL1        0.0000
     44 C         -68.5035  -32.8085  -17.4995 C.ar    1  UNL1        0.0000
     45 C         -69.6846  -32.1266  -17.1908 C.ar    1  UNL1        0.0000
     46 C         -70.9093  -32.5916  -17.6746 C.ar    1  UNL1        0.0000
     47 C         -70.9560  -33.7400  -18.4679 C.ar    1  UNL1        0.0000
     48 C         -69.7781  -34.4265  -18.7790 C.ar    1  UNL1        0.0000
@<TRIPOS>BOND
     1    33    34    1
     2    34    35   ar
     3    35    29    1
     4    29    30    2
     5    29    31   am
     6    31     1    1
     7     1     2   ar
     8     2     3   ar
     9     3     4   ar
    10     4     7    1
    11     7     8    1
    12     8     9    1
    13     9    10    1
    14    10    17    1
    15    17    18    1
    16    18    19    1
    17    19    20   ar
    18    20    21   ar
    19    21    22   ar
    20    22    23   ar
    21    23    25    1
    22    25    26    2
    23    25    27    1
    24    23    24   ar
    25    10    11    1
    26    11    13    1
    27    13    14    2
    28    13    15    1
    29    11    12    1
    30     4     5   ar
    31     5     6   ar
    32    35    36   ar
    33    36    37   ar
    34    37    38   ar
    35    38    39   ar
    36    39    40   ar
    37    40    43    1
    38    43    44   ar
    39    44    45   ar
    40    45    46   ar
    41    46    47   ar
    42    47    48   ar
    43    40    41   ar
    44    41    42   ar
    45    42    34   ar
    46     6     1   ar
    47    42    37   ar
    48    12     7    1
    49    48    43   ar
    50    24    19   ar
    51    31    32    1
    52    27    28    1
    53    15    16    1
@<TRIPOS>MOLECULE
*****
 48 53 0 0 0
SMALL
GASTEIGER

@<TRIPOS>ATOM
      1 C         -62.8275  -41.0904  -21.0493 C.ar    1  UNL1        0.0702
      2 C         -61.6919  -41.7980  -20.6250 C.ar    1  UNL1        0.0191
      3 C         -61.1455  -42.7962  -21.4332 C.ar    1  UNL1        0.0356
      4 C         -61.7338  -43.0823  -22.6758 C.ar    1  UNL1        0.1318
      5 N         -62.8183  -42.3632  -23.0773 N.ar    1  UNL1       -0.2279
      6 C         -63.3667  -41.3863  -22.3077 C.ar    1  UNL1        0.1149
      7 N         -61.1989  -44.1057  -23.5388 N.pl3   1  UNL1       -0.2927
      8 C         -61.9182  -44.4694  -24.7655 C.3     1  UNL1        0.0923
      9 C         -61.9142  -45.9884  -24.9586 C.3     1  UNL1        0.0258
     10 C         -60.4945  -46.5873  -24.8651 C.3     1  UNL1        0.0577
     11 C         -59.7816  -46.1466  -23.5573 C.3     1  UNL1        0.1222
     12 C         -59.8330  -44.6169  -23.3541 C.3     1  UNL1        0.1033
     13 C         -60.3498  -46.8891  -22.3680 C.2     1  UNL1        0.3151
     14 O         -60.6523  -48.1095  -22.4537 O.2     1  UNL1       -0.2502
     15 O         -60.4905  -46.2423  -21.1433 O.3     1  UNL1       -0.4801
     16 H         -60.2252  -45.2712  -21.0289 H       1  UNL1        0.2951
     17 C         -59.6599  -46.2569  -26.1250 C.3     1  UNL1        0.2059
     18 O         -60.4258  -46.4450  -27.3165 O.3     1  UNL1       -0.4754
     19 C         -60.5130  -45.5396  -28.3871 C.ar    1  UNL1        0.1388
     20 C         -61.4835  -44.5348  -28.3186 C.ar    1  UNL1        0.0369
     21 C         -61.6144  -43.6037  -29.3500 C.ar    1  UNL1        0.0033
     22 C         -60.7771  -43.6691  -30.4652 C.ar    1  UNL1        0.0066
     23 C         -59.7983  -44.6738  -30.5609 C.ar    1  UNL1        0.0785
     24 C         -59.6740  -45.6097  -29.5178 C.ar    1  UNL1        0.0433
     25 C         -58.9096  -44.7486  -31.7423 C.2     1  UNL1        0.3381
     26 O         -59.3835  -44.6408  -32.9058 O.2     1  UNL1       -0.2451
     27 O         -57.5395  -44.9379  -31.5800 O.3     1  UNL1       -0.4771
     28 H         -56.9227  -44.9900  -32.3819 H       1  UNL1        0.2954
     29 C         -63.1433  -38.6434  -20.4711 C.2     1  UNL1        0.2839
     30 O         -62.0682  -38.2805  -21.0198 O.2     1  UNL1       -0.2665
     31 N         -63.4037  -40.0385  -20.2561 N.am    1  UNL1       -0.2766
     32 H         -63.9547  -40.3061  -19.4101 H       1  UNL1        0.1553
     33 C         -66.3590  -38.5737  -20.8112 C.3     1  UNL1        0.0345
     34 C         -65.4687  -37.5818  -20.1252 C.ar    1  UNL1        0.0202
     35 C         -64.0753  -37.6100  -19.9864 C.ar    1  UNL1        0.1946
     36 O         -63.6639  -36.5320  -19.3421 O.2     1  UNL1       -0.4492
     37 C         -64.7194  -35.8178  -19.0364 C.ar    1  UNL1        0.1452
     38 C         -64.7525  -34.6095  -18.3490 C.ar    1  UNL1        0.0375
     39 C         -66.0054  -34.0126  -18.1236 C.ar    1  UNL1        0.0031
     40 C         -67.1999  -34.6287  -18.5862 C.ar    1  UNL1        0.0002
     41 C         -67.1209  -35.8581  -19.2837 C.ar    1  UNL1        0.0028
     42 C         -65.8611  -36.4208  -19.4893 C.ar    1  UNL1        0.0337
     43 C         -68.5178  -33.9899  -18.3413 C.ar    1  UNL1        0.0000
     44 C         -68.6254  -32.8752  -17.4879 C.ar    1  UNL1        0.0000
     45 C         -69.8676  -32.2755  -17.2591 C.ar    1  UNL1        0.0000
     46 C         -71.0137  -32.7787  -17.8785 C.ar    1  UNL1        0.0000
     47 C         -70.9202  -33.8834  -18.7278 C.ar    1  UNL1        0.0000
     48 C         -69.6808  -34.4878  -18.9594 C.ar    1  UNL1        0.0000
@<TRIPOS>BOND
     1    33    34    1
     2    34    35   ar
     3    35    29    1
     4    29    30    2
     5    29    31   am
     6    31     1    1
     7     1     2   ar
     8     2     3   ar
     9     3     4   ar
    10     4     7    1
    11     7     8    1
    12     8     9    1
    13     9    10    1
    14    10    17    1
    15    17    18    1
    16    18    19    1
    17    19    20   ar
    18    20    21   ar
    19    21    22   ar
    20    22    23   ar
    21    23    25    1
    22    25    26    2
    23    25    27    1
    24    23    24   ar
    25    10    11    1
    26    11    13    1
    27    13    14    2
    28    13    15    1
    29    11    12    1
    30     4     5   ar
    31     5     6   ar
    32    35    36   ar
    33    36    37   ar
    34    37    38   ar
    35    38    39   ar
    36    39    40   ar
    37    40    43    1
    38    43    44   ar
    39    44    45   ar
    40    45    46   ar
    41    46    47   ar
    42    47    48   ar
    43    40    41   ar
    44    41    42   ar
    45    42    34   ar
    46     6     1   ar
    47    42    37   ar
    48    12     7    1
    49    48    43   ar
    50    24    19   ar
    51    31    32    1
    52    27    28    1
    53    15    16    1
@<TRIPOS>MOLECULE
*****
 48 53 0 0 0
SMALL
GASTEIGER

@<TRIPOS>ATOM
      1 C         -62.4026  -41.2035  -20.2259 C.ar    1  UNL1        0.0702
      2 C         -61.0208  -41.4366  -20.3073 C.ar    1  UNL1        0.0191
      3 C         -60.5398  -42.5895  -20.9298 C.ar    1  UNL1        0.0356
      4 C         -61.4461  -43.5100  -21.4809 C.ar    1  UNL1        0.1318
      5 N         -62.7808  -43.2478  -21.4135 N.ar    1  UNL1       -0.2279
      6 C         -63.2717  -42.1317  -20.8133 C.ar    1  UNL1        0.1149
      7 N         -60.9885  -44.7121  -22.1318 N.pl3   1  UNL1       -0.2927
      8 C         -59.7102  -45.3122  -21.7318 C.3     1  UNL1        0.0923
      9 C         -58.9305  -45.7825  -22.9630 C.3     1  UNL1        0.0258
     10 C         -59.7807  -46.6799  -23.8876 C.3     1  UNL1        0.0577
     11 C         -61.1267  -45.9967  -24.2542 C.3     1  UNL1        0.1222
     12 C         -61.8798  -45.4883  -23.0060 C.3     1  UNL1        0.1033
     13 C         -60.9025  -44.8911  -25.2622 C.2     1  UNL1        0.3151
     14 O         -60.6445  -45.1585  -26.4665 O.2     1  UNL1       -0.2502
     15 O         -61.0372  -43.5595  -24.8794 O.3     1  UNL1       -0.4801
     16 H         -61.2777  -43.3085  -23.9277 H       1  UNL1        0.2951
     17 C         -59.9870  -48.0850  -23.2743 C.3     1  UNL1        0.2059
     18 O         -60.4233  -49.0212  -24.2617 O.3     1  UNL1       -0.4754
     19 C         -61.6785  -49.0232  -24.8922 C.ar    1  UNL1        0.1388
     20 C         -62.7702  -49.5276  -24.1781 C.ar    1  UNL1        0.0369
     21 C         -64.0428  -49.5511  -24.7508 C.ar    1  UNL1        0.0033
     22 C         -64.2377  -49.0726  -26.0478 C.ar    1  UNL1        0.0066
     23 C         -63.1553  -48.5669  -26.7888 C.ar    1  UNL1        0.0785
     24 C         -61.8753  -48.5485  -26.2049 C.ar    1  UNL1        0.0433
     25 C         -63.3566  -48.0605  -28.1650 C.2     1  UNL1        0.3381
     26 O         -63.0851  -46.8627  -28.4508 O.2     1  UNL1       -0.2451
     27 O         -63.8474  -48.9032  -29.1591 O.3     1  UNL1       -0.4771
     28 H         -63.9883  -48.5665  -30.1041 H       1  UNL1        0.2954
     29 C         -62.9708  -38.7341  -20.2606 C.2     1  UNL1        0.2839
     30 O         -62.1379  -38.4615  -21.1664 O.2     1  UNL1       -0.2665
     31 N         -62.9349  -40.0156  -19.6150 N.am    1  UNL1       -0.2766
     32 H         -63.2104  -40.0615  -18.6085 H       1  UNL1        0.1553
     33 C         -66.1781  -38.6819  -20.6756 C.3     1  UNL1        0.0345
     34 C         -65.3052  -37.6678  -19.9998 C.ar    1  UNL1        0.0202
     35 C         -63.9153  -37.6887  -19.8286 C.ar    1  UNL1        0.1946
     36 O         -63.5203  -36.5909  -19.2078 O.2     1  UNL1       -0.4492
     37 C         -64.5836  -35.8702  -18.9479 C.ar    1  UNL1        0.1452
     38 C         -64.6343  -34.6419  -18.2981 C.ar    1  UNL1        0.0375
     39 C         -65.8929  -34.0412  -18.1193 C.ar    1  UNL1        0.0031
     40 C         -67.0756  -34.6736  -18.5902 C.ar    1  UNL1        0.0002
     41 C         -66.9788  -35.9232  -19.2483 C.ar    1  UNL1        0.0028
     42 C         -65.7137  -36.4891  -19.4082 C.ar    1  UNL1        0.0337
     43 C         -68.3997  -34.0307  -18.3947 C.ar    1  UNL1        0.0000
     44 C         -69.5395  -34.5230  -19.0588 C.ar    1  UNL1        0.0000
     45 C         -70.7852  -33.9157  -18.8728 C.ar    1  UNL1        0.0000
     46 C         -70.9082  -32.8140  -18.0234 C.ar    1  UNL1        0.0000
     47 C         -69.7854  -32.3165  -17.3584 C.ar    1  UNL1        0.0000
     48 C         -68.5370  -32.9192  -17.5414 C.ar    1  UNL1        0.0000
@<TRIPOS>BOND
     1    33    34    1
     2    34    35   ar
     3    35    29    1
     4    29    30    2
     5    29    31   am
     6    31     1    1
     7     1     2   ar
     8     2     3   ar
     9     3     4   ar
    10     4     7    1
    11     7     8    1
    12     8     9    1
    13     9    10    1
    14    10    17    1
    15    17    18    1
    16    18    19    1
    17    19    20   ar
    18    20    21   ar
    19    21    22   ar
    20    22    23   ar
    21    23    25    1
    22    25    26    2
    23    25    27    1
    24    23    24   ar
    25    10    11    1
    26    11    13    1
    27    13    14    2
    28    13    15    1
    29    11    12    1
    30     4     5   ar
    31     5     6   ar
    32    35    36   ar
    33    36    37   ar
    34    37    38   ar
    35    38    39   ar
    36    39    40   ar
    37    40    43    1
    38    43    44   ar
    39    44    45   ar
    40    45    46   ar
    41    46    47   ar
    42    47    48   ar
    43    40    41   ar
    44    41    42   ar
    45    42    34   ar
    46     6     1   ar
    47    42    37   ar
    48    12     7    1
    49    48    43   ar
    50    24    19   ar
    51    31    32    1
    52    27    28    1
    53    15    16    1
