@<TRIPOS>MOLECULE
*****
 51 56 0 0 0
SMALL
GASTEIGER

@<TRIPOS>ATOM
      1 N         -65.4894  -54.4134  -22.5107 N.am    1  UNL1       -0.2945
      2 C         -64.1400  -53.9338  -22.6170 C.2     1  UNL1        0.2483
      3 O         -63.2033  -54.5683  -22.0587 O.2     1  UNL1       -0.2701
      4 H         -66.2671  -53.7396  -22.6841 H       1  UNL1        0.1501
      5 C         -63.8350  -52.6813  -23.3454 C.ar    1  UNL1        0.0808
      6 C         -64.6870  -52.2531  -24.3774 C.ar    1  UNL1        0.0080
      7 C         -64.4161  -51.0767  -25.0809 C.ar    1  UNL1        0.0148
      8 C         -63.2941  -50.2982  -24.7576 C.ar    1  UNL1        0.0502
      9 C         -62.4496  -50.7148  -23.7182 C.ar    1  UNL1        0.0443
     10 C         -62.7160  -51.8924  -23.0130 C.ar    1  UNL1        0.1457
     11 F         -61.9033  -52.2295  -21.9811 F       1  UNL1       -0.2040
     12 N         -63.0086  -49.0855  -25.4796 N.pl3   1  UNL1       -0.3040
     13 C         -63.8508  -48.6760  -26.6098 C.3     1  UNL1        0.1122
     14 C         -62.9851  -48.0620  -27.7105 C.3     1  UNL1        0.1122
     15 N         -62.0731  -47.0644  -27.1380 N.pl3   1  UNL1       -0.3041
     16 C         -61.2309  -47.4739  -26.0079 C.3     1  UNL1        0.1122
     17 C         -62.0966  -48.0877  -24.9072 C.3     1  UNL1        0.1122
     18 C         -61.7851  -45.8535  -27.8621 C.ar    1  UNL1        0.0479
     19 C         -60.7289  -45.0175  -27.4658 C.ar    1  UNL1        0.0145
     20 C         -60.4467  -43.8522  -28.1810 C.ar    1  UNL1        0.0012
     21 C         -61.2208  -43.5033  -29.2899 C.ar    1  UNL1        0.0039
     22 C         -62.3022  -44.3099  -29.6843 C.ar    1  UNL1        0.0726
     23 C         -62.5630  -45.4967  -28.9760 C.ar    1  UNL1        0.0184
     24 C         -63.1122  -43.9593  -30.9072 C.3     1  UNL1        0.4186
     25 F         -63.9488  -45.0049  -31.2582 F       1  UNL1       -0.1659
     26 F         -63.8782  -42.8402  -30.6398 F       1  UNL1       -0.1659
     27 F         -62.2816  -43.6914  -31.9816 F       1  UNL1       -0.1659
     28 C         -65.8111  -55.7219  -21.9320 C.3     1  UNL1        0.1535
     29 C         -66.7793  -55.5539  -20.7931 C.2     1  UNL1        0.2443
     30 O         -66.6880  -56.3043  -19.7831 O.2     1  UNL1       -0.2730
     31 N         -67.7393  -54.4861  -20.8216 N.am    1  UNL1       -0.2825
     32 H         -67.5760  -53.7022  -21.4935 H       1  UNL1        0.1549
     33 C         -68.8498  -54.3781  -19.9147 C.ar    1  UNL1        0.0535
     34 C         -70.0149  -53.6714  -20.2587 C.ar    1  UNL1        0.0353
     35 C         -71.0583  -53.5720  -19.3349 C.ar    1  UNL1        0.1002
     36 N         -70.9400  -54.1435  -18.1073 N.ar    1  UNL1       -0.2422
     37 C         -69.8179  -54.8171  -17.7409 C.ar    1  UNL1        0.1002
     38 C         -68.7506  -54.9389  -18.6340 C.ar    1  UNL1        0.0353
     39 C         -66.3983  -56.6708  -22.9936 C.3     1  UNL1        0.0569
     40 C         -69.7615  -56.2313  -23.0717 C.ar    1  UNL1       -0.0211
     41 C         -71.0742  -55.7956  -23.3693 C.ar    1  UNL1       -0.0042
     42 C         -71.3255  -54.9096  -24.4314 C.ar    1  UNL1        0.0012
     43 C         -70.2761  -54.4496  -25.2329 C.ar    1  UNL1        0.0169
     44 C         -68.9875  -54.8892  -24.9455 C.ar    1  UNL1        0.0560
     45 N         -67.8764  -54.5482  -25.6156 N.ar    1  UNL1       -0.3523
     46 C         -66.8599  -55.1822  -25.0034 C.ar    1  UNL1        0.0681
     47 C         -67.3231  -55.9397  -23.9328 C.ar    1  UNL1       -0.0020
     48 C         -68.7124  -55.7490  -23.8970 C.ar    1  UNL1        0.0091
     49 H         -67.8067  -53.9094  -26.4389 H       1  UNL1        0.1660
     50 C         -70.7848  -57.2328  -21.0213 C.3     1  UNL1        0.0050
     51 C         -69.5806  -57.2340  -21.9597 C.3     1  UNL1        0.0264
@<TRIPOS>BOND
     1    50    51    1
     2    51    40    1
     3    40    41   ar
     4    41    42   ar
     5    42    43   ar
     6    43    44   ar
     7    44    45   ar
     8    45    46   ar
     9    46    47   ar
    10    47    39    1
    11    39    28    1
    12    28     1    1
    13     1     2   am
    14     2     3    2
    15     2     5    1
    16     5     6   ar
    17     6     7   ar
    18     7     8   ar
    19     8    12    1
    20    12    13    1
    21    13    14    1
    22    14    15    1
    23    15    18    1
    24    18    19   ar
    25    19    20   ar
    26    20    21   ar
    27    21    22   ar
    28    22    24    1
    29    24    25    1
    30    24    26    1
    31    24    27    1
    32    22    23   ar
    33    15    16    1
    34    16    17    1
    35     8     9   ar
    36     9    10   ar
    37    10    11    1
    38    28    29    1
    39    29    30    2
    40    29    31   am
    41    31    33    1
    42    33    34   ar
    43    34    35   ar
    44    35    36   ar
    45    36    37   ar
    46    37    38   ar
    47    47    48   ar
    48    48    40   ar
    49    48    44   ar
    50    10     5   ar
    51    38    33   ar
    52    17    12    1
    53    23    18   ar
    54    45    49    1
    55     1     4    1
    56    31    32    1
@<TRIPOS>MOLECULE
*****
 51 56 0 0 0
SMALL
GASTEIGER

@<TRIPOS>ATOM
      1 N         -61.8580  -46.1408  -25.1536 N.am    1  UNL1       -0.2945
      2 C         -61.2251  -45.8586  -23.8958 C.2     1  UNL1        0.2483
      3 O         -60.4130  -46.6885  -23.4024 O.2     1  UNL1       -0.2701
      4 H         -62.7385  -45.6318  -25.3874 H       1  UNL1        0.1501
      5 C         -61.5398  -44.6192  -23.1491 C.ar    1  UNL1        0.0808
      6 C         -62.2315  -44.7005  -21.9287 C.ar    1  UNL1        0.0080
      7 C         -62.5426  -43.5438  -21.2095 C.ar    1  UNL1        0.0148
      8 C         -62.1570  -42.2831  -21.6906 C.ar    1  UNL1        0.0502
      9 C         -61.4535  -42.1993  -22.9010 C.ar    1  UNL1        0.0443
     10 C         -61.1418  -43.3542  -23.6248 C.ar    1  UNL1        0.1457
     11 F         -60.4143  -43.2312  -24.7626 F       1  UNL1       -0.2040
     12 N         -62.4758  -41.0870  -20.9549 N.pl3   1  UNL1       -0.3040
     13 C         -63.3478  -41.1483  -19.7758 C.3     1  UNL1        0.1122
     14 C         -64.2601  -39.9219  -19.7367 C.3     1  UNL1        0.1122
     15 N         -63.4730  -38.7004  -19.9450 N.pl3   1  UNL1       -0.3041
     16 C         -62.6011  -38.6391  -21.1240 C.3     1  UNL1        0.1122
     17 C         -61.6888  -39.8654  -21.1629 C.3     1  UNL1        0.1122
     18 C         -63.7945  -37.5036  -19.2116 C.ar    1  UNL1        0.0479
     19 C         -62.9505  -37.0439  -18.1879 C.ar    1  UNL1        0.0145
     20 C         -63.2612  -35.8751  -17.4906 C.ar    1  UNL1        0.0012
     21 C         -64.4209  -35.1601  -17.7986 C.ar    1  UNL1        0.0039
     22 C         -65.2952  -35.6202  -18.7983 C.ar    1  UNL1        0.0726
     23 C         -64.9613  -36.7830  -19.5155 C.ar    1  UNL1        0.0184
     24 C         -66.5250  -34.8271  -19.1634 C.3     1  UNL1        0.4186
     25 F         -67.1619  -34.3581  -18.0274 F       1  UNL1       -0.1659
     26 F         -66.1557  -33.7514  -19.9489 F       1  UNL1       -0.1659
     27 F         -67.4208  -35.6133  -19.8673 F       1  UNL1       -0.1659
     28 C         -61.4609  -47.2769  -25.9915 C.3     1  UNL1        0.1535
     29 C         -61.8426  -48.5671  -25.3190 C.2     1  UNL1        0.2443
     30 O         -63.0434  -48.9528  -25.3490 O.2     1  UNL1       -0.2730
     31 N         -60.8276  -49.3940  -24.7285 N.am    1  UNL1       -0.2825
     32 H         -59.8347  -49.2177  -25.0038 H       1  UNL1        0.1549
     33 C         -61.1012  -50.5114  -23.8661 C.ar    1  UNL1        0.0535
     34 C         -62.4063  -50.8075  -23.4367 C.ar    1  UNL1        0.0353
     35 C         -62.6203  -51.8889  -22.5783 C.ar    1  UNL1        0.1002
     36 N         -61.5707  -52.6396  -22.1511 N.ar    1  UNL1       -0.2422
     37 C         -60.2962  -52.3652  -22.5353 C.ar    1  UNL1        0.1002
     38 C         -60.0382  -51.2922  -23.3919 C.ar    1  UNL1        0.0353
     39 C         -62.1081  -47.1925  -27.3865 C.3     1  UNL1        0.0569
     40 C         -62.8043  -45.0508  -29.9239 C.ar    1  UNL1       -0.0211
     41 C         -62.7242  -44.0917  -30.9609 C.ar    1  UNL1       -0.0042
     42 C         -61.4850  -43.5941  -31.4002 C.ar    1  UNL1        0.0012
     43 C         -60.2947  -44.0530  -30.8275 C.ar    1  UNL1        0.0169
     44 C         -60.3757  -45.0053  -29.8161 C.ar    1  UNL1        0.0560
     45 N         -59.3347  -45.5497  -29.1683 N.ar    1  UNL1       -0.3523
     46 C         -59.8572  -46.4052  -28.2711 C.ar    1  UNL1        0.0681
     47 C         -61.2461  -46.4127  -28.3460 C.ar    1  UNL1       -0.0020
     48 C         -61.5834  -45.4995  -29.3562 C.ar    1  UNL1        0.0091
     49 H         -58.3215  -45.3448  -29.3169 H       1  UNL1        0.1660
     50 C         -65.2374  -44.5112  -29.7164 C.3     1  UNL1        0.0050
     51 C         -64.1651  -45.5859  -29.5545 C.3     1  UNL1        0.0264
@<TRIPOS>BOND
     1    50    51    1
     2    51    40    1
     3    40    41   ar
     4    41    42   ar
     5    42    43   ar
     6    43    44   ar
     7    44    45   ar
     8    45    46   ar
     9    46    47   ar
    10    47    39    1
    11    39    28    1
    12    28     1    1
    13     1     2   am
    14     2     3    2
    15     2     5    1
    16     5     6   ar
    17     6     7   ar
    18     7     8   ar
    19     8    12    1
    20    12    13    1
    21    13    14    1
    22    14    15    1
    23    15    18    1
    24    18    19   ar
    25    19    20   ar
    26    20    21   ar
    27    21    22   ar
    28    22    24    1
    29    24    25    1
    30    24    26    1
    31    24    27    1
    32    22    23   ar
    33    15    16    1
    34    16    17    1
    35     8     9   ar
    36     9    10   ar
    37    10    11    1
    38    28    29    1
    39    29    30    2
    40    29    31   am
    41    31    33    1
    42    33    34   ar
    43    34    35   ar
    44    35    36   ar
    45    36    37   ar
    46    37    38   ar
    47    47    48   ar
    48    48    40   ar
    49    48    44   ar
    50    10     5   ar
    51    38    33   ar
    52    17    12    1
    53    23    18   ar
    54    45    49    1
    55     1     4    1
    56    31    32    1
@<TRIPOS>MOLECULE
*****
 51 56 0 0 0
SMALL
GASTEIGER

@<TRIPOS>ATOM
      1 N         -61.1380  -44.3623  -26.5821 N.am    1  UNL1       -0.2945
      2 C         -60.5918  -45.6826  -26.7254 C.2     1  UNL1        0.2483
      3 O         -59.5200  -45.8512  -27.3693 O.2     1  UNL1       -0.2701
      4 H         -62.1501  -44.2707  -26.3451 H       1  UNL1        0.1501
      5 C         -61.2893  -46.8583  -26.1565 C.ar    1  UNL1        0.0808
      6 C         -60.9905  -47.2773  -24.8490 C.ar    1  UNL1        0.0080
      7 C         -61.6333  -48.3866  -24.2937 C.ar    1  UNL1        0.0148
      8 C         -62.5973  -49.0915  -25.0307 C.ar    1  UNL1        0.0502
      9 C         -62.9088  -48.6672  -26.3307 C.ar    1  UNL1        0.0443
     10 C         -62.2665  -47.5588  -26.8909 C.ar    1  UNL1        0.1457
     11 F         -62.6365  -47.1514  -28.1303 F       1  UNL1       -0.2040
     12 N         -63.2624  -50.2364  -24.4647 N.pl3   1  UNL1       -0.3040
     13 C         -62.7740  -50.8410  -23.2195 C.3     1  UNL1        0.1122
     14 C         -62.9026  -52.3629  -23.2926 C.3     1  UNL1        0.1122
     15 N         -64.2455  -52.7344  -23.7548 N.pl3   1  UNL1       -0.3041
     16 C         -64.7339  -52.1298  -24.9998 C.3     1  UNL1        0.1122
     17 C         -64.6054  -50.6080  -24.9266 C.3     1  UNL1        0.1122
     18 C         -64.9087  -53.8815  -23.1909 C.ar    1  UNL1        0.0479
     19 C         -64.2094  -54.7787  -22.3678 C.ar    1  UNL1        0.0145
     20 C         -64.8624  -55.8810  -21.8132 C.ar    1  UNL1        0.0012
     21 C         -66.2143  -56.1057  -22.0825 C.ar    1  UNL1        0.0039
     22 C         -66.9245  -55.2372  -22.9291 C.ar    1  UNL1        0.0726
     23 C         -66.2673  -54.1135  -23.4615 C.ar    1  UNL1        0.0184
     24 C         -68.3949  -55.4522  -23.1863 C.3     1  UNL1        0.4186
     25 F         -68.5901  -56.1507  -24.3654 F       1  UNL1       -0.1659
     26 F         -68.9389  -56.1738  -22.1404 F       1  UNL1       -0.1659
     27 F         -69.0543  -54.2394  -23.2887 F       1  UNL1       -0.1659
     28 C         -60.4034  -43.1626  -26.9967 C.3     1  UNL1        0.1535
     29 C         -60.6661  -42.8782  -28.4502 C.2     1  UNL1        0.2443
     30 O         -61.1827  -41.7771  -28.7851 O.2     1  UNL1       -0.2730
     31 N         -60.2455  -43.8186  -29.4508 N.am    1  UNL1       -0.2825
     32 H         -59.5434  -44.5422  -29.1746 H       1  UNL1        0.1549
     33 C         -60.6503  -43.7618  -30.8292 C.ar    1  UNL1        0.0535
     34 C         -59.7591  -44.0698  -31.8714 C.ar    1  UNL1        0.0353
     35 C         -60.1905  -43.9761  -33.1970 C.ar    1  UNL1        0.1002
     36 N         -61.4593  -43.5760  -33.4754 N.ar    1  UNL1       -0.2422
     37 C         -62.3369  -43.2542  -32.4886 C.ar    1  UNL1        0.1002
     38 C         -61.9457  -43.3331  -31.1498 C.ar    1  UNL1        0.0353
     39 C         -60.7947  -41.9458  -26.1375 C.3     1  UNL1        0.0569
     40 C         -63.2794  -41.7824  -23.8331 C.ar    1  UNL1       -0.0211
     41 C         -64.0733  -41.9205  -22.6702 C.ar    1  UNL1       -0.0042
     42 C         -63.5636  -42.5217  -21.5062 C.ar    1  UNL1        0.0012
     43 C         -62.2447  -42.9849  -21.4681 C.ar    1  UNL1        0.0169
     44 C         -61.4623  -42.8369  -22.6092 C.ar    1  UNL1        0.0560
     45 N         -60.1835  -43.2219  -22.7369 N.ar    1  UNL1       -0.3523
     46 C         -59.8201  -42.9045  -23.9928 C.ar    1  UNL1        0.0681
     47 C         -60.8740  -42.3074  -24.6763 C.ar    1  UNL1       -0.0020
     48 C         -61.9452  -42.2623  -23.7715 C.ar    1  UNL1        0.0091
     49 H         -59.5890  -43.6866  -22.0150 H       1  UNL1        0.1660
     50 C         -65.0566  -40.1970  -24.5960 C.3     1  UNL1        0.0050
     51 C         -63.8752  -41.0664  -25.0193 C.3     1  UNL1        0.0264
@<TRIPOS>BOND
     1    50    51    1
     2    51    40    1
     3    40    41   ar
     4    41    42   ar
     5    42    43   ar
     6    43    44   ar
     7    44    45   ar
     8    45    46   ar
     9    46    47   ar
    10    47    39    1
    11    39    28    1
    12    28     1    1
    13     1     2   am
    14     2     3    2
    15     2     5    1
    16     5     6   ar
    17     6     7   ar
    18     7     8   ar
    19     8    12    1
    20    12    13    1
    21    13    14    1
    22    14    15    1
    23    15    18    1
    24    18    19   ar
    25    19    20   ar
    26    20    21   ar
    27    21    22   ar
    28    22    24    1
    29    24    25    1
    30    24    26    1
    31    24    27    1
    32    22    23   ar
    33    15    16    1
    34    16    17    1
    35     8     9   ar
    36     9    10   ar
    37    10    11    1
    38    28    29    1
    39    29    30    2
    40    29    31   am
    41    31    33    1
    42    33    34   ar
    43    34    35   ar
    44    35    36   ar
    45    36    37   ar
    46    37    38   ar
    47    47    48   ar
    48    48    40   ar
    49    48    44   ar
    50    10     5   ar
    51    38    33   ar
    52    17    12    1
    53    23    18   ar
    54    45    49    1
    55     1     4    1
    56    31    32    1
@<TRIPOS>MOLECULE
*****
 51 56 0 0 0
SMALL
GASTEIGER

@<TRIPOS>ATOM
      1 N         -65.4001  -54.3246  -22.4779 N.am    1  UNL1       -0.2945
      2 C         -64.0384  -53.9404  -22.7240 C.2     1  UNL1        0.2483
      3 O         -63.0980  -54.7035  -22.3704 O.2     1  UNL1       -0.2701
      4 H         -66.1292  -53.5782  -22.4707 H       1  UNL1        0.1501
      5 C         -63.7193  -52.6405  -23.3572 C.ar    1  UNL1        0.0808
      6 C         -64.5499  -52.1415  -24.3748 C.ar    1  UNL1        0.0080
      7 C         -64.2653  -50.9193  -24.9892 C.ar    1  UNL1        0.0148
      8 C         -63.1511  -50.1656  -24.5891 C.ar    1  UNL1        0.0502
      9 C         -62.3284  -50.6537  -23.5636 C.ar    1  UNL1        0.0443
     10 C         -62.6084  -51.8771  -22.9475 C.ar    1  UNL1        0.1457
     11 F         -61.8173  -52.2853  -21.9244 F       1  UNL1       -0.2040
     12 N         -62.8516  -48.9059  -25.2192 N.pl3   1  UNL1       -0.3040
     13 C         -63.5629  -48.4940  -26.4353 C.3     1  UNL1        0.1122
     14 C         -62.6014  -47.7798  -27.3858 C.3     1  UNL1        0.1122
     15 N         -61.8381  -46.7585  -26.6585 N.pl3   1  UNL1       -0.3041
     16 C         -61.1269  -47.1704  -25.4424 C.3     1  UNL1        0.1122
     17 C         -62.0884  -47.8844  -24.4919 C.3     1  UNL1        0.1122
     18 C         -61.5358  -45.5003  -27.2903 C.ar    1  UNL1        0.0479
     19 C         -61.1297  -44.3953  -26.5251 C.ar    1  UNL1        0.0145
     20 C         -60.8248  -43.1826  -27.1458 C.ar    1  UNL1        0.0012
     21 C         -60.9325  -43.0563  -28.5326 C.ar    1  UNL1        0.0039
     22 C         -61.3675  -44.1409  -29.3136 C.ar    1  UNL1        0.0726
     23 C         -61.6460  -45.3675  -28.6843 C.ar    1  UNL1        0.0184
     24 C         -61.4425  -44.0211  -30.8151 C.3     1  UNL1        0.4186
     25 F         -60.4495  -44.7740  -31.4179 F       1  UNL1       -0.1659
     26 F         -62.6751  -44.4740  -31.2465 F       1  UNL1       -0.1659
     27 F         -61.2834  -42.7032  -31.2075 F       1  UNL1       -0.1659
     28 C         -65.7604  -55.6618  -21.9953 C.3     1  UNL1        0.1535
     29 C         -66.7266  -55.5488  -20.8480 C.2     1  UNL1        0.2443
     30 O         -66.6818  -56.3930  -19.9116 O.2     1  UNL1       -0.2730
     31 N         -67.6291  -54.4337  -20.7795 N.am    1  UNL1       -0.2825
     32 H         -67.4201  -53.6008  -21.3756 H       1  UNL1        0.1549
     33 C         -68.7388  -54.3515  -19.8691 C.ar    1  UNL1        0.0535
     34 C         -68.7006  -54.9643  -18.6049 C.ar    1  UNL1        0.0353
     35 C         -69.8131  -54.8788  -17.7639 C.ar    1  UNL1        0.1002
     36 N         -70.9289  -54.2190  -18.1729 N.ar    1  UNL1       -0.2422
     37 C         -71.0007  -53.6328  -19.3970 C.ar    1  UNL1        0.1002
     38 C         -69.9112  -53.6958  -20.2692 C.ar    1  UNL1        0.0353
     39 C         -66.3714  -56.5144  -23.1230 C.3     1  UNL1        0.0569
     40 C         -68.5117  -55.1298  -25.3618 C.ar    1  UNL1       -0.0211
     41 C         -69.6608  -54.7296  -26.0836 C.ar    1  UNL1       -0.0042
     42 C         -70.9541  -55.0249  -25.6184 C.ar    1  UNL1        0.0012
     43 C         -71.1333  -55.7120  -24.4137 C.ar    1  UNL1        0.0169
     44 C         -70.0016  -56.0938  -23.6997 C.ar    1  UNL1        0.0560
     45 N         -69.9988  -56.7524  -22.5308 N.ar    1  UNL1       -0.3523
     46 C         -68.7059  -56.9276  -22.2024 C.ar    1  UNL1        0.0681
     47 C         -67.8714  -56.3736  -23.1674 C.ar    1  UNL1       -0.0020
     48 C         -68.7184  -55.8281  -24.1436 C.ar    1  UNL1        0.0091
     49 H         -70.8292  -57.0776  -21.9875 H       1  UNL1        0.1660
     50 C         -67.0690  -54.9515  -27.3967 C.3     1  UNL1        0.0050
     51 C         -67.1609  -54.7174  -25.8908 C.3     1  UNL1        0.0264
@<TRIPOS>BOND
     1    50    51    1
     2    51    40    1
     3    40    41   ar
     4    41    42   ar
     5    42    43   ar
     6    43    44   ar
     7    44    45   ar
     8    45    46   ar
     9    46    47   ar
    10    47    39    1
    11    39    28    1
    12    28     1    1
    13     1     2   am
    14     2     3    2
    15     2     5    1
    16     5     6   ar
    17     6     7   ar
    18     7     8   ar
    19     8    12    1
    20    12    13    1
    21    13    14    1
    22    14    15    1
    23    15    18    1
    24    18    19   ar
    25    19    20   ar
    26    20    21   ar
    27    21    22   ar
    28    22    24    1
    29    24    25    1
    30    24    26    1
    31    24    27    1
    32    22    23   ar
    33    15    16    1
    34    16    17    1
    35     8     9   ar
    36     9    10   ar
    37    10    11    1
    38    28    29    1
    39    29    30    2
    40    29    31   am
    41    31    33    1
    42    33    34   ar
    43    34    35   ar
    44    35    36   ar
    45    36    37   ar
    46    37    38   ar
    47    47    48   ar
    48    48    40   ar
    49    48    44   ar
    50    10     5   ar
    51    38    33   ar
    52    17    12    1
    53    23    18   ar
    54    45    49    1
    55     1     4    1
    56    31    32    1
@<TRIPOS>MOLECULE
*****
 51 56 0 0 0
SMALL
GASTEIGER

@<TRIPOS>ATOM
      1 N         -63.0312  -46.1872  -26.9858 N.am    1  UNL1       -0.2945
      2 C         -62.0460  -45.7331  -26.0449 C.2     1  UNL1        0.2483
      3 O         -60.9639  -46.3685  -25.9144 O.2     1  UNL1       -0.2701
      4 H         -64.0167  -45.8680  -26.8601 H       1  UNL1        0.1501
      5 C         -62.2972  -44.5456  -25.1968 C.ar    1  UNL1        0.0808
      6 C         -62.1301  -44.6388  -23.8047 C.ar    1  UNL1        0.0080
      7 C         -62.3658  -43.5322  -22.9849 C.ar    1  UNL1        0.0148
      8 C         -62.7612  -42.3065  -23.5424 C.ar    1  UNL1        0.0502
      9 C         -62.9146  -42.2059  -24.9328 C.ar    1  UNL1        0.0443
     10 C         -62.6817  -43.3113  -25.7567 C.ar    1  UNL1        0.1457
     11 F         -62.7902  -43.1551  -27.0994 F       1  UNL1       -0.2040
     12 N         -63.0070  -41.1628  -22.7029 N.pl3   1  UNL1       -0.3040
     13 C         -61.9367  -40.6121  -21.8627 C.3     1  UNL1        0.1122
     14 C         -62.5085  -40.1594  -20.5188 C.3     1  UNL1        0.1122
     15 N         -63.7059  -39.3371  -20.7309 N.pl3   1  UNL1       -0.3041
     16 C         -64.7760  -39.8877  -21.5709 C.3     1  UNL1        0.1122
     17 C         -64.2042  -40.3401  -22.9148 C.3     1  UNL1        0.1122
     18 C         -63.9530  -38.1954  -19.8887 C.ar    1  UNL1        0.0479
     19 C         -65.1121  -38.1269  -19.0992 C.ar    1  UNL1        0.0145
     20 C         -65.3382  -37.0234  -18.2745 C.ar    1  UNL1        0.0012
     21 C         -64.4179  -35.9734  -18.2375 C.ar    1  UNL1        0.0039
     22 C         -63.2671  -36.0079  -19.0436 C.ar    1  UNL1        0.0726
     23 C         -63.0320  -37.1355  -19.8507 C.ar    1  UNL1        0.0184
     24 C         -62.2499  -34.8967  -18.9729 C.3     1  UNL1        0.4186
     25 F         -62.8082  -33.7539  -18.4265 F       1  UNL1       -0.1659
     26 F         -61.1890  -35.3007  -18.1843 F       1  UNL1       -0.1659
     27 F         -61.7794  -34.5854  -20.2370 F       1  UNL1       -0.1659
     28 C         -62.7590  -47.2616  -27.9461 C.3     1  UNL1        0.1535
     29 C         -62.9356  -48.5993  -27.2813 C.2     1  UNL1        0.2443
     30 O         -63.4505  -49.5523  -27.9280 O.2     1  UNL1       -0.2730
     31 N         -62.4362  -48.8089  -25.9512 N.am    1  UNL1       -0.2825
     32 H         -61.7395  -48.1241  -25.5790 H       1  UNL1        0.1549
     33 C         -62.7552  -49.9546  -25.1432 C.ar    1  UNL1        0.0535
     34 C         -64.0133  -50.5771  -25.2129 C.ar    1  UNL1        0.0353
     35 C         -64.2865  -51.6726  -24.3898 C.ar    1  UNL1        0.1002
     36 N         -63.3457  -52.1229  -23.5181 N.ar    1  UNL1       -0.2422
     37 C         -62.1274  -51.5291  -23.4162 C.ar    1  UNL1        0.1002
     38 C         -61.8140  -50.4303  -24.2200 C.ar    1  UNL1        0.0353
     39 C         -63.6784  -47.1540  -29.1770 C.3     1  UNL1        0.0569
     40 C         -62.1355  -44.2790  -30.1067 C.ar    1  UNL1       -0.0211
     41 C         -61.8475  -42.9578  -30.5227 C.ar    1  UNL1       -0.0042
     42 C         -62.8640  -41.9953  -30.6507 C.ar    1  UNL1        0.0012
     43 C         -64.1902  -42.3223  -30.3510 C.ar    1  UNL1        0.0169
     44 C         -64.4690  -43.6191  -29.9305 C.ar    1  UNL1        0.0560
     45 N         -65.6807  -44.0920  -29.6019 N.ar    1  UNL1       -0.3523
     46 C         -65.5014  -45.3829  -29.2679 C.ar    1  UNL1        0.0681
     47 C         -64.1621  -45.7409  -29.3798 C.ar    1  UNL1       -0.0020
     48 C         -63.4887  -44.5881  -29.8109 C.ar    1  UNL1        0.0091
     49 H         -66.5860  -43.5715  -29.6138 H       1  UNL1        0.1660
     50 C         -59.8803  -44.6096  -29.0779 C.3     1  UNL1        0.0050
     51 C         -60.9828  -45.2351  -29.9287 C.3     1  UNL1        0.0264
@<TRIPOS>BOND
     1    50    51    1
     2    51    40    1
     3    40    41   ar
     4    41    42   ar
     5    42    43   ar
     6    43    44   ar
     7    44    45   ar
     8    45    46   ar
     9    46    47   ar
    10    47    39    1
    11    39    28    1
    12    28     1    1
    13     1     2   am
    14     2     3    2
    15     2     5    1
    16     5     6   ar
    17     6     7   ar
    18     7     8   ar
    19     8    12    1
    20    12    13    1
    21    13    14    1
    22    14    15    1
    23    15    18    1
    24    18    19   ar
    25    19    20   ar
    26    20    21   ar
    27    21    22   ar
    28    22    24    1
    29    24    25    1
    30    24    26    1
    31    24    27    1
    32    22    23   ar
    33    15    16    1
    34    16    17    1
    35     8     9   ar
    36     9    10   ar
    37    10    11    1
    38    28    29    1
    39    29    30    2
    40    29    31   am
    41    31    33    1
    42    33    34   ar
    43    34    35   ar
    44    35    36   ar
    45    36    37   ar
    46    37    38   ar
    47    47    48   ar
    48    48    40   ar
    49    48    44   ar
    50    10     5   ar
    51    38    33   ar
    52    17    12    1
    53    23    18   ar
    54    45    49    1
    55     1     4    1
    56    31    32    1
@<TRIPOS>MOLECULE
*****
 51 56 0 0 0
SMALL
GASTEIGER

@<TRIPOS>ATOM
      1 N         -63.4400  -40.2101  -19.9683 N.am    1  UNL1       -0.2945
      2 C         -62.4800  -41.2084  -20.3478 C.2     1  UNL1        0.2483
      3 O         -61.7676  -41.7608  -19.4652 O.2     1  UNL1       -0.2701
      4 H         -63.7779  -39.5477  -20.7004 H       1  UNL1        0.1501
      5 C         -62.2883  -41.5751  -21.7695 C.ar    1  UNL1        0.0808
      6 C         -63.3560  -41.4363  -22.6724 C.ar    1  UNL1        0.0080
      7 C         -63.1988  -41.7804  -24.0175 C.ar    1  UNL1        0.0148
      8 C         -61.9664  -42.2584  -24.4889 C.ar    1  UNL1        0.0502
      9 C         -60.8943  -42.3843  -23.5935 C.ar    1  UNL1        0.0443
     10 C         -61.0479  -42.0429  -22.2464 C.ar    1  UNL1        0.1457
     11 F         -59.9705  -42.1297  -21.4274 F       1  UNL1       -0.2040
     12 N         -61.7983  -42.6161  -25.8736 N.pl3   1  UNL1       -0.3040
     13 C         -60.4737  -42.5542  -26.5030 C.3     1  UNL1        0.1122
     14 C         -60.6015  -42.0469  -27.9398 C.3     1  UNL1        0.1122
     15 N         -61.6609  -42.7812  -28.6420 N.pl3   1  UNL1       -0.3041
     16 C         -62.9854  -42.8431  -28.0127 C.3     1  UNL1        0.1122
     17 C         -62.8575  -43.3505  -26.5760 C.3     1  UNL1        0.1122
     18 C         -61.4937  -43.1355  -30.0277 C.ar    1  UNL1        0.0479
     19 C         -62.4996  -42.8504  -30.9650 C.ar    1  UNL1        0.0145
     20 C         -62.3247  -43.1841  -32.3092 C.ar    1  UNL1        0.0012
     21 C         -61.1517  -43.8149  -32.7299 C.ar    1  UNL1        0.0039
     22 C         -60.1461  -44.1376  -31.8025 C.ar    1  UNL1        0.0726
     23 C         -60.3173  -43.7731  -30.4549 C.ar    1  UNL1        0.0184
     24 C         -58.8600  -44.7786  -32.2605 C.3     1  UNL1        0.4186
     25 F         -57.7734  -43.9836  -31.9389 F       1  UNL1       -0.1659
     26 F         -58.7183  -46.0064  -31.6415 F       1  UNL1       -0.1659
     27 F         -58.8690  -44.9633  -33.6323 F       1  UNL1       -0.1659
     28 C         -63.7650  -39.9308  -18.5658 C.3     1  UNL1        0.1535
     29 C         -63.8346  -38.4449  -18.3425 C.2     1  UNL1        0.2443
     30 O         -63.0585  -37.9042  -17.5077 O.2     1  UNL1       -0.2730
     31 N         -64.7159  -37.6415  -19.1427 N.am    1  UNL1       -0.2825
     32 H         -65.0885  -38.0590  -20.0257 H       1  UNL1        0.1549
     33 C         -65.0330  -36.2681  -18.8587 C.ar    1  UNL1        0.0535
     34 C         -64.1790  -35.4595  -18.0892 C.ar    1  UNL1        0.0353
     35 C         -64.5414  -34.1377  -17.8180 C.ar    1  UNL1        0.1002
     36 N         -65.7186  -33.6431  -18.2840 N.ar    1  UNL1       -0.2422
     37 C         -66.5722  -34.4074  -19.0150 C.ar    1  UNL1        0.1002
     38 C         -66.2489  -35.7346  -19.3077 C.ar    1  UNL1        0.0353
     39 C         -65.0955  -40.5923  -18.1606 C.3     1  UNL1        0.0569
     40 C         -66.1600  -42.5370  -20.7287 C.ar    1  UNL1       -0.0211
     41 C         -66.4069  -43.6114  -21.6155 C.ar    1  UNL1       -0.0042
     42 C         -65.9872  -44.9184  -21.3127 C.ar    1  UNL1        0.0012
     43 C         -65.3259  -45.1889  -20.1107 C.ar    1  UNL1        0.0169
     44 C         -65.0950  -44.1326  -19.2348 C.ar    1  UNL1        0.0560
     45 N         -64.4808  -44.2219  -18.0454 N.ar    1  UNL1       -0.3523
     46 C         -64.4598  -42.9754  -17.5398 C.ar    1  UNL1        0.0681
     47 C         -65.0691  -42.0784  -18.4109 C.ar    1  UNL1       -0.0020
     48 C         -65.4849  -42.8354  -19.5164 C.ar    1  UNL1        0.0091
     49 H         -64.0849  -45.0807  -17.6022 H       1  UNL1        0.1660
     50 C         -66.7492  -40.9957  -22.6077 C.3     1  UNL1        0.0050
     51 C         -66.7000  -41.1768  -21.0926 C.3     1  UNL1        0.0264
@<TRIPOS>BOND
     1    50    51    1
     2    51    40    1
     3    40    41   ar
     4    41    42   ar
     5    42    43   ar
     6    43    44   ar
     7    44    45   ar
     8    45    46   ar
     9    46    47   ar
    10    47    39    1
    11    39    28    1
    12    28     1    1
    13     1     2   am
    14     2     3    2
    15     2     5    1
    16     5     6   ar
    17     6     7   ar
    18     7     8   ar
    19     8    12    1
    20    12    13    1
    21    13    14    1
    22    14    15    1
    23    15    18    1
    24    18    19   ar
    25    19    20   ar
    26    20    21   ar
    27    21    22   ar
    28    22    24    1
    29    24    25    1
    30    24    26    1
    31    24    27    1
    32    22    23   ar
    33    15    16    1
    34    16    17    1
    35     8     9   ar
    36     9    10   ar
    37    10    11    1
    38    28    29    1
    39    29    30    2
    40    29    31   am
    41    31    33    1
    42    33    34   ar
    43    34    35   ar
    44    35    36   ar
    45    36    37   ar
    46    37    38   ar
    47    47    48   ar
    48    48    40   ar
    49    48    44   ar
    50    10     5   ar
    51    38    33   ar
    52    17    12    1
    53    23    18   ar
    54    45    49    1
    55     1     4    1
    56    31    32    1
@<TRIPOS>MOLECULE
*****
 51 56 0 0 0
SMALL
GASTEIGER

@<TRIPOS>ATOM
      1 N         -63.3849  -40.3728  -20.1391 N.am    1  UNL1       -0.2945
      2 C         -62.4283  -41.4140  -20.3903 C.2     1  UNL1        0.2483
      3 O         -61.8693  -41.9988  -19.4222 O.2     1  UNL1       -0.2701
      4 H         -63.5889  -39.6955  -20.9062 H       1  UNL1        0.1501
      5 C         -62.0605  -41.7888  -21.7748 C.ar    1  UNL1        0.0808
      6 C         -63.0142  -41.6779  -22.8008 C.ar    1  UNL1        0.0080
      7 C         -62.6903  -42.0300  -24.1135 C.ar    1  UNL1        0.0148
      8 C         -61.4018  -42.4882  -24.4286 C.ar    1  UNL1        0.0502
      9 C         -60.4430  -42.5861  -23.4097 C.ar    1  UNL1        0.0443
     10 C         -60.7635  -42.2367  -22.0944 C.ar    1  UNL1        0.1457
     11 F         -59.7910  -42.2960  -21.1512 F       1  UNL1       -0.2040
     12 N         -61.0620  -42.8540  -25.7792 N.pl3   1  UNL1       -0.3040
     13 C         -60.2848  -41.9401  -26.6250 C.3     1  UNL1        0.1122
     14 C         -60.8011  -41.9933  -28.0632 C.3     1  UNL1        0.1122
     15 N         -60.9327  -43.3883  -28.5010 N.pl3   1  UNL1       -0.3041
     16 C         -61.7098  -44.3021  -27.6553 C.3     1  UNL1        0.1122
     17 C         -61.1933  -44.2489  -26.2173 C.3     1  UNL1        0.1122
     18 C         -60.5961  -43.7528  -29.8528 C.ar    1  UNL1        0.0479
     19 C         -59.4330  -44.4906  -30.1259 C.ar    1  UNL1        0.0145
     20 C         -59.1203  -44.8526  -31.4374 C.ar    1  UNL1        0.0012
     21 C         -59.9568  -44.4734  -32.4896 C.ar    1  UNL1        0.0039
     22 C         -61.1091  -43.7078  -32.2413 C.ar    1  UNL1        0.0726
     23 C         -61.4325  -43.3709  -30.9147 C.ar    1  UNL1        0.0184
     24 C         -62.0375  -43.3345  -33.3697 C.3     1  UNL1        0.4186
     25 F         -62.5348  -42.0548  -33.1933 F       1  UNL1       -0.1659
     26 F         -61.3450  -43.3876  -34.5648 F       1  UNL1       -0.1659
     27 F         -63.1084  -44.2095  -33.4296 F       1  UNL1       -0.1659
     28 C         -63.8859  -40.0793  -18.7925 C.3     1  UNL1        0.1535
     29 C         -63.8513  -38.5960  -18.5454 C.2     1  UNL1        0.2443
     30 O         -63.0096  -38.1197  -17.7354 O.2     1  UNL1       -0.2730
     31 N         -64.7106  -37.7250  -19.2974 N.am    1  UNL1       -0.2825
     32 H         -65.1441  -38.1032  -20.1703 H       1  UNL1        0.1549
     33 C         -64.9277  -36.3393  -18.9812 C.ar    1  UNL1        0.0535
     34 C         -64.0349  -35.6217  -18.1668 C.ar    1  UNL1        0.0353
     35 C         -64.3006  -34.2834  -17.8660 C.ar    1  UNL1        0.1002
     36 N         -65.4225  -33.6853  -18.3468 N.ar    1  UNL1       -0.2422
     37 C         -66.3126  -34.3599  -19.1214 C.ar    1  UNL1        0.1002
     38 C         -66.0855  -35.6998  -19.4449 C.ar    1  UNL1        0.0353
     39 C         -65.3165  -40.6170  -18.6016 C.3     1  UNL1        0.0569
     40 C         -65.6783  -43.3484  -20.5813 C.ar    1  UNL1       -0.0211
     41 C         -65.7154  -44.6661  -21.0950 C.ar    1  UNL1       -0.0042
     42 C         -65.4957  -45.7792  -20.2650 C.ar    1  UNL1        0.0012
     43 C         -65.2501  -45.6063  -18.8993 C.ar    1  UNL1        0.0169
     44 C         -65.2262  -44.3099  -18.3943 C.ar    1  UNL1        0.0560
     45 N         -65.0094  -43.9723  -17.1140 N.ar    1  UNL1       -0.3523
     46 C         -65.0598  -42.6287  -17.0668 C.ar    1  UNL1        0.0681
     47 C         -65.3145  -42.0992  -18.3275 C.ar    1  UNL1       -0.0020
     48 C         -65.4246  -43.1977  -19.1930 C.ar    1  UNL1        0.0091
     49 H         -64.8250  -44.6174  -16.3136 H       1  UNL1        0.1660
     50 C         -67.3785  -41.6384  -21.2440 C.3     1  UNL1        0.0050
     51 C         -65.9903  -42.2105  -21.5205 C.3     1  UNL1        0.0264
@<TRIPOS>BOND
     1    50    51    1
     2    51    40    1
     3    40    41   ar
     4    41    42   ar
     5    42    43   ar
     6    43    44   ar
     7    44    45   ar
     8    45    46   ar
     9    46    47   ar
    10    47    39    1
    11    39    28    1
    12    28     1    1
    13     1     2   am
    14     2     3    2
    15     2     5    1
    16     5     6   ar
    17     6     7   ar
    18     7     8   ar
    19     8    12    1
    20    12    13    1
    21    13    14    1
    22    14    15    1
    23    15    18    1
    24    18    19   ar
    25    19    20   ar
    26    20    21   ar
    27    21    22   ar
    28    22    24    1
    29    24    25    1
    30    24    26    1
    31    24    27    1
    32    22    23   ar
    33    15    16    1
    34    16    17    1
    35     8     9   ar
    36     9    10   ar
    37    10    11    1
    38    28    29    1
    39    29    30    2
    40    29    31   am
    41    31    33    1
    42    33    34   ar
    43    34    35   ar
    44    35    36   ar
    45    36    37   ar
    46    37    38   ar
    47    47    48   ar
    48    48    40   ar
    49    48    44   ar
    50    10     5   ar
    51    38    33   ar
    52    17    12    1
    53    23    18   ar
    54    45    49    1
    55     1     4    1
    56    31    32    1
@<TRIPOS>MOLECULE
*****
 51 56 0 0 0
SMALL
GASTEIGER

@<TRIPOS>ATOM
      1 N         -65.6063  -54.2412  -23.2738 N.am    1  UNL1       -0.2945
      2 C         -64.2371  -53.8948  -23.0140 C.2     1  UNL1        0.2483
      3 O         -63.4704  -54.7351  -22.4683 O.2     1  UNL1       -0.2701
      4 H         -66.2922  -53.4675  -23.4145 H       1  UNL1        0.1501
      5 C         -63.7188  -52.5481  -23.3463 C.ar    1  UNL1        0.0808
      6 C         -64.4274  -51.7340  -24.2460 C.ar    1  UNL1        0.0080
      7 C         -63.9547  -50.4616  -24.5773 C.ar    1  UNL1        0.0148
      8 C         -62.7699  -49.9730  -24.0053 C.ar    1  UNL1        0.0502
      9 C         -62.0679  -50.7771  -23.0956 C.ar    1  UNL1        0.0443
     10 C         -62.5365  -52.0517  -22.7628 C.ar    1  UNL1        0.1457
     11 F         -61.8551  -52.7735  -21.8389 F       1  UNL1       -0.2040
     12 N         -62.2766  -48.6632  -24.3435 N.pl3   1  UNL1       -0.3040
     13 C         -61.1280  -48.0928  -23.6293 C.3     1  UNL1        0.1122
     14 C         -61.3390  -46.5938  -23.4139 C.3     1  UNL1        0.1122
     15 N         -61.7508  -45.9563  -24.6704 N.pl3   1  UNL1       -0.3041
     16 C         -62.8993  -46.5266  -25.3845 C.3     1  UNL1        0.1122
     17 C         -62.6881  -48.0255  -25.6000 C.3     1  UNL1        0.1122
     18 C         -61.2599  -44.6449  -25.0065 C.ar    1  UNL1        0.0479
     19 C         -60.6893  -43.8214  -24.0227 C.ar    1  UNL1        0.0145
     20 C         -60.2027  -42.5567  -24.3585 C.ar    1  UNL1        0.0012
     21 C         -60.2904  -42.0965  -25.6744 C.ar    1  UNL1        0.0039
     22 C         -60.8864  -42.8925  -26.6677 C.ar    1  UNL1        0.0726
     23 C         -61.3489  -44.1765  -26.3277 C.ar    1  UNL1        0.0184
     24 C         -60.9428  -42.4168  -28.0977 C.3     1  UNL1        0.4186
     25 F         -62.2477  -42.4029  -28.5594 F       1  UNL1       -0.1659
     26 F         -60.4254  -41.1372  -28.1720 F       1  UNL1       -0.1659
     27 F         -60.2032  -43.2508  -28.9184 F       1  UNL1       -0.1659
     28 C         -66.1141  -55.6060  -23.1007 C.3     1  UNL1        0.1535
     29 C         -66.9608  -55.6837  -21.8599 C.2     1  UNL1        0.2443
     30 O         -67.3629  -56.8072  -21.4505 O.2     1  UNL1       -0.2730
     31 N         -67.2290  -54.4944  -21.1009 N.am    1  UNL1       -0.2825
     32 H         -66.6242  -53.6595  -21.2739 H       1  UNL1        0.1549
     33 C         -68.2061  -54.4142  -20.0492 C.ar    1  UNL1        0.0535
     34 C         -68.0224  -55.0744  -18.8221 C.ar    1  UNL1        0.0353
     35 C         -69.0113  -54.9884  -17.8388 C.ar    1  UNL1        0.1002
     36 N         -70.1486  -54.2823  -18.0742 N.ar    1  UNL1       -0.2422
     37 C         -70.3611  -53.6492  -19.2580 C.ar    1  UNL1        0.1002
     38 C         -69.3985  -53.7109  -20.2685 C.ar    1  UNL1        0.0353
     39 C         -66.9272  -56.0570  -24.3285 C.3     1  UNL1        0.0569
     40 C         -68.6854  -55.0675  -27.0561 C.ar    1  UNL1       -0.0211
     41 C         -69.6670  -54.5464  -27.9316 C.ar    1  UNL1       -0.0042
     42 C         -70.7964  -53.8685  -27.4408 C.ar    1  UNL1        0.0012
     43 C         -70.9662  -53.6791  -26.0657 C.ar    1  UNL1        0.0169
     44 C         -69.9931  -54.1820  -25.2074 C.ar    1  UNL1        0.0560
     45 N         -70.0025  -54.0829  -23.8695 N.ar    1  UNL1       -0.3523
     46 C         -68.8921  -54.7090  -23.4394 C.ar    1  UNL1        0.0681
     47 C         -68.1616  -55.2115  -24.5110 C.ar    1  UNL1       -0.0020
     48 C         -68.8806  -54.8655  -25.6649 C.ar    1  UNL1        0.0091
     49 H         -70.7292  -53.6249  -23.2755 H       1  UNL1        0.1660
     50 C         -66.3643  -54.6996  -27.9110 C.3     1  UNL1        0.0050
     51 C         -67.4694  -55.7229  -27.6612 C.3     1  UNL1        0.0264
@<TRIPOS>BOND
     1    50    51    1
     2    51    40    1
     3    40    41   ar
     4    41    42   ar
     5    42    43   ar
     6    43    44   ar
     7    44    45   ar
     8    45    46   ar
     9    46    47   ar
    10    47    39    1
    11    39    28    1
    12    28     1    1
    13     1     2   am
    14     2     3    2
    15     2     5    1
    16     5     6   ar
    17     6     7   ar
    18     7     8   ar
    19     8    12    1
    20    12    13    1
    21    13    14    1
    22    14    15    1
    23    15    18    1
    24    18    19   ar
    25    19    20   ar
    26    20    21   ar
    27    21    22   ar
    28    22    24    1
    29    24    25    1
    30    24    26    1
    31    24    27    1
    32    22    23   ar
    33    15    16    1
    34    16    17    1
    35     8     9   ar
    36     9    10   ar
    37    10    11    1
    38    28    29    1
    39    29    30    2
    40    29    31   am
    41    31    33    1
    42    33    34   ar
    43    34    35   ar
    44    35    36   ar
    45    36    37   ar
    46    37    38   ar
    47    47    48   ar
    48    48    40   ar
    49    48    44   ar
    50    10     5   ar
    51    38    33   ar
    52    17    12    1
    53    23    18   ar
    54    45    49    1
    55     1     4    1
    56    31    32    1
@<TRIPOS>MOLECULE
*****
 51 56 0 0 0
SMALL
GASTEIGER

@<TRIPOS>ATOM
      1 N         -73.2230  -57.1860  -20.2961 N.am    1  UNL1       -0.2945
      2 C         -73.3073  -55.9589  -21.0373 C.2     1  UNL1        0.2483
      3 O         -73.3944  -54.8603  -20.4233 O.2     1  UNL1       -0.2701
      4 H         -73.4742  -58.0741  -20.7829 H       1  UNL1        0.1501
      5 C         -73.3291  -55.9667  -22.5179 C.ar    1  UNL1        0.0808
      6 C         -74.5431  -56.1777  -23.1933 C.ar    1  UNL1        0.0080
      7 C         -74.5862  -56.1933  -24.5897 C.ar    1  UNL1        0.0148
      8 C         -73.4178  -55.9856  -25.3388 C.ar    1  UNL1        0.0502
      9 C         -72.2070  -55.7599  -24.6680 C.ar    1  UNL1        0.0443
     10 C         -72.1590  -55.7454  -23.2707 C.ar    1  UNL1        0.1457
     11 F         -70.9777  -55.4707  -22.6641 F       1  UNL1       -0.2040
     12 N         -73.4552  -56.0018  -26.7781 N.pl3   1  UNL1       -0.3040
     13 C         -72.4343  -56.7296  -27.5413 C.3     1  UNL1        0.1122
     14 C         -72.0660  -55.9450  -28.8010 C.3     1  UNL1        0.1122
     15 N         -73.2820  -55.5259  -29.5083 N.pl3   1  UNL1       -0.3041
     16 C         -74.3029  -54.7981  -28.7452 C.3     1  UNL1        0.1122
     17 C         -74.6713  -55.5828  -27.4857 C.3     1  UNL1        0.1122
     18 C         -73.3177  -55.5390  -30.9478 C.ar    1  UNL1        0.0479
     19 C         -72.8954  -56.6710  -31.6632 C.ar    1  UNL1        0.0145
     20 C         -72.9460  -56.6818  -33.0583 C.ar    1  UNL1        0.0012
     21 C         -73.4067  -55.5615  -33.7535 C.ar    1  UNL1        0.0039
     22 C         -73.8044  -54.4069  -33.0577 C.ar    1  UNL1        0.0726
     23 C         -73.7771  -54.4135  -31.6515 C.ar    1  UNL1        0.0184
     24 C         -74.3437  -53.2119  -33.8032 C.3     1  UNL1        0.4186
     25 F         -73.3422  -52.2849  -34.0351 F       1  UNL1       -0.1659
     26 F         -74.8615  -53.6280  -35.0154 F       1  UNL1       -0.1659
     27 F         -75.3443  -52.5932  -33.0737 F       1  UNL1       -0.1659
     28 C         -73.0457  -57.2099  -18.8405 C.3     1  UNL1        0.1535
     29 C         -71.6654  -56.7296  -18.4850 C.2     1  UNL1        0.2443
     30 O         -71.1167  -57.1418  -17.4264 O.2     1  UNL1       -0.2730
     31 N         -70.9470  -55.8804  -19.3935 N.am    1  UNL1       -0.2825
     32 H         -71.2837  -55.8293  -20.3818 H       1  UNL1        0.1549
     33 C         -69.7375  -55.1806  -19.0550 C.ar    1  UNL1        0.0535
     34 C         -69.4078  -53.9506  -19.6496 C.ar    1  UNL1        0.0353
     35 C         -68.2090  -53.3196  -19.3079 C.ar    1  UNL1        0.1002
     36 N         -67.3620  -53.8995  -18.4169 N.ar    1  UNL1       -0.2422
     37 C         -67.6463  -55.0970  -17.8403 C.ar    1  UNL1        0.1002
     38 C         -68.8337  -55.7621  -18.1552 C.ar    1  UNL1        0.0353
     39 C         -74.1076  -56.3447  -18.1364 C.3     1  UNL1        0.0569
     40 C         -72.9639  -53.8010  -16.2045 C.ar    1  UNL1       -0.0211
     41 C         -72.5922  -52.9715  -15.1204 C.ar    1  UNL1       -0.0042
     42 C         -72.6551  -53.4326  -13.7940 C.ar    1  UNL1        0.0012
     43 C         -73.0745  -54.7377  -13.5174 C.ar    1  UNL1        0.0169
     44 C         -73.4280  -55.5554  -14.5863 C.ar    1  UNL1        0.0560
     45 N         -73.8455  -56.8271  -14.4944 N.ar    1  UNL1       -0.3523
     46 C         -74.0887  -57.2337  -15.7536 C.ar    1  UNL1        0.0681
     47 C         -73.8216  -56.2151  -16.6622 C.ar    1  UNL1       -0.0020
     48 C         -73.3888  -55.1203  -15.8991 C.ar    1  UNL1        0.0091
     49 H         -73.9710  -57.3889  -13.6231 H       1  UNL1        0.1660
     50 C         -73.6097  -51.9726  -17.7836 C.3     1  UNL1        0.0050
     51 C         -72.8052  -53.2574  -17.6023 C.3     1  UNL1        0.0264
@<TRIPOS>BOND
     1    50    51    1
     2    51    40    1
     3    40    41   ar
     4    41    42   ar
     5    42    43   ar
     6    43    44   ar
     7    44    45   ar
     8    45    46   ar
     9    46    47   ar
    10    47    39    1
    11    39    28    1
    12    28     1    1
    13     1     2   am
    14     2     3    2
    15     2     5    1
    16     5     6   ar
    17     6     7   ar
    18     7     8   ar
    19     8    12    1
    20    12    13    1
    21    13    14    1
    22    14    15    1
    23    15    18    1
    24    18    19   ar
    25    19    20   ar
    26    20    21   ar
    27    21    22   ar
    28    22    24    1
    29    24    25    1
    30    24    26    1
    31    24    27    1
    32    22    23   ar
    33    15    16    1
    34    16    17    1
    35     8     9   ar
    36     9    10   ar
    37    10    11    1
    38    28    29    1
    39    29    30    2
    40    29    31   am
    41    31    33    1
    42    33    34   ar
    43    34    35   ar
    44    35    36   ar
    45    36    37   ar
    46    37    38   ar
    47    47    48   ar
    48    48    40   ar
    49    48    44   ar
    50    10     5   ar
    51    38    33   ar
    52    17    12    1
    53    23    18   ar
    54    45    49    1
    55     1     4    1
    56    31    32    1
