@<TRIPOS>MOLECULE
*****
 52 57 0 0 0
SMALL
GASTEIGER

@<TRIPOS>ATOM
      1 C          -6.5596  -10.8464   31.9293 C.2     1  UNL1        0.1910
      2 O          -6.2652   -9.7377   32.7240 O.2     1  UNL1       -0.5018
      3 C          -7.7519  -11.4578   32.0325 C.2     1  UNL1        0.0837
      4 H          -5.3429   -9.3207   32.7384 H       1  UNL1        0.2924
      5 N          -6.0643  -13.1945   27.2812 N.pl3   1  UNL1       -0.3041
      6 C          -5.3860  -11.8950   27.2017 C.3     1  UNL1        0.1123
      7 C          -4.8466  -11.5163   28.5825 C.3     1  UNL1        0.1152
      8 N          -5.8691  -11.6951   29.6256 N.am    1  UNL1       -0.2701
      9 C          -5.5374  -11.3628   30.9879 C.2     1  UNL1        0.2831
     10 O          -4.3473  -11.4992   31.3851 O.2     1  UNL1       -0.2666
     11 C          -7.1957  -12.2294   29.2768 C.3     1  UNL1        0.1152
     12 C          -7.0579  -13.4365   28.3389 C.3     1  UNL1        0.1123
     13 C          -4.9776  -16.3523   24.6291 C.ar    1  UNL1        0.0641
     14 C          -5.3389  -15.0887   24.1283 C.ar    1  UNL1        0.0188
     15 C          -5.6986  -14.0559   24.9980 C.ar    1  UNL1        0.0160
     16 C          -5.7063  -14.2640   26.3859 C.ar    1  UNL1        0.0480
     17 C          -5.3399  -15.5212   26.8896 C.ar    1  UNL1        0.0160
     18 C          -4.9823  -16.5559   26.0208 C.ar    1  UNL1        0.0188
     19 C          -4.6942  -18.9952   22.1506 C.ar    1  UNL1       -0.0035
     20 C          -3.4148  -18.9915   22.6718 C.ar    1  UNL1        0.0162
     21 C          -3.3947  -18.0100   23.6418 C.ar    1  UNL1        0.0798
     22 N          -4.6068  -17.4192   23.7320 N.ar    1  UNL1       -0.3039
     23 C          -5.4052  -18.0176   22.8222 C.ar    1  UNL1        0.0758
     24 C          -6.3802  -19.2385   20.3229 C.3     1  UNL1        0.0047
     25 C          -5.2020  -19.8919   21.0520 C.3     1  UNL1        0.0239
     26 C          -4.0751  -20.2377   20.0739 C.3     1  UNL1        0.0047
     27 C          -8.8382  -11.0132   32.9400 C.2     1  UNL1        0.2080
     28 O          -8.6123  -10.8661   34.1722 O.2     1  UNL1       -0.2861
     29 C         -10.1949  -10.7158   32.4090 C.2     1  UNL1        0.1445
     30 C         -11.0893  -11.7622   32.1433 C.2     1  UNL1        0.0149
     31 C         -12.3699  -11.4937   31.6567 C.2     1  UNL1        0.0516
     32 C         -12.7538  -10.1645   31.4588 C.2     1  UNL1        0.2813
     33 N         -11.8954   -9.1355   31.7291 N.am    1  UNL1       -0.1016
     34 C         -10.6286   -9.3883   32.1976 C.2     1  UNL1        0.4213
     35 O          -9.8409   -8.4301   32.4324 O.2     1  UNL1       -0.2139
     36 C         -13.3592  -12.6083   31.4506 C.3     1  UNL1        0.0590
     37 C         -13.0373  -13.7550   32.3702 C.ar    1  UNL1       -0.0131
     38 C         -12.7921  -13.5224   33.7339 C.ar    1  UNL1        0.0259
     39 C         -12.5441  -14.5941   34.5977 C.ar    1  UNL1        0.1421
     40 F         -12.3045  -14.3631   35.9121 F       1  UNL1       -0.2041
     41 C         -12.5503  -15.9038   34.1087 C.ar    1  UNL1        0.0592
     42 C         -12.8067  -16.1444   32.7557 C.ar    1  UNL1        0.1421
     43 F         -12.8229  -17.4157   32.2850 F       1  UNL1       -0.2041
     44 C         -13.0528  -15.0752   31.8886 C.ar    1  UNL1        0.0259
     45 C         -12.3823   -7.7536   31.5743 C.3     1  UNL1        0.3475
     46 C         -11.3751   -6.9285   30.8117 C.ar    1  UNL1        0.0823
     47 C         -10.6761   -7.5034   29.7356 C.ar    1  UNL1        0.0047
     48 C          -9.7688   -6.7419   28.9940 C.ar    1  UNL1        0.0000
     49 C          -9.5515   -5.4009   29.3176 C.ar    1  UNL1        0.0023
     50 C         -10.2417   -4.8187   30.3837 C.ar    1  UNL1        0.0295
     51 C         -11.1528   -5.5744   31.1295 C.ar    1  UNL1        0.1426
     52 F         -11.8090   -4.9846   32.1604 F       1  UNL1       -0.2043
@<TRIPOS>BOND
     1    24    25    1
     2    25    26    1
     3    25    19    1
     4    19    20   ar
     5    20    21   ar
     6    21    22   ar
     7    22    13    1
     8    13    14   ar
     9    14    15   ar
    10    15    16   ar
    11    16     5    1
    12     5     6    1
    13     6     7    1
    14     7     8    1
    15     8     9   am
    16     9    10    2
    17     9     1    1
    18     1     2    1
    19     1     3    2
    20     3    27    1
    21    27    28    2
    22    27    29    1
    23    29    30    2
    24    30    31    1
    25    31    36    1
    26    36    37    1
    27    37    38   ar
    28    38    39   ar
    29    39    40    1
    30    39    41   ar
    31    41    42   ar
    32    42    43    1
    33    42    44   ar
    34    31    32    2
    35    32    33    1
    36    33    45    1
    37    45    46    1
    38    46    47   ar
    39    47    48   ar
    40    48    49   ar
    41    49    50   ar
    42    50    51   ar
    43    51    52    1
    44    33    34    1
    45    34    35    2
    46     8    11    1
    47    11    12    1
    48    16    17   ar
    49    17    18   ar
    50    22    23   ar
    51    23    19   ar
    52    18    13   ar
    53    12     5    1
    54    34    29    1
    55    44    37   ar
    56    51    46   ar
    57     2     4    1
@<TRIPOS>MOLECULE
*****
 52 57 0 0 0
SMALL
GASTEIGER

@<TRIPOS>ATOM
      1 C          -6.0961  -10.6697   31.8569 C.2     1  UNL1        0.1910
      2 O          -5.7528   -9.5147   32.5609 O.2     1  UNL1       -0.5018
      3 C          -7.2606  -11.2935   32.1032 C.2     1  UNL1        0.0837
      4 H          -4.8420   -9.0829   32.4670 H       1  UNL1        0.2924
      5 N          -5.9831  -13.0873   27.2194 N.pl3   1  UNL1       -0.3041
      6 C          -5.2854  -11.8040   27.0732 C.3     1  UNL1        0.1123
      7 C          -4.6409  -11.4195   28.4066 C.3     1  UNL1        0.1152
      8 N          -5.5897  -11.5626   29.5223 N.am    1  UNL1       -0.2701
      9 C          -5.1547  -11.2202   30.8526 C.2     1  UNL1        0.2831
     10 O          -3.9424  -11.3775   31.1660 O.2     1  UNL1       -0.2666
     11 C          -6.9487  -12.0723   29.2764 C.3     1  UNL1        0.1152
     12 C          -6.9035  -13.2940   28.3485 C.3     1  UNL1        0.1123
     13 C          -5.1649  -16.2937   24.5295 C.ar    1  UNL1        0.0641
     14 C          -6.1915  -15.3725   24.2547 C.ar    1  UNL1        0.0188
     15 C          -6.4613  -14.3245   25.1387 C.ar    1  UNL1        0.0160
     16 C          -5.7124  -14.1757   26.3163 C.ar    1  UNL1        0.0480
     17 C          -4.6831  -15.0887   26.5905 C.ar    1  UNL1        0.0160
     18 C          -4.4137  -16.1389   25.7085 C.ar    1  UNL1        0.0188
     19 C          -5.1323  -18.9802   22.0820 C.ar    1  UNL1       -0.0035
     20 C          -3.8060  -18.9662   22.4680 C.ar    1  UNL1        0.0162
     21 C          -3.6882  -17.9676   23.4133 C.ar    1  UNL1        0.0798
     22 N          -4.8861  -17.3762   23.6179 N.ar    1  UNL1       -0.3039
     23 C          -5.7727  -17.9912   22.8062 C.ar    1  UNL1        0.0758
     24 C          -6.8599  -19.1763   20.2877 C.3     1  UNL1        0.0047
     25 C          -5.7487  -19.8966   21.0578 C.3     1  UNL1        0.0239
     26 C          -4.6791  -20.4348   20.1026 C.3     1  UNL1        0.0047
     27 C          -8.2674  -10.8175   33.0835 C.2     1  UNL1        0.2080
     28 O          -7.9217  -10.5541   34.2677 O.2     1  UNL1       -0.2861
     29 C          -9.6856  -10.6248   32.6803 C.2     1  UNL1        0.1445
     30 C         -10.0039   -9.7543   31.6285 C.2     1  UNL1        0.0149
     31 C         -11.3308   -9.5755   31.2332 C.2     1  UNL1        0.0516
     32 C         -12.3348  -10.2940   31.8882 C.2     1  UNL1        0.2813
     33 N         -12.0345  -11.1573   32.9047 N.am    1  UNL1       -0.1016
     34 C         -10.7333  -11.3326   33.3099 C.2     1  UNL1        0.4213
     35 O         -10.4698  -12.1238   34.2578 O.2     1  UNL1       -0.2139
     36 C         -11.6666   -8.7070   30.0514 C.3     1  UNL1        0.0590
     37 C         -10.7977   -7.4785   30.0556 C.ar    1  UNL1       -0.0131
     38 C          -9.4111   -7.5907   29.8592 C.ar    1  UNL1        0.0259
     39 C          -8.6114   -6.4442   29.8115 C.ar    1  UNL1        0.1421
     40 F          -7.2734   -6.5590   29.6254 F       1  UNL1       -0.2041
     41 C          -9.1914   -5.1796   29.9484 C.ar    1  UNL1        0.0592
     42 C         -10.5722   -5.0590   30.1307 C.ar    1  UNL1        0.1421
     43 F         -11.1347   -3.8315   30.2526 F       1  UNL1       -0.2041
     44 C         -11.3745   -6.2032   30.1812 C.ar    1  UNL1        0.0259
     45 C         -13.1258  -11.9442   33.5053 C.3     1  UNL1        0.3475
     46 C         -12.8862  -13.4180   33.2879 C.ar    1  UNL1        0.0823
     47 C         -12.7304  -13.9127   31.9809 C.ar    1  UNL1        0.0047
     48 C         -12.4688  -15.2682   31.7642 C.ar    1  UNL1        0.0000
     49 C         -12.3589  -16.1420   32.8481 C.ar    1  UNL1        0.0023
     50 C         -12.5100  -15.6614   34.1511 C.ar    1  UNL1        0.0295
     51 C         -12.7704  -14.3052   34.3759 C.ar    1  UNL1        0.1426
     52 F         -12.9139  -13.8649   35.6513 F       1  UNL1       -0.2043
@<TRIPOS>BOND
     1    24    25    1
     2    25    26    1
     3    25    19    1
     4    19    20   ar
     5    20    21   ar
     6    21    22   ar
     7    22    13    1
     8    13    14   ar
     9    14    15   ar
    10    15    16   ar
    11    16     5    1
    12     5     6    1
    13     6     7    1
    14     7     8    1
    15     8     9   am
    16     9    10    2
    17     9     1    1
    18     1     2    1
    19     1     3    2
    20     3    27    1
    21    27    28    2
    22    27    29    1
    23    29    30    2
    24    30    31    1
    25    31    36    1
    26    36    37    1
    27    37    38   ar
    28    38    39   ar
    29    39    40    1
    30    39    41   ar
    31    41    42   ar
    32    42    43    1
    33    42    44   ar
    34    31    32    2
    35    32    33    1
    36    33    45    1
    37    45    46    1
    38    46    47   ar
    39    47    48   ar
    40    48    49   ar
    41    49    50   ar
    42    50    51   ar
    43    51    52    1
    44    33    34    1
    45    34    35    2
    46     8    11    1
    47    11    12    1
    48    16    17   ar
    49    17    18   ar
    50    22    23   ar
    51    23    19   ar
    52    18    13   ar
    53    12     5    1
    54    34    29    1
    55    44    37   ar
    56    51    46   ar
    57     2     4    1
@<TRIPOS>MOLECULE
*****
 52 57 0 0 0
SMALL
GASTEIGER

@<TRIPOS>ATOM
      1 C          -6.0359  -10.6839   31.8321 C.2     1  UNL1        0.1910
      2 O          -5.6606   -9.5680   32.5814 O.2     1  UNL1       -0.5018
      3 C          -7.2244  -11.2745   32.0434 C.2     1  UNL1        0.0837
      4 H          -4.7343   -9.1655   32.5127 H       1  UNL1        0.2924
      5 N          -5.9614  -13.1090   27.1978 N.pl3   1  UNL1       -0.3041
      6 C          -5.2727  -11.8220   27.0415 C.3     1  UNL1        0.1123
      7 C          -4.6155  -11.4314   28.3669 C.3     1  UNL1        0.1152
      8 N          -5.5508  -11.5780   29.4935 N.am    1  UNL1       -0.2701
      9 C          -5.1028  -11.2308   30.8182 C.2     1  UNL1        0.2831
     10 O          -3.8861  -11.3805   31.1182 O.2     1  UNL1       -0.2666
     11 C          -6.9095  -12.0959   29.2639 C.3     1  UNL1        0.1152
     12 C          -6.8677  -13.3190   28.3375 C.3     1  UNL1        0.1123
     13 C          -5.1547  -16.3156   24.5045 C.ar    1  UNL1        0.0641
     14 C          -6.1783  -15.3906   24.2310 C.ar    1  UNL1        0.0188
     15 C          -6.4443  -14.3426   25.1161 C.ar    1  UNL1        0.0160
     16 C          -5.6946  -14.1975   26.2936 C.ar    1  UNL1        0.0480
     17 C          -4.6683  -15.1142   26.5666 C.ar    1  UNL1        0.0160
     18 C          -4.4027  -16.1644   25.6835 C.ar    1  UNL1        0.0188
     19 C          -5.1290  -18.9906   22.0445 C.ar    1  UNL1       -0.0035
     20 C          -3.8085  -19.0000   22.4502 C.ar    1  UNL1        0.0162
     21 C          -3.6888  -18.0079   23.4021 C.ar    1  UNL1        0.0798
     22 N          -4.8798  -17.3981   23.5918 N.ar    1  UNL1       -0.3039
     23 C          -5.7640  -17.9948   22.7640 C.ar    1  UNL1        0.0758
     24 C          -6.7972  -19.1356   20.1902 C.3     1  UNL1        0.0047
     25 C          -5.7447  -19.8921   21.0067 C.3     1  UNL1        0.0239
     26 C          -4.6640  -20.4827   20.0959 C.3     1  UNL1        0.0047
     27 C          -8.2252  -10.7989   33.0300 C.2     1  UNL1        0.2080
     28 O          -7.8708  -10.5279   34.2099 O.2     1  UNL1       -0.2861
     29 C          -9.6478  -10.6155   32.6380 C.2     1  UNL1        0.1445
     30 C          -9.9765   -9.7825   31.5593 C.2     1  UNL1        0.0149
     31 C         -11.3078   -9.6131   31.1746 C.2     1  UNL1        0.0516
     32 C         -12.3057  -10.3034   31.8679 C.2     1  UNL1        0.2813
     33 N         -11.9954  -11.1304   32.9113 N.am    1  UNL1       -0.1016
     34 C         -10.6898  -11.2959   33.3061 C.2     1  UNL1        0.4213
     35 O         -10.4168  -12.0532   34.2787 O.2     1  UNL1       -0.2139
     36 C         -11.6557   -8.7868   29.9664 C.3     1  UNL1        0.0590
     37 C         -10.8298   -7.5291   29.9512 C.ar    1  UNL1       -0.0131
     38 C         -11.4326   -6.2826   30.1894 C.ar    1  UNL1        0.0259
     39 C         -10.6558   -5.1201   30.2264 C.ar    1  UNL1        0.1421
     40 F         -11.2437   -3.9196   30.4530 F       1  UNL1       -0.2041
     41 C          -9.2727   -5.1956   30.0373 C.ar    1  UNL1        0.0592
     42 C          -8.6637   -6.4338   29.8132 C.ar    1  UNL1        0.1421
     43 F          -7.3209   -6.5068   29.6406 F       1  UNL1       -0.2041
     44 C          -9.4375   -7.5979   29.7732 C.ar    1  UNL1        0.0259
     45 C         -13.0816  -11.8908   33.5539 C.3     1  UNL1        0.3475
     46 C         -12.8836  -13.3702   33.3326 C.ar    1  UNL1        0.0823
     47 C         -12.7292  -13.8641   32.0252 C.ar    1  UNL1        0.0047
     48 C         -12.5057  -15.2260   31.8053 C.ar    1  UNL1        0.0000
     49 C         -12.4329  -16.1069   32.8865 C.ar    1  UNL1        0.0023
     50 C         -12.5831  -15.6272   34.1900 C.ar    1  UNL1        0.0295
     51 C         -12.8054  -14.2648   34.4179 C.ar    1  UNL1        0.1426
     52 F         -12.9489  -13.8255   35.6937 F       1  UNL1       -0.2043
@<TRIPOS>BOND
     1    24    25    1
     2    25    26    1
     3    25    19    1
     4    19    20   ar
     5    20    21   ar
     6    21    22   ar
     7    22    13    1
     8    13    14   ar
     9    14    15   ar
    10    15    16   ar
    11    16     5    1
    12     5     6    1
    13     6     7    1
    14     7     8    1
    15     8     9   am
    16     9    10    2
    17     9     1    1
    18     1     2    1
    19     1     3    2
    20     3    27    1
    21    27    28    2
    22    27    29    1
    23    29    30    2
    24    30    31    1
    25    31    36    1
    26    36    37    1
    27    37    38   ar
    28    38    39   ar
    29    39    40    1
    30    39    41   ar
    31    41    42   ar
    32    42    43    1
    33    42    44   ar
    34    31    32    2
    35    32    33    1
    36    33    45    1
    37    45    46    1
    38    46    47   ar
    39    47    48   ar
    40    48    49   ar
    41    49    50   ar
    42    50    51   ar
    43    51    52    1
    44    33    34    1
    45    34    35    2
    46     8    11    1
    47    11    12    1
    48    16    17   ar
    49    17    18   ar
    50    22    23   ar
    51    23    19   ar
    52    18    13   ar
    53    12     5    1
    54    34    29    1
    55    44    37   ar
    56    51    46   ar
    57     2     4    1
@<TRIPOS>MOLECULE
*****
 52 57 0 0 0
SMALL
GASTEIGER

@<TRIPOS>ATOM
      1 C          -9.4605  -12.9604   29.5733 C.2     1  UNL1        0.1910
      2 O          -8.5462  -11.9299   29.7958 O.2     1  UNL1       -0.5018
      3 C         -10.3241  -13.3212   30.5376 C.2     1  UNL1        0.0837
      4 H          -7.8212  -11.7052   29.1260 H       1  UNL1        0.2924
      5 N          -6.3541  -15.7646   26.4346 N.pl3   1  UNL1       -0.3041
      6 C          -7.4855  -16.6157   26.8226 C.3     1  UNL1        0.1123
      7 C          -8.7192  -15.7439   27.0660 C.3     1  UNL1        0.1152
      8 N          -8.4009  -14.5909   27.9231 N.am    1  UNL1       -0.2701
      9 C          -9.4555  -13.6737   28.2736 C.2     1  UNL1        0.2831
     10 O         -10.4045  -13.4844   27.4636 O.2     1  UNL1       -0.2666
     11 C          -7.0211  -14.3732   28.3874 C.3     1  UNL1        0.1152
     12 C          -6.0293  -14.5723   27.2331 C.3     1  UNL1        0.1123
     13 C          -4.1331  -16.5520   22.8802 C.ar    1  UNL1        0.0641
     14 C          -5.1375  -15.5675   22.8940 C.ar    1  UNL1        0.0188
     15 C          -5.8672  -15.3130   24.0582 C.ar    1  UNL1        0.0160
     16 C          -5.6102  -16.0375   25.2323 C.ar    1  UNL1        0.0480
     17 C          -4.6044  -17.0157   25.2244 C.ar    1  UNL1        0.0160
     18 C          -3.8754  -17.2731   24.0601 C.ar    1  UNL1        0.0188
     19 C          -1.7574  -17.4602   20.2843 C.ar    1  UNL1       -0.0035
     20 C          -2.7880  -16.9446   19.5224 C.ar    1  UNL1        0.0162
     21 C          -3.7706  -16.5580   20.4111 C.ar    1  UNL1        0.0798
     22 N          -3.3798  -16.8158   21.6788 N.ar    1  UNL1       -0.3039
     23 C          -2.1496  -17.3678   21.6072 C.ar    1  UNL1        0.0758
     24 C           0.6319  -16.9504   19.7609 C.3     1  UNL1        0.0047
     25 C          -0.4621  -18.0227   19.7601 C.3     1  UNL1        0.0239
     26 C          -0.0340  -19.2440   20.5794 C.3     1  UNL1        0.0047
     27 C         -10.4083  -12.6656   31.8658 C.2     1  UNL1        0.2080
     28 O         -10.6269  -13.3555   32.8989 O.2     1  UNL1       -0.2861
     29 C         -10.2157  -11.1972   31.9996 C.2     1  UNL1        0.1445
     30 C          -9.0239  -10.6921   32.5383 C.2     1  UNL1        0.0149
     31 C          -8.8273   -9.3151   32.6567 C.2     1  UNL1        0.0516
     32 C          -9.8281   -8.4476   32.2104 C.2     1  UNL1        0.2813
     33 N         -10.9876   -8.9287   31.6693 N.am    1  UNL1       -0.1016
     34 C         -11.1969  -10.2822   31.5582 C.2     1  UNL1        0.4213
     35 O         -12.2769  -10.7145   31.0675 O.2     1  UNL1       -0.2139
     36 C          -7.5171   -8.7696   33.1561 C.3     1  UNL1        0.0590
     37 C          -6.8414   -7.9827   32.0660 C.ar    1  UNL1       -0.0131
     38 C          -5.9534   -8.6165   31.1808 C.ar    1  UNL1        0.0259
     39 C          -5.3658   -7.8957   30.1361 C.ar    1  UNL1        0.1421
     40 F          -4.5068   -8.5119   29.2873 F       1  UNL1       -0.2041
     41 C          -5.6691   -6.5422   29.9619 C.ar    1  UNL1        0.0592
     42 C          -6.5621   -5.9076   30.8303 C.ar    1  UNL1        0.1421
     43 F          -6.8635   -4.5977   30.6537 F       1  UNL1       -0.2041
     44 C          -7.1496   -6.6246   31.8773 C.ar    1  UNL1        0.0259
     45 C         -11.9725   -7.9660   31.1458 C.3     1  UNL1        0.3475
     46 C         -11.2681   -6.7778   30.5387 C.ar    1  UNL1        0.0823
     47 C         -11.5742   -5.4817   30.9898 C.ar    1  UNL1        0.0047
     48 C         -10.9029   -4.3735   30.4661 C.ar    1  UNL1        0.0000
     49 C          -9.9201   -4.5477   29.4894 C.ar    1  UNL1        0.0023
     50 C          -9.6064   -5.8310   29.0349 C.ar    1  UNL1        0.0295
     51 C         -10.2730   -6.9453   29.5558 C.ar    1  UNL1        0.1426
     52 F          -9.9498   -8.1803   29.0960 F       1  UNL1       -0.2043
@<TRIPOS>BOND
     1    24    25    1
     2    25    26    1
     3    25    19    1
     4    19    20   ar
     5    20    21   ar
     6    21    22   ar
     7    22    13    1
     8    13    14   ar
     9    14    15   ar
    10    15    16   ar
    11    16     5    1
    12     5     6    1
    13     6     7    1
    14     7     8    1
    15     8     9   am
    16     9    10    2
    17     9     1    1
    18     1     2    1
    19     1     3    2
    20     3    27    1
    21    27    28    2
    22    27    29    1
    23    29    30    2
    24    30    31    1
    25    31    36    1
    26    36    37    1
    27    37    38   ar
    28    38    39   ar
    29    39    40    1
    30    39    41   ar
    31    41    42   ar
    32    42    43    1
    33    42    44   ar
    34    31    32    2
    35    32    33    1
    36    33    45    1
    37    45    46    1
    38    46    47   ar
    39    47    48   ar
    40    48    49   ar
    41    49    50   ar
    42    50    51   ar
    43    51    52    1
    44    33    34    1
    45    34    35    2
    46     8    11    1
    47    11    12    1
    48    16    17   ar
    49    17    18   ar
    50    22    23   ar
    51    23    19   ar
    52    18    13   ar
    53    12     5    1
    54    34    29    1
    55    44    37   ar
    56    51    46   ar
    57     2     4    1
@<TRIPOS>MOLECULE
*****
 52 57 0 0 0
SMALL
GASTEIGER

@<TRIPOS>ATOM
      1 C          -7.5566  -14.6077   27.3789 C.2     1  UNL1        0.1910
      2 O          -8.3079  -15.7727   27.2183 O.2     1  UNL1       -0.5018
      3 C          -7.9616  -13.6514   28.2318 C.2     1  UNL1        0.0837
      4 H          -8.0803  -16.4620   26.5127 H       1  UNL1        0.2924
      5 N          -4.8027  -16.7684   23.4916 N.pl3   1  UNL1       -0.3041
      6 C          -5.2059  -15.4238   23.0620 C.3     1  UNL1        0.1123
      7 C          -5.3205  -14.5111   24.2847 C.3     1  UNL1        0.1152
      8 N          -6.0949  -15.1499   25.3606 N.am    1  UNL1       -0.2701
      9 C          -6.3208  -14.4195   26.5819 C.2     1  UNL1        0.2831
     10 O          -5.4552  -13.5894   26.9747 O.2     1  UNL1       -0.2666
     11 C          -6.6032  -16.5211   25.1919 C.3     1  UNL1        0.1152
     12 C          -5.5158  -17.4266   24.5974 C.3     1  UNL1        0.1123
     13 C          -1.4113  -18.6860   21.7573 C.ar    1  UNL1        0.0641
     14 C          -1.4746  -17.2837   21.8444 C.ar    1  UNL1        0.0188
     15 C          -2.5881  -16.6563   22.4093 C.ar    1  UNL1        0.0160
     16 C          -3.6621  -17.4163   22.8976 C.ar    1  UNL1        0.0480
     17 C          -3.5996  -18.8157   22.8187 C.ar    1  UNL1        0.0160
     18 C          -2.4877  -19.4445   22.2517 C.ar    1  UNL1        0.0188
     19 C           1.4261  -20.7536   20.8179 C.ar    1  UNL1       -0.0035
     20 C           1.4382  -19.8201   19.7996 C.ar    1  UNL1        0.0162
     21 C           0.3862  -18.9621   20.0483 C.ar    1  UNL1        0.0798
     22 N          -0.2626  -19.3345   21.1738 N.ar    1  UNL1       -0.3039
     23 C           0.3688  -20.4295   21.6484 C.ar    1  UNL1        0.0758
     24 C           1.8689  -22.8935   22.0291 C.3     1  UNL1        0.0047
     25 C           2.3821  -21.9068   20.9757 C.3     1  UNL1        0.0239
     26 C           2.6089  -22.6070   19.6324 C.3     1  UNL1        0.0047
     27 C          -9.1787  -13.7504   29.0745 C.2     1  UNL1        0.2080
     28 O          -9.9293  -14.7601   28.9852 O.2     1  UNL1       -0.2861
     29 C          -9.5170  -12.6767   30.0460 C.2     1  UNL1        0.1445
     30 C          -8.6701  -11.5688   30.1905 C.2     1  UNL1        0.0149
     31 C          -8.9845  -10.5488   31.0903 C.2     1  UNL1        0.0516
     32 C         -10.1673  -10.6390   31.8293 C.2     1  UNL1        0.2813
     33 N         -11.0083  -11.7071   31.6853 N.am    1  UNL1       -0.1016
     34 C         -10.7035  -12.7224   30.8111 C.2     1  UNL1        0.4213
     35 O         -11.4823  -13.7093   30.6955 O.2     1  UNL1       -0.2139
     36 C          -8.1214   -9.3203   31.1861 C.3     1  UNL1        0.0590
     37 C          -6.7508   -9.6137   30.6388 C.ar    1  UNL1       -0.0131
     38 C          -5.8782  -10.4678   31.3337 C.ar    1  UNL1        0.0259
     39 C          -4.6244  -10.7810   30.7986 C.ar    1  UNL1        0.1421
     40 F          -3.7852  -11.6029   31.4756 F       1  UNL1       -0.2041
     41 C          -4.2386  -10.2531   29.5630 C.ar    1  UNL1        0.0592
     42 C          -5.1066   -9.4132   28.8591 C.ar    1  UNL1        0.1421
     43 F          -4.7355   -8.9106   27.6558 F       1  UNL1       -0.2041
     44 C          -6.3600   -9.0961   29.3921 C.ar    1  UNL1        0.0259
     45 C         -12.2775  -11.7095   32.4336 C.3     1  UNL1        0.3475
     46 C         -12.4732  -13.0371   33.1234 C.ar    1  UNL1        0.0823
     47 C         -13.5928  -13.8271   32.8082 C.ar    1  UNL1        0.0047
     48 C         -13.7685  -15.0767   33.4087 C.ar    1  UNL1        0.0000
     49 C         -12.8293  -15.5500   34.3274 C.ar    1  UNL1        0.0023
     50 C         -11.7121  -14.7745   34.6470 C.ar    1  UNL1        0.0295
     51 C         -11.5287  -13.5233   34.0484 C.ar    1  UNL1        0.1426
     52 F         -10.4354  -12.7899   34.3774 F       1  UNL1       -0.2043
@<TRIPOS>BOND
     1    24    25    1
     2    25    26    1
     3    25    19    1
     4    19    20   ar
     5    20    21   ar
     6    21    22   ar
     7    22    13    1
     8    13    14   ar
     9    14    15   ar
    10    15    16   ar
    11    16     5    1
    12     5     6    1
    13     6     7    1
    14     7     8    1
    15     8     9   am
    16     9    10    2
    17     9     1    1
    18     1     2    1
    19     1     3    2
    20     3    27    1
    21    27    28    2
    22    27    29    1
    23    29    30    2
    24    30    31    1
    25    31    36    1
    26    36    37    1
    27    37    38   ar
    28    38    39   ar
    29    39    40    1
    30    39    41   ar
    31    41    42   ar
    32    42    43    1
    33    42    44   ar
    34    31    32    2
    35    32    33    1
    36    33    45    1
    37    45    46    1
    38    46    47   ar
    39    47    48   ar
    40    48    49   ar
    41    49    50   ar
    42    50    51   ar
    43    51    52    1
    44    33    34    1
    45    34    35    2
    46     8    11    1
    47    11    12    1
    48    16    17   ar
    49    17    18   ar
    50    22    23   ar
    51    23    19   ar
    52    18    13   ar
    53    12     5    1
    54    34    29    1
    55    44    37   ar
    56    51    46   ar
    57     2     4    1
@<TRIPOS>MOLECULE
*****
 52 57 0 0 0
SMALL
GASTEIGER

@<TRIPOS>ATOM
      1 C          -7.4751  -14.5176   27.4090 C.2     1  UNL1        0.1910
      2 O          -8.2339  -15.6785   27.2539 O.2     1  UNL1       -0.5018
      3 C          -7.8795  -13.5500   28.2493 C.2     1  UNL1        0.0837
      4 H          -8.0061  -16.3763   26.5568 H       1  UNL1        0.2924
      5 N          -4.7511  -16.6888   23.5064 N.pl3   1  UNL1       -0.3041
      6 C          -5.1227  -15.3302   23.0923 C.3     1  UNL1        0.1123
      7 C          -5.2229  -14.4308   24.3261 C.3     1  UNL1        0.1152
      8 N          -6.0162  -15.0661   25.3903 N.am    1  UNL1       -0.2701
      9 C          -6.2317  -14.3465   26.6199 C.2     1  UNL1        0.2831
     10 O          -5.3499  -13.5408   27.0271 O.2     1  UNL1       -0.2666
     11 C          -6.5537  -16.4235   25.2018 C.3     1  UNL1        0.1152
     12 C          -5.4837  -17.3451   24.6005 C.3     1  UNL1        0.1123
     13 C          -1.3941  -18.6574   21.7624 C.ar    1  UNL1        0.0641
     14 C          -1.4457  -17.2535   21.8300 C.ar    1  UNL1        0.0188
     15 C          -2.5479  -16.6094   22.3982 C.ar    1  UNL1        0.0160
     16 C          -3.6222  -17.3539   22.9092 C.ar    1  UNL1        0.0480
     17 C          -3.5714  -18.7548   22.8497 C.ar    1  UNL1        0.0160
     18 C          -2.4707  -19.4003   22.2794 C.ar    1  UNL1        0.0188
     19 C           1.4117  -20.7650   20.8171 C.ar    1  UNL1       -0.0035
     20 C           1.4294  -19.8369   19.7939 C.ar    1  UNL1        0.0162
     21 C           0.3896  -18.9647   20.0443 C.ar    1  UNL1        0.0798
     22 N          -0.2571  -19.3231   21.1755 N.ar    1  UNL1       -0.3039
     23 C           0.3634  -20.4235   21.6520 C.ar    1  UNL1        0.0758
     24 C           1.7937  -22.9458   21.9748 C.3     1  UNL1        0.0047
     25 C           2.3542  -21.9292   20.9753 C.3     1  UNL1        0.0239
     26 C           2.6308  -22.5872   19.6201 C.3     1  UNL1        0.0047
     27 C          -9.1038  -13.6315   29.0833 C.2     1  UNL1        0.2080
     28 O          -9.8080  -14.6780   29.0723 O.2     1  UNL1       -0.2861
     29 C          -9.5037  -12.4953   29.9552 C.2     1  UNL1        0.1445
     30 C          -8.7832  -11.2934   29.9160 C.2     1  UNL1        0.0149
     31 C          -9.1575  -10.2159   30.7209 C.2     1  UNL1        0.0516
     32 C         -10.2745  -10.3470   31.5507 C.2     1  UNL1        0.2813
     33 N         -10.9938  -11.5089   31.5856 N.am    1  UNL1       -0.1016
     34 C         -10.6279  -12.5798   30.8062 C.2     1  UNL1        0.4213
     35 O         -11.2931  -13.6517   30.8560 O.2     1  UNL1       -0.2139
     36 C          -8.4379   -8.8986   30.6192 C.3     1  UNL1        0.0590
     37 C          -9.4319   -7.7860   30.4235 C.ar    1  UNL1       -0.0131
     38 C         -10.7927   -7.9941   30.7044 C.ar    1  UNL1        0.0259
     39 C         -11.7077   -6.9446   30.5718 C.ar    1  UNL1        0.1421
     40 F         -13.0202   -7.1525   30.8407 F       1  UNL1       -0.2041
     41 C         -11.2692   -5.6797   30.1693 C.ar    1  UNL1        0.0592
     42 C          -9.9147   -5.4613   29.9010 C.ar    1  UNL1        0.1421
     43 F          -9.4892   -4.2313   29.5212 F       1  UNL1       -0.2041
     44 C          -8.9973   -6.5088   30.0303 C.ar    1  UNL1        0.0259
     45 C         -12.2060  -11.5616   32.4214 C.3     1  UNL1        0.3475
     46 C         -12.2233  -12.8322   33.2349 C.ar    1  UNL1        0.0823
     47 C         -13.3020  -13.7252   33.1085 C.ar    1  UNL1        0.0047
     48 C         -13.3148  -14.9250   33.8250 C.ar    1  UNL1        0.0000
     49 C         -12.2521  -15.2455   34.6725 C.ar    1  UNL1        0.0023
     50 C         -11.1742  -14.3666   34.8047 C.ar    1  UNL1        0.0295
     51 C         -11.1537  -13.1645   34.0892 C.ar    1  UNL1        0.1426
     52 F         -10.0952  -12.3284   34.2367 F       1  UNL1       -0.2043
@<TRIPOS>BOND
     1    24    25    1
     2    25    26    1
     3    25    19    1
     4    19    20   ar
     5    20    21   ar
     6    21    22   ar
     7    22    13    1
     8    13    14   ar
     9    14    15   ar
    10    15    16   ar
    11    16     5    1
    12     5     6    1
    13     6     7    1
    14     7     8    1
    15     8     9   am
    16     9    10    2
    17     9     1    1
    18     1     2    1
    19     1     3    2
    20     3    27    1
    21    27    28    2
    22    27    29    1
    23    29    30    2
    24    30    31    1
    25    31    36    1
    26    36    37    1
    27    37    38   ar
    28    38    39   ar
    29    39    40    1
    30    39    41   ar
    31    41    42   ar
    32    42    43    1
    33    42    44   ar
    34    31    32    2
    35    32    33    1
    36    33    45    1
    37    45    46    1
    38    46    47   ar
    39    47    48   ar
    40    48    49   ar
    41    49    50   ar
    42    50    51   ar
    43    51    52    1
    44    33    34    1
    45    34    35    2
    46     8    11    1
    47    11    12    1
    48    16    17   ar
    49    17    18   ar
    50    22    23   ar
    51    23    19   ar
    52    18    13   ar
    53    12     5    1
    54    34    29    1
    55    44    37   ar
    56    51    46   ar
    57     2     4    1
@<TRIPOS>MOLECULE
*****
 52 57 0 0 0
SMALL
GASTEIGER

@<TRIPOS>ATOM
      1 C          -9.4633  -13.0612   29.4107 C.2     1  UNL1        0.1910
      2 O          -8.4804  -12.1100   29.6877 O.2     1  UNL1       -0.5018
      3 C         -10.4221  -13.3289   30.3135 C.2     1  UNL1        0.0837
      4 H          -7.6925  -11.9608   29.0700 H       1  UNL1        0.2924
      5 N          -6.2564  -15.8328   26.3451 N.pl3   1  UNL1       -0.3041
      6 C          -7.3687  -16.7070   26.7371 C.3     1  UNL1        0.1123
      7 C          -8.6269  -15.8641   26.9555 C.3     1  UNL1        0.1152
      8 N          -8.3466  -14.6896   27.7965 N.am    1  UNL1       -0.2701
      9 C          -9.4279  -13.7949   28.1229 C.2     1  UNL1        0.2831
     10 O         -10.3741  -13.6435   27.3017 O.2     1  UNL1       -0.2666
     11 C          -6.9772  -14.4283   28.2691 C.3     1  UNL1        0.1152
     12 C          -5.9701  -14.6198   27.1268 C.3     1  UNL1        0.1123
     13 C          -3.9819  -16.6204   22.8248 C.ar    1  UNL1        0.0641
     14 C          -4.9280  -15.5800   22.8484 C.ar    1  UNL1        0.0188
     15 C          -5.6755  -15.3253   24.0012 C.ar    1  UNL1        0.0160
     16 C          -5.4948  -16.1054   25.1538 C.ar    1  UNL1        0.0480
     17 C          -4.5471  -17.1398   25.1362 C.ar    1  UNL1        0.0160
     18 C          -3.8005  -17.3973   23.9831 C.ar    1  UNL1        0.0188
     19 C          -1.5676  -17.5308   20.2654 C.ar    1  UNL1       -0.0035
     20 C          -2.5849  -17.0119   19.4880 C.ar    1  UNL1        0.0162
     21 C          -3.5805  -16.6241   20.3616 C.ar    1  UNL1        0.0798
     22 N          -3.2103  -16.8845   21.6350 N.ar    1  UNL1       -0.3039
     23 C          -1.9804  -17.4392   21.5821 C.ar    1  UNL1        0.0758
     24 C           0.8134  -17.0092   19.7168 C.3     1  UNL1        0.0047
     25 C          -0.2656  -18.0957   19.7610 C.3     1  UNL1        0.0239
     26 C           0.1810  -19.2775   20.6270 C.3     1  UNL1        0.0047
     27 C         -10.5432  -12.6453   31.6247 C.2     1  UNL1        0.2080
     28 O         -10.9817  -13.2731   32.6271 O.2     1  UNL1       -0.2861
     29 C         -10.1315  -11.2249   31.7796 C.2     1  UNL1        0.1445
     30 C         -10.9436  -10.1999   31.2742 C.2     1  UNL1        0.0149
     31 C         -10.5731   -8.8624   31.4252 C.2     1  UNL1        0.0516
     32 C          -9.3909   -8.5604   32.1067 C.2     1  UNL1        0.2813
     33 N          -8.5992   -9.5510   32.6172 N.am    1  UNL1       -0.1016
     34 C          -8.9480  -10.8713   32.4646 C.2     1  UNL1        0.4213
     35 O          -8.2026  -11.7777   32.9303 O.2     1  UNL1       -0.2139
     36 C         -11.4832   -7.7591   30.9582 C.3     1  UNL1        0.0590
     37 C         -10.6666   -6.6142   30.4229 C.ar    1  UNL1       -0.0131
     38 C         -11.2721   -5.3737   30.1609 C.ar    1  UNL1        0.0259
     39 C         -10.5027   -4.2951   29.7126 C.ar    1  UNL1        0.1421
     40 F         -11.0932   -3.1015   29.4579 F       1  UNL1       -0.2041
     41 C          -9.1242   -4.4445   29.5339 C.ar    1  UNL1        0.0592
     42 C          -8.5123   -5.6717   29.8054 C.ar    1  UNL1        0.1421
     43 F          -7.1738   -5.8120   29.6419 F       1  UNL1       -0.2041
     44 C          -9.2788   -6.7529   30.2515 C.ar    1  UNL1        0.0259
     45 C          -7.4057   -9.1692   33.3922 C.3     1  UNL1        0.3475
     46 C          -6.4674   -8.3544   32.5365 C.ar    1  UNL1        0.0823
     47 C          -6.1161   -7.0522   32.9340 C.ar    1  UNL1        0.0047
     48 C          -5.2177   -6.2987   32.1738 C.ar    1  UNL1        0.0000
     49 C          -4.6607   -6.8370   31.0117 C.ar    1  UNL1        0.0023
     50 C          -5.0010   -8.1304   30.6080 C.ar    1  UNL1        0.0295
     51 C          -5.8985   -8.8913   31.3651 C.ar    1  UNL1        0.1426
     52 F          -6.2127  -10.1444   30.9499 F       1  UNL1       -0.2043
@<TRIPOS>BOND
     1    24    25    1
     2    25    26    1
     3    25    19    1
     4    19    20   ar
     5    20    21   ar
     6    21    22   ar
     7    22    13    1
     8    13    14   ar
     9    14    15   ar
    10    15    16   ar
    11    16     5    1
    12     5     6    1
    13     6     7    1
    14     7     8    1
    15     8     9   am
    16     9    10    2
    17     9     1    1
    18     1     2    1
    19     1     3    2
    20     3    27    1
    21    27    28    2
    22    27    29    1
    23    29    30    2
    24    30    31    1
    25    31    36    1
    26    36    37    1
    27    37    38   ar
    28    38    39   ar
    29    39    40    1
    30    39    41   ar
    31    41    42   ar
    32    42    43    1
    33    42    44   ar
    34    31    32    2
    35    32    33    1
    36    33    45    1
    37    45    46    1
    38    46    47   ar
    39    47    48   ar
    40    48    49   ar
    41    49    50   ar
    42    50    51   ar
    43    51    52    1
    44    33    34    1
    45    34    35    2
    46     8    11    1
    47    11    12    1
    48    16    17   ar
    49    17    18   ar
    50    22    23   ar
    51    23    19   ar
    52    18    13   ar
    53    12     5    1
    54    34    29    1
    55    44    37   ar
    56    51    46   ar
    57     2     4    1
@<TRIPOS>MOLECULE
*****
 52 57 0 0 0
SMALL
GASTEIGER

@<TRIPOS>ATOM
      1 C          -9.3754  -12.6527   29.1520 C.2     1  UNL1        0.1910
      2 O          -8.2321  -12.2684   29.8538 O.2     1  UNL1       -0.5018
      3 C         -10.5579  -12.0684   29.4095 C.2     1  UNL1        0.0837
      4 H          -7.3524  -12.7587   29.7511 H       1  UNL1        0.2924
      5 N          -5.8919  -15.5725   26.5628 N.pl3   1  UNL1       -0.3041
      6 C          -6.7385  -16.4772   27.3502 C.3     1  UNL1        0.1123
      7 C          -8.1326  -15.8658   27.5043 C.3     1  UNL1        0.1152
      8 N          -8.0574  -14.4570   27.9226 N.am    1  UNL1       -0.2701
      9 C          -9.2826  -13.7297   28.1375 C.2     1  UNL1        0.2831
     10 O         -10.3044  -14.0259   27.4586 O.2     1  UNL1       -0.2666
     11 C          -6.7487  -13.8042   28.0904 C.3     1  UNL1        0.1152
     12 C          -5.8246  -14.1452   26.9132 C.3     1  UNL1        0.1123
     13 C          -3.8385  -17.0090   23.1123 C.ar    1  UNL1        0.0641
     14 C          -3.6775  -17.6430   24.3574 C.ar    1  UNL1        0.0188
     15 C          -4.3478  -17.1691   25.4881 C.ar    1  UNL1        0.0160
     16 C          -5.1916  -16.0512   25.3993 C.ar    1  UNL1        0.0480
     17 C          -5.3601  -15.4201   24.1576 C.ar    1  UNL1        0.0160
     18 C          -4.6884  -15.8915   23.0262 C.ar    1  UNL1        0.0188
     19 C          -1.5293  -18.1628   20.5541 C.ar    1  UNL1       -0.0035
     20 C          -2.7325  -18.2716   19.8841 C.ar    1  UNL1        0.0162
     21 C          -3.7070  -17.8548   20.7680 C.ar    1  UNL1        0.0798
     22 N          -3.1466  -17.4971   21.9446 N.ar    1  UNL1       -0.3039
     23 C          -1.8152  -17.6837   21.8195 C.ar    1  UNL1        0.0758
     24 C           0.6876  -17.2552   19.8443 C.3     1  UNL1        0.0047
     25 C          -0.1720  -18.5132   20.0029 C.3     1  UNL1        0.0239
     26 C           0.5236  -19.5439   20.8973 C.3     1  UNL1        0.0047
     27 C         -10.7495  -10.9810   30.4005 C.2     1  UNL1        0.2080
     28 O         -11.5707  -10.0520   30.1692 O.2     1  UNL1       -0.2861
     29 C          -9.9961  -10.9830   31.6825 C.2     1  UNL1        0.1445
     30 C         -10.2944  -11.9321   32.6702 C.2     1  UNL1        0.0149
     31 C          -9.5849  -11.9512   33.8724 C.2     1  UNL1        0.0516
     32 C          -8.5585  -11.0228   34.0672 C.2     1  UNL1        0.2813
     33 N          -8.2486  -10.1028   33.1048 N.am    1  UNL1       -0.1016
     34 C          -8.9477  -10.0673   31.9224 C.2     1  UNL1        0.4213
     35 O          -8.6601   -9.2052   31.0460 O.2     1  UNL1       -0.2139
     36 C          -9.8462  -13.0203   34.8981 C.3     1  UNL1        0.0590
     37 C         -10.9824  -13.8970   34.4456 C.ar    1  UNL1       -0.0131
     38 C         -12.1192  -14.0579   35.2554 C.ar    1  UNL1        0.0259
     39 C         -13.1967  -14.8313   34.8112 C.ar    1  UNL1        0.1421
     40 F         -14.2894  -14.9859   35.5987 F       1  UNL1       -0.2041
     41 C         -13.1510  -15.4390   33.5531 C.ar    1  UNL1        0.0592
     42 C         -12.0290  -15.2726   32.7359 C.ar    1  UNL1        0.1421
     43 F         -11.9906  -15.8538   31.5116 F       1  UNL1       -0.2041
     44 C         -10.9489  -14.5020   33.1776 C.ar    1  UNL1        0.0259
     45 C          -7.1068   -9.2006   33.3351 C.3     1  UNL1        0.3475
     46 C          -6.2437   -9.1265   32.0997 C.ar    1  UNL1        0.0823
     47 C          -5.9768   -7.8779   31.5107 C.ar    1  UNL1        0.0047
     48 C          -5.1474   -7.7875   30.3895 C.ar    1  UNL1        0.0000
     49 C          -4.5760   -8.9404   29.8468 C.ar    1  UNL1        0.0023
     50 C          -4.8326  -10.1861   30.4248 C.ar    1  UNL1        0.0295
     51 C          -5.6606  -10.2842   31.5483 C.ar    1  UNL1        0.1426
     52 F          -5.8942  -11.5064   32.0894 F       1  UNL1       -0.2043
@<TRIPOS>BOND
     1    24    25    1
     2    25    26    1
     3    25    19    1
     4    19    20   ar
     5    20    21   ar
     6    21    22   ar
     7    22    13    1
     8    13    14   ar
     9    14    15   ar
    10    15    16   ar
    11    16     5    1
    12     5     6    1
    13     6     7    1
    14     7     8    1
    15     8     9   am
    16     9    10    2
    17     9     1    1
    18     1     2    1
    19     1     3    2
    20     3    27    1
    21    27    28    2
    22    27    29    1
    23    29    30    2
    24    30    31    1
    25    31    36    1
    26    36    37    1
    27    37    38   ar
    28    38    39   ar
    29    39    40    1
    30    39    41   ar
    31    41    42   ar
    32    42    43    1
    33    42    44   ar
    34    31    32    2
    35    32    33    1
    36    33    45    1
    37    45    46    1
    38    46    47   ar
    39    47    48   ar
    40    48    49   ar
    41    49    50   ar
    42    50    51   ar
    43    51    52    1
    44    33    34    1
    45    34    35    2
    46     8    11    1
    47    11    12    1
    48    16    17   ar
    49    17    18   ar
    50    22    23   ar
    51    23    19   ar
    52    18    13   ar
    53    12     5    1
    54    34    29    1
    55    44    37   ar
    56    51    46   ar
    57     2     4    1
@<TRIPOS>MOLECULE
*****
 52 57 0 0 0
SMALL
GASTEIGER

@<TRIPOS>ATOM
      1 C          -5.1437  -16.3135   23.7965 C.2     1  UNL1        0.1910
      2 O          -4.7378  -17.6252   23.5475 O.2     1  UNL1       -0.5018
      3 C          -5.5202  -15.5157   22.7827 C.2     1  UNL1        0.0837
      4 H          -4.3560  -18.2138   24.2773 H       1  UNL1        0.2924
      5 N          -8.3319  -14.5938   27.5704 N.pl3   1  UNL1       -0.3041
      6 C          -7.6377  -15.7838   28.0775 C.3     1  UNL1        0.1123
      7 C          -6.2579  -15.8860   27.4242 C.3     1  UNL1        0.1152
      8 N          -6.3401  -15.7077   25.9658 N.am    1  UNL1       -0.2701
      9 C          -5.1318  -15.7961   25.1858 C.2     1  UNL1        0.2831
     10 O          -4.0362  -15.4402   25.7010 O.2     1  UNL1       -0.2666
     11 C          -7.6350  -15.4186   25.3280 C.3     1  UNL1        0.1152
     12 C          -8.3961  -14.3476   26.1213 C.3     1  UNL1        0.1123
     13 C          -9.9527  -11.6936   30.2440 C.ar    1  UNL1        0.0641
     14 C          -8.5750  -11.7171   29.9621 C.ar    1  UNL1        0.0188
     15 C          -8.0444  -12.6703   29.0889 C.ar    1  UNL1        0.0160
     16 C          -8.8785  -13.6208   28.4803 C.ar    1  UNL1        0.0480
     17 C         -10.2544  -13.5963   28.7538 C.ar    1  UNL1        0.0160
     18 C         -10.7862  -12.6451   29.6288 C.ar    1  UNL1        0.0188
     19 C         -11.3925   -8.8269   31.9520 C.ar    1  UNL1       -0.0035
     20 C         -11.2261   -9.7007   33.0090 C.ar    1  UNL1        0.0162
     21 C         -10.6763  -10.8500   32.4785 C.ar    1  UNL1        0.0798
     22 N         -10.5012  -10.7105   31.1457 N.ar    1  UNL1       -0.3039
     23 C         -10.9377   -9.4754   30.8183 C.ar    1  UNL1        0.0758
     24 C         -11.0132   -6.4182   31.4073 C.3     1  UNL1        0.0047
     25 C         -11.9707   -7.4383   32.0313 C.3     1  UNL1        0.0239
     26 C         -13.3442   -7.3867   31.3554 C.3     1  UNL1        0.0047
     27 C          -5.5698  -15.9433   21.3629 C.2     1  UNL1        0.2080
     28 O          -5.3436  -15.1101   20.4432 O.2     1  UNL1       -0.2861
     29 C          -5.8638  -17.3568   21.0071 C.2     1  UNL1        0.1445
     30 C          -4.8132  -18.2489   20.7506 C.2     1  UNL1        0.0149
     31 C          -5.0773  -19.5813   20.4281 C.2     1  UNL1        0.0516
     32 C          -6.4046  -20.0170   20.3858 C.2     1  UNL1        0.2813
     33 N          -7.4363  -19.1598   20.6493 N.am    1  UNL1       -0.1016
     34 C          -7.1888  -17.8436   20.9566 C.2     1  UNL1        0.4213
     35 O          -8.1506  -17.0586   21.1863 O.2     1  UNL1       -0.2139
     36 C          -3.9507  -20.5595   20.2350 C.3     1  UNL1        0.0590
     37 C          -2.6300  -19.8612   20.4151 C.ar    1  UNL1       -0.0131
     38 C          -1.5919  -20.4821   21.1298 C.ar    1  UNL1        0.0259
     39 C          -0.3479  -19.8547   21.2524 C.ar    1  UNL1        0.1421
     40 F           0.6489  -20.4571   21.9465 F       1  UNL1       -0.2041
     41 C          -0.1289  -18.6105   20.6539 C.ar    1  UNL1        0.0592
     42 C          -1.1526  -17.9924   19.9297 C.ar    1  UNL1        0.1421
     43 F          -0.9355  -16.7907   19.3408 F       1  UNL1       -0.2041
     44 C          -2.3984  -18.6157   19.8070 C.ar    1  UNL1        0.0259
     45 C          -8.8091  -19.6944   20.6652 C.3     1  UNL1        0.3475
     46 C          -9.4423  -19.4645   22.0154 C.ar    1  UNL1        0.0823
     47 C         -10.6478  -18.7464   22.1058 C.ar    1  UNL1        0.0047
     48 C         -11.2680  -18.5583   23.3439 C.ar    1  UNL1        0.0000
     49 C         -10.6927  -19.0853   24.5022 C.ar    1  UNL1        0.0023
     50 C          -9.4960  -19.8020   24.4242 C.ar    1  UNL1        0.0295
     51 C          -8.8704  -19.9958   23.1879 C.ar    1  UNL1        0.1426
     52 F          -7.7084  -20.6949   23.1404 F       1  UNL1       -0.2043
@<TRIPOS>BOND
     1    24    25    1
     2    25    26    1
     3    25    19    1
     4    19    20   ar
     5    20    21   ar
     6    21    22   ar
     7    22    13    1
     8    13    14   ar
     9    14    15   ar
    10    15    16   ar
    11    16     5    1
    12     5     6    1
    13     6     7    1
    14     7     8    1
    15     8     9   am
    16     9    10    2
    17     9     1    1
    18     1     2    1
    19     1     3    2
    20     3    27    1
    21    27    28    2
    22    27    29    1
    23    29    30    2
    24    30    31    1
    25    31    36    1
    26    36    37    1
    27    37    38   ar
    28    38    39   ar
    29    39    40    1
    30    39    41   ar
    31    41    42   ar
    32    42    43    1
    33    42    44   ar
    34    31    32    2
    35    32    33    1
    36    33    45    1
    37    45    46    1
    38    46    47   ar
    39    47    48   ar
    40    48    49   ar
    41    49    50   ar
    42    50    51   ar
    43    51    52    1
    44    33    34    1
    45    34    35    2
    46     8    11    1
    47    11    12    1
    48    16    17   ar
    49    17    18   ar
    50    22    23   ar
    51    23    19   ar
    52    18    13   ar
    53    12     5    1
    54    34    29    1
    55    44    37   ar
    56    51    46   ar
    57     2     4    1
