@<TRIPOS>MOLECULE
*****
 62 67 0 0 0
SMALL
GASTEIGER

@<TRIPOS>ATOM
      1 C          63.9486   88.9240   14.7441 C.ar    1  UNL1        0.0503
      2 C          64.1103   88.1819   13.5672 C.ar    1  UNL1        0.0147
      3 C          63.0167   87.5613   12.9653 C.ar    1  UNL1        0.0013
      4 C          61.7395   87.6405   13.5491 C.ar    1  UNL1        0.0001
      5 C          61.5946   88.3144   14.7742 C.ar    1  UNL1        0.0013
      6 C          62.6900   88.9475   15.3691 C.ar    1  UNL1        0.0147
      7 C          60.5574   87.1211   12.8170 C.ar    1  UNL1        0.0001
      8 C          60.4867   87.2311   11.4150 C.ar    1  UNL1        0.0013
      9 C          59.5274   86.5114   10.6977 C.ar    1  UNL1        0.0147
     10 C          58.6404   85.6632   11.3709 C.ar    1  UNL1        0.0503
     11 C          58.6208   85.6505   12.7697 C.ar    1  UNL1        0.0147
     12 C          59.5728   86.3743   13.4900 C.ar    1  UNL1        0.0013
     13 N          57.7937   84.7685   10.6461 N.am    1  UNL1       -0.2826
     14 C          58.3063   83.5890   10.0020 C.2     1  UNL1        0.2442
     15 O          57.5616   82.5740    9.9252 O.2     1  UNL1       -0.2730
     16 H          56.7844   84.7594   10.9170 H       1  UNL1        0.1549
     17 C          59.7113   83.5165    9.4284 C.3     1  UNL1        0.1521
     18 C          59.7309   82.7587    8.0982 C.3     1  UNL1        0.0310
     19 C          60.1334   81.3295    8.4489 C.3     1  UNL1        0.0237
     20 C          60.8940   81.4295    9.7653 C.3     1  UNL1        0.0939
     21 N          60.5800   82.7426   10.3099 N.am    1  UNL1       -0.2714
     22 C          61.3123   83.3247   11.4057 C.2     1  UNL1        0.2482
     23 O          61.4317   84.5755   11.4801 O.2     1  UNL1       -0.2727
     24 C          61.9937   82.4678   12.4440 C.3     1  UNL1        0.1743
     25 C          62.7761   83.3347   13.4112 C.ar    1  UNL1        0.0044
     26 C          64.1356   83.6310   13.1846 C.ar    1  UNL1       -0.0022
     27 C          64.8438   84.4324   14.0850 C.ar    1  UNL1       -0.0003
     28 C          64.2083   84.9449   15.2175 C.ar    1  UNL1       -0.0000
     29 C          62.8621   84.6572   15.4531 C.ar    1  UNL1       -0.0003
     30 C          62.1477   83.8577   14.5561 C.ar    1  UNL1       -0.0022
     31 N          61.0035   81.6557   13.1616 N.am    1  UNL1       -0.2606
     32 C          61.2077   80.2631   13.4255 C.2     1  UNL1        0.4023
     33 O          62.2972   79.7084   13.1116 O.2     1  UNL1       -0.2264
     34 H          60.0894   82.0728   13.4502 H       1  UNL1        0.1535
     35 O          60.1859   79.5254   14.0291 O.3     1  UNL1       -0.4306
     36 C          58.8206   79.9201   13.9737 C.3     1  UNL1        0.2573
     37 C          65.2123   91.0830   15.0724 C.2     1  UNL1        0.2442
     38 O          64.2214   91.8532   15.1902 O.2     1  UNL1       -0.2730
     39 N          65.0672   89.6667   15.2556 N.am    1  UNL1       -0.2826
     40 H          65.9428   89.1305   15.4532 H       1  UNL1        0.1549
     41 C          65.7882   93.0258   12.7391 C.2     1  UNL1        0.2482
     42 O          65.2478   94.1407   12.5045 O.2     1  UNL1       -0.2727
     43 N          66.5183   92.8601   13.9752 N.am    1  UNL1       -0.2714
     44 C          67.2189   93.9786   14.5849 C.3     1  UNL1        0.0939
     45 C          67.9603   93.4017   15.7812 C.3     1  UNL1        0.0237
     46 C          67.2470   92.0968   16.1111 C.3     1  UNL1        0.0310
     47 C          66.5773   91.6587   14.8071 C.3     1  UNL1        0.1521
     48 C          65.6619   91.9523   11.6752 C.3     1  UNL1        0.1743
     49 C          61.5885   90.7265   10.8170 C.ar    1  UNL1       -0.0222
     50 C          62.5014   90.9683    9.7801 C.ar    1  UNL1       -0.0045
     51 C          63.8081   91.3694   10.0695 C.ar    1  UNL1       -0.0025
     52 C          64.2340   91.5160   11.4012 C.ar    1  UNL1        0.0044
     53 C          63.3123   91.2684   12.4381 C.ar    1  UNL1       -0.0025
     54 C          62.0052   90.8726   12.1474 C.ar    1  UNL1       -0.0045
     55 C          59.2486   90.5803   11.6600 C.3     1  UNL1        0.0050
     56 C          60.1934   90.2555   10.5078 C.3     1  UNL1        0.0264
     57 N          66.3652   92.3654   10.4546 N.am    1  UNL1       -0.2606
     58 C          67.7952   92.3589   10.3516 C.2     1  UNL1        0.4023
     59 O          68.5066   92.1346   11.3697 O.2     1  UNL1       -0.2264
     60 H          65.8172   92.5421    9.5838 H       1  UNL1        0.1535
     61 O          68.3957   92.6034    9.1135 O.3     1  UNL1       -0.4306
     62 C          68.1726   93.8043    8.3831 C.3     1  UNL1        0.2573
@<TRIPOS>BOND
     1    55    56    1
     2    56    49    1
     3    49    50   ar
     4    50    51   ar
     5    51    52   ar
     6    52    48    1
     7    48    57    1
     8    57    58   am
     9    58    59    2
    10    58    61    1
    11    61    62    1
    12    48    41    1
    13    41    42    2
    14    41    43   am
    15    43    44    1
    16    44    45    1
    17    45    46    1
    18    46    47    1
    19    47    37    1
    20    37    38    2
    21    37    39   am
    22    39     1    1
    23     1     2   ar
    24     2     3   ar
    25     3     4   ar
    26     4     7    1
    27     7     8   ar
    28     8     9   ar
    29     9    10   ar
    30    10    13    1
    31    13    14   am
    32    14    15    2
    33    14    17    1
    34    17    18    1
    35    18    19    1
    36    19    20    1
    37    20    21    1
    38    21    22   am
    39    22    23    2
    40    22    24    1
    41    24    31    1
    42    31    32   am
    43    32    33    2
    44    32    35    1
    45    35    36    1
    46    24    25    1
    47    25    26   ar
    48    26    27   ar
    49    27    28   ar
    50    28    29   ar
    51    29    30   ar
    52    10    11   ar
    53    11    12   ar
    54     4     5   ar
    55     5     6   ar
    56    52    53   ar
    57    53    54   ar
    58    54    49   ar
    59    47    43    1
    60     6     1   ar
    61    12     7   ar
    62    21    17    1
    63    30    25   ar
    64    57    60    1
    65    39    40    1
    66    13    16    1
    67    31    34    1
@<TRIPOS>MOLECULE
*****
 62 67 0 0 0
SMALL
GASTEIGER

@<TRIPOS>ATOM
      1 C          62.1873   84.7656   10.9380 C.ar    1  UNL1        0.0503
      2 C          62.9317   84.3697   12.0565 C.ar    1  UNL1        0.0147
      3 C          63.2682   85.2923   13.0461 C.ar    1  UNL1        0.0013
      4 C          62.8964   86.6429   12.9201 C.ar    1  UNL1        0.0001
      5 C          62.2229   87.0551   11.7572 C.ar    1  UNL1        0.0013
      6 C          61.8745   86.1258   10.7724 C.ar    1  UNL1        0.0147
      7 C          63.1120   87.5787   14.0519 C.ar    1  UNL1        0.0001
      8 C          64.4043   87.7715   14.5767 C.ar    1  UNL1        0.0013
      9 C          64.6632   88.8378   15.4419 C.ar    1  UNL1        0.0147
     10 C          63.6393   89.7308   15.7788 C.ar    1  UNL1        0.0503
     11 C          62.3284   89.4693   15.3660 C.ar    1  UNL1        0.0147
     12 C          62.0645   88.4004   14.5077 C.ar    1  UNL1        0.0013
     13 N          63.9267   90.9359   16.4913 N.am    1  UNL1       -0.2826
     14 C          64.7904   91.9517   15.9521 C.2     1  UNL1        0.2442
     15 O          64.5588   93.1562   16.2459 O.2     1  UNL1       -0.2730
     16 H          63.2169   91.2423   17.1945 H       1  UNL1        0.1549
     17 C          65.9561   91.6293   15.0325 C.3     1  UNL1        0.1521
     18 C          67.2573   92.2537   15.5433 C.3     1  UNL1        0.0310
     19 C          67.4124   93.5611   14.7725 C.3     1  UNL1        0.0237
     20 C          66.6119   93.3774   13.4892 C.3     1  UNL1        0.0939
     21 N          65.7468   92.2291   13.7183 N.am    1  UNL1       -0.2714
     22 C          65.0325   91.5699   12.6548 C.2     1  UNL1        0.2482
     23 O          64.7878   90.3382   12.7392 O.2     1  UNL1       -0.2727
     24 C          64.6159   92.3085   11.4067 C.3     1  UNL1        0.1743
     25 C          65.8259   92.9212   10.7288 C.ar    1  UNL1        0.0044
     26 C          65.8378   94.2800   10.3536 C.ar    1  UNL1       -0.0022
     27 C          66.9611   94.8312    9.7299 C.ar    1  UNL1       -0.0003
     28 C          68.0806   94.0376    9.4731 C.ar    1  UNL1       -0.0000
     29 C          68.0801   92.6899    9.8394 C.ar    1  UNL1       -0.0003
     30 C          66.9607   92.1328   10.4646 C.ar    1  UNL1       -0.0022
     31 N          63.9134   91.4016   10.4907 N.am    1  UNL1       -0.2606
     32 C          62.6390   90.8323   10.8109 C.2     1  UNL1        0.4023
     33 O          62.0420   91.1638   11.8725 O.2     1  UNL1       -0.2264
     34 H          64.3633   91.1049    9.5950 H       1  UNL1        0.1535
     35 O          62.0675   89.9028    9.9380 O.3     1  UNL1       -0.4306
     36 C          60.6625   89.7977    9.7437 C.3     1  UNL1        0.2573
     37 C          60.5324   83.8952    9.2441 C.2     1  UNL1        0.2442
     38 O          60.2242   84.9966    8.7140 O.2     1  UNL1       -0.2730
     39 N          61.7369   83.7623   10.0133 N.am    1  UNL1       -0.2826
     40 H          62.0924   82.7897   10.1578 H       1  UNL1        0.1549
     41 C          57.4787   83.9030    9.7187 C.2     1  UNL1        0.2482
     42 O          56.6122   84.6531    9.1929 O.2     1  UNL1       -0.2727
     43 N          58.2552   83.0386    8.8594 N.am    1  UNL1       -0.2714
     44 C          57.6861   82.4923    7.6382 C.3     1  UNL1        0.0939
     45 C          58.7377   81.5476    7.0765 C.3     1  UNL1        0.0237
     46 C          60.0538   81.9822    7.7084 C.3     1  UNL1        0.0310
     47 C          59.6666   82.6866    9.0103 C.3     1  UNL1        0.1521
     48 C          57.6075   83.9389   11.2295 C.3     1  UNL1        0.1743
     49 C          60.2298   80.9005   12.8801 C.ar    1  UNL1       -0.0222
     50 C          60.4567   82.2615   13.1314 C.ar    1  UNL1       -0.0045
     51 C          59.6092   83.2305   12.5883 C.ar    1  UNL1       -0.0025
     52 C          58.5061   82.8570   11.8009 C.ar    1  UNL1        0.0044
     53 C          58.2823   81.4875   11.5549 C.ar    1  UNL1       -0.0025
     54 C          59.1330   80.5205   12.0941 C.ar    1  UNL1       -0.0045
     55 C          62.5277   80.3987   13.7015 C.3     1  UNL1        0.0050
     56 C          61.1177   79.8546   13.4975 C.3     1  UNL1        0.0264
     57 N          57.9990   85.2830   11.6714 N.am    1  UNL1       -0.2606
     58 C          57.6128   85.8165   12.9450 C.2     1  UNL1        0.4023
     59 O          56.7909   85.1949   13.6737 O.2     1  UNL1       -0.2264
     60 H          58.6917   85.8246   11.1088 H       1  UNL1        0.1535
     61 O          58.1542   87.0317   13.3733 O.3     1  UNL1       -0.4306
     62 C          58.8069   87.9301   12.4832 C.3     1  UNL1        0.2573
@<TRIPOS>BOND
     1    55    56    1
     2    56    49    1
     3    49    50   ar
     4    50    51   ar
     5    51    52   ar
     6    52    48    1
     7    48    57    1
     8    57    58   am
     9    58    59    2
    10    58    61    1
    11    61    62    1
    12    48    41    1
    13    41    42    2
    14    41    43   am
    15    43    44    1
    16    44    45    1
    17    45    46    1
    18    46    47    1
    19    47    37    1
    20    37    38    2
    21    37    39   am
    22    39     1    1
    23     1     2   ar
    24     2     3   ar
    25     3     4   ar
    26     4     7    1
    27     7     8   ar
    28     8     9   ar
    29     9    10   ar
    30    10    13    1
    31    13    14   am
    32    14    15    2
    33    14    17    1
    34    17    18    1
    35    18    19    1
    36    19    20    1
    37    20    21    1
    38    21    22   am
    39    22    23    2
    40    22    24    1
    41    24    31    1
    42    31    32   am
    43    32    33    2
    44    32    35    1
    45    35    36    1
    46    24    25    1
    47    25    26   ar
    48    26    27   ar
    49    27    28   ar
    50    28    29   ar
    51    29    30   ar
    52    10    11   ar
    53    11    12   ar
    54     4     5   ar
    55     5     6   ar
    56    52    53   ar
    57    53    54   ar
    58    54    49   ar
    59    47    43    1
    60     6     1   ar
    61    12     7   ar
    62    21    17    1
    63    30    25   ar
    64    57    60    1
    65    39    40    1
    66    13    16    1
    67    31    34    1
