@<TRIPOS>MOLECULE
*****
 37 42 0 0 0
SMALL
GASTEIGER

@<TRIPOS>ATOM
      1 C         -20.8954   -7.0331  -10.0230 C.ar    1  UNL1        0.1095
      2 N         -20.3670   -6.5678   -8.8631 N.ar    1  UNL1       -0.1677
      3 N         -19.5924   -7.5169   -8.3519 N.ar    1  UNL1       -0.2319
      4 C         -18.9328   -7.4272   -7.0562 C.3     1  UNL1        0.1554
      5 C         -19.6502   -8.5896   -9.1555 C.ar    1  UNL1        0.1654
      6 N         -19.0826   -9.8003   -8.9402 N.ar    1  UNL1       -0.2050
      7 C         -19.2894  -10.7808   -9.8667 C.ar    1  UNL1        0.2014
      8 N         -20.0292  -10.5283  -10.9915 N.ar    1  UNL1       -0.2089
      9 C         -20.6103   -9.3109  -11.2168 C.ar    1  UNL1        0.1379
     10 C         -20.4338   -8.3269  -10.2382 C.ar    1  UNL1        0.0865
     11 C         -23.2751   -6.7406  -10.9667 C.ar    1  UNL1        0.0809
     12 C         -21.9696   -6.3278  -10.7326 C.ar    1  UNL1        0.0577
     13 C         -21.9037   -5.0346  -11.2076 C.ar    1  UNL1        0.1231
     14 N         -23.0990   -4.6888  -11.7203 N.ar    1  UNL1       -0.1676
     15 N         -23.9246   -5.7135  -11.5670 N.ar    1  UNL1       -0.2488
     16 C         -25.3306   -5.6493  -11.9547 C.3     1  UNL1        0.1537
     17 C         -25.7002  -11.6917   -9.1444 C.3     1  UNL1        0.0310
     18 C         -25.0581  -10.4219   -9.6181 C.ar    1  UNL1       -0.0218
     19 C         -24.3864   -9.5873   -8.7144 C.ar    1  UNL1       -0.0042
     20 C         -23.8155   -8.3891   -9.1516 C.ar    1  UNL1        0.0012
     21 C         -23.9025   -8.0058  -10.5016 C.ar    1  UNL1        0.0174
     22 C         -24.6017   -8.8327  -11.3960 C.ar    1  UNL1        0.0012
     23 C         -25.1843  -10.0245  -10.9554 C.ar    1  UNL1       -0.0042
     24 N         -21.2439   -9.0456  -12.4775 N.pl3   1  UNL1       -0.2917
     25 C         -20.7627   -7.9960  -13.3676 C.3     1  UNL1        0.0937
     26 C         -21.4074   -8.2700  -14.7196 C.3     1  UNL1        0.0391
     27 C         -21.7676   -9.7541  -14.6788 C.3     1  UNL1        0.0790
     28 C         -21.9858  -10.0713  -13.1977 C.3     1  UNL1        0.1081
     29 N         -22.8876  -10.0878  -15.5990 N.3     1  UNL1       -0.2723
     30 C         -24.2793  -10.0744  -15.0858 C.3     1  UNL1        0.0721
     31 C         -24.8241  -11.4698  -14.7108 C.3     1  UNL1        0.0174
     32 C         -24.5265  -12.5261  -15.7870 C.3     1  UNL1        0.0028
     33 C         -23.0201  -12.5215  -16.1002 C.3     1  UNL1        0.0174
     34 C         -22.6033  -11.1379  -16.5973 C.3     1  UNL1        0.0721
     35 C         -25.0825  -13.9300  -15.3891 C.3     1  UNL1        0.0001
     36 C         -23.9735  -14.9934  -15.3867 C.3     1  UNL1        0.0000
     37 C         -25.8315  -13.9528  -14.0438 C.3     1  UNL1        0.0000
@<TRIPOS>BOND
     1    17    18    1
     2    18    19   ar
     3    19    20   ar
     4    20    21   ar
     5    21    11    1
     6    11    12   ar
     7    12     1    1
     8     1     2   ar
     9     2     3   ar
    10     3     4    1
    11     3     5   ar
    12     5     6   ar
    13     6     7   ar
    14     7     8   ar
    15     8     9   ar
    16     9    24    1
    17    24    25    1
    18    25    26    1
    19    26    27    1
    20    27    29    1
    21    29    30    1
    22    30    31    1
    23    31    32    1
    24    32    35    1
    25    35    36    1
    26    35    37    1
    27    32    33    1
    28    33    34    1
    29    27    28    1
    30     9    10   ar
    31    12    13   ar
    32    13    14   ar
    33    14    15   ar
    34    15    16    1
    35    21    22   ar
    36    22    23   ar
    37    23    18   ar
    38    15    11   ar
    39    10     1   ar
    40    10     5   ar
    41    28    24    1
    42    34    29    1
@<TRIPOS>MOLECULE
*****
 37 42 0 0 0
SMALL
GASTEIGER

@<TRIPOS>ATOM
      1 C         -22.2332  -11.4570  -13.9588 C.ar    1  UNL1        0.1095
      2 N         -21.4919  -12.0296  -14.9403 N.ar    1  UNL1       -0.1677
      3 N         -22.1111  -13.1359  -15.3338 N.ar    1  UNL1       -0.2319
      4 C         -21.5684  -14.0789  -16.3023 C.3     1  UNL1        0.1554
      5 C         -23.2175  -13.2893  -14.5908 C.ar    1  UNL1        0.1654
      6 N         -24.0725  -14.3394  -14.6099 N.ar    1  UNL1       -0.2050
      7 C         -25.1281  -14.3245  -13.7450 C.ar    1  UNL1        0.2014
      8 N         -25.3224  -13.2602  -12.9050 N.ar    1  UNL1       -0.2089
      9 C         -24.4629  -12.1966  -12.8744 C.ar    1  UNL1        0.1379
     10 C         -23.3569  -12.2432  -13.7297 C.ar    1  UNL1        0.0865
     11 C         -21.7397   -8.9829  -13.4348 C.ar    1  UNL1        0.0809
     12 C         -21.7304  -10.3419  -13.1472 C.ar    1  UNL1        0.0577
     13 C         -21.2488  -10.4402  -11.8585 C.ar    1  UNL1        0.1231
     14 N         -20.9625   -9.2089  -11.3967 N.ar    1  UNL1       -0.1676
     15 N         -21.2663   -8.3333  -12.3434 N.ar    1  UNL1       -0.2488
     16 C         -21.1420   -6.8924  -12.1445 C.3     1  UNL1        0.1537
     17 C         -23.9689   -6.4324  -18.1509 C.3     1  UNL1        0.0310
     18 C         -23.3895   -7.0746  -16.9258 C.ar    1  UNL1       -0.0218
     19 C         -22.0230   -7.3800  -16.8644 C.ar    1  UNL1       -0.0042
     20 C         -21.4904   -8.0068  -15.7346 C.ar    1  UNL1        0.0012
     21 C         -22.3143   -8.3358  -14.6438 C.ar    1  UNL1        0.0174
     22 C         -23.6878   -8.0529  -14.7237 C.ar    1  UNL1        0.0012
     23 C         -24.2223   -7.4383  -15.8596 C.ar    1  UNL1       -0.0042
     24 N         -24.7900  -11.0378  -12.0924 N.pl3   1  UNL1       -0.2917
     25 C         -24.0242  -10.6770  -10.9055 C.3     1  UNL1        0.0937
     26 C         -24.4019   -9.2361  -10.5896 C.3     1  UNL1        0.0391
     27 C         -24.9222   -8.6772  -11.9128 C.3     1  UNL1        0.0790
     28 C         -25.4745   -9.8883  -12.6680 C.3     1  UNL1        0.1081
     29 N         -25.8578   -7.5379  -11.7146 N.3     1  UNL1       -0.2723
     30 C         -27.2886   -7.7013  -12.0702 C.3     1  UNL1        0.0721
     31 C         -27.6618   -7.1258  -13.4536 C.3     1  UNL1        0.0174
     32 C         -27.0798   -5.7218  -13.6831 C.3     1  UNL1        0.0028
     33 C         -25.5638   -5.7517  -13.4218 C.3     1  UNL1        0.0174
     34 C         -25.2993   -6.1980  -11.9844 C.3     1  UNL1        0.0721
     35 C         -27.4656   -5.1579  -15.0872 C.3     1  UNL1        0.0001
     36 C         -28.9310   -4.6976  -15.1245 C.3     1  UNL1        0.0000
     37 C         -26.5488   -4.0250  -15.5847 C.3     1  UNL1        0.0000
@<TRIPOS>BOND
     1    17    18    1
     2    18    19   ar
     3    19    20   ar
     4    20    21   ar
     5    21    11    1
     6    11    12   ar
     7    12     1    1
     8     1     2   ar
     9     2     3   ar
    10     3     4    1
    11     3     5   ar
    12     5     6   ar
    13     6     7   ar
    14     7     8   ar
    15     8     9   ar
    16     9    24    1
    17    24    25    1
    18    25    26    1
    19    26    27    1
    20    27    29    1
    21    29    30    1
    22    30    31    1
    23    31    32    1
    24    32    35    1
    25    35    36    1
    26    35    37    1
    27    32    33    1
    28    33    34    1
    29    27    28    1
    30     9    10   ar
    31    12    13   ar
    32    13    14   ar
    33    14    15   ar
    34    15    16    1
    35    21    22   ar
    36    22    23   ar
    37    23    18   ar
    38    15    11   ar
    39    10     1   ar
    40    10     5   ar
    41    28    24    1
    42    34    29    1
@<TRIPOS>MOLECULE
*****
 37 42 0 0 0
SMALL
GASTEIGER

@<TRIPOS>ATOM
      1 C         -24.2650  -12.1544  -15.7887 C.ar    1  UNL1        0.1095
      2 N         -24.3592  -13.1244  -16.7326 N.ar    1  UNL1       -0.1677
      3 N         -24.9363  -14.1843  -16.1797 N.ar    1  UNL1       -0.2319
      4 C         -25.1164  -15.4638  -16.8523 C.3     1  UNL1        0.1554
      5 C         -25.1779  -13.9101  -14.8889 C.ar    1  UNL1        0.1654
      6 N         -25.6662  -14.7589  -13.9533 N.ar    1  UNL1       -0.2050
      7 C         -25.8072  -14.2965  -12.6771 C.ar    1  UNL1        0.2014
      8 N         -25.4862  -13.0011  -12.3686 N.ar    1  UNL1       -0.2089
      9 C         -24.9883  -12.1368  -13.3045 C.ar    1  UNL1        0.1379
     10 C         -24.8012  -12.6338  -14.5986 C.ar    1  UNL1        0.0865
     11 C         -22.3446  -10.5014  -15.3209 C.ar    1  UNL1        0.0809
     12 C         -23.4788  -10.9324  -15.9973 C.ar    1  UNL1        0.0577
     13 C         -23.6661  -10.0214  -17.0158 C.ar    1  UNL1        0.1231
     14 N         -22.7090   -9.0777  -16.9485 N.ar    1  UNL1       -0.1676
     15 N         -21.9105   -9.3728  -15.9334 N.ar    1  UNL1       -0.2488
     16 C         -20.7209   -8.5867  -15.6204 C.3     1  UNL1        0.1537
     17 C         -19.5836  -13.3376  -11.0726 C.3     1  UNL1        0.0310
     18 C         -20.3125  -12.6130  -12.1647 C.ar    1  UNL1       -0.0218
     19 C         -20.4513  -13.1956  -13.4319 C.ar    1  UNL1       -0.0042
     20 C         -21.1036  -12.5060  -14.4575 C.ar    1  UNL1        0.0012
     21 C         -21.6325  -11.2227  -14.2332 C.ar    1  UNL1        0.0174
     22 C         -21.4646  -10.6332  -12.9694 C.ar    1  UNL1        0.0012
     23 C         -20.8002  -11.3178  -11.9479 C.ar    1  UNL1       -0.0042
     24 N         -24.8129  -10.7509  -12.9733 N.pl3   1  UNL1       -0.2917
     25 C         -25.5597   -9.7023  -13.6574 C.3     1  UNL1        0.0937
     26 C         -25.4070   -8.4550  -12.7975 C.3     1  UNL1        0.0391
     27 C         -25.0610   -8.9873  -11.4080 C.3     1  UNL1        0.0790
     28 C         -24.3604  -10.3250  -11.6560 C.3     1  UNL1        0.1081
     29 N         -24.3160   -7.9913  -10.5922 N.3     1  UNL1       -0.2723
     30 C         -23.1531   -7.2881  -11.1865 C.3     1  UNL1        0.0721
     31 C         -21.7868   -7.8942  -10.7985 C.3     1  UNL1        0.0174
     32 C         -21.6813   -8.1917   -9.2942 C.3     1  UNL1        0.0028
     33 C         -22.8788   -9.0559   -8.8623 C.3     1  UNL1        0.0174
     34 C         -24.1811   -8.3129   -9.1574 C.3     1  UNL1        0.0721
     35 C         -20.2948   -8.8059   -8.9218 C.3     1  UNL1        0.0001
     36 C         -19.3484   -8.8317  -10.1319 C.3     1  UNL1        0.0000
     37 C         -19.6014   -8.1196   -7.7303 C.3     1  UNL1        0.0000
@<TRIPOS>BOND
     1    17    18    1
     2    18    19   ar
     3    19    20   ar
     4    20    21   ar
     5    21    11    1
     6    11    12   ar
     7    12     1    1
     8     1     2   ar
     9     2     3   ar
    10     3     4    1
    11     3     5   ar
    12     5     6   ar
    13     6     7   ar
    14     7     8   ar
    15     8     9   ar
    16     9    24    1
    17    24    25    1
    18    25    26    1
    19    26    27    1
    20    27    29    1
    21    29    30    1
    22    30    31    1
    23    31    32    1
    24    32    35    1
    25    35    36    1
    26    35    37    1
    27    32    33    1
    28    33    34    1
    29    27    28    1
    30     9    10   ar
    31    12    13   ar
    32    13    14   ar
    33    14    15   ar
    34    15    16    1
    35    21    22   ar
    36    22    23   ar
    37    23    18   ar
    38    15    11   ar
    39    10     1   ar
    40    10     5   ar
    41    28    24    1
    42    34    29    1
@<TRIPOS>MOLECULE
*****
 37 42 0 0 0
SMALL
GASTEIGER

@<TRIPOS>ATOM
      1 C         -23.4749   -6.1293  -12.1183 C.ar    1  UNL1        0.1095
      2 N         -23.3610   -5.2766  -11.0691 N.ar    1  UNL1       -0.1677
      3 N         -22.1584   -5.4410  -10.5317 N.ar    1  UNL1       -0.2319
      4 C         -21.7040   -4.7732   -9.3194 C.3     1  UNL1        0.1554
      5 C         -21.5219   -6.4106  -11.2058 C.ar    1  UNL1        0.1654
      6 N         -20.3131   -6.9472  -10.9140 N.ar    1  UNL1       -0.2050
      7 C         -19.8504   -7.9576  -11.7061 C.ar    1  UNL1        0.2014
      8 N         -20.5841   -8.3903  -12.7788 N.ar    1  UNL1       -0.2089
      9 C         -21.8077   -7.8586  -13.0800 C.ar    1  UNL1        0.1379
     10 C         -22.2958   -6.8572  -12.2339 C.ar    1  UNL1        0.0865
     11 C         -25.7261   -7.3185  -12.5144 C.ar    1  UNL1        0.0809
     12 C         -24.7538   -6.3679  -12.7983 C.ar    1  UNL1        0.0577
     13 C         -25.2876   -5.5864  -13.8016 C.ar    1  UNL1        0.1231
     14 N         -26.5094   -6.0502  -14.1227 N.ar    1  UNL1       -0.1676
     15 N         -26.7745   -7.0869  -13.3417 N.ar    1  UNL1       -0.2488
     16 C         -28.0547   -7.7876  -13.3803 C.3     1  UNL1        0.1537
     17 C         -25.6334  -11.1514   -8.1537 C.3     1  UNL1        0.0310
     18 C         -25.6455  -10.1508   -9.2707 C.ar    1  UNL1       -0.0218
     19 C         -26.5667   -9.0945   -9.2662 C.ar    1  UNL1       -0.0042
     20 C         -26.5975   -8.1810  -10.3233 C.ar    1  UNL1        0.0012
     21 C         -25.7045   -8.3051  -11.4023 C.ar    1  UNL1        0.0174
     22 C         -24.8034   -9.3823  -11.4143 C.ar    1  UNL1        0.0012
     23 C         -24.7822  -10.3036  -10.3633 C.ar    1  UNL1       -0.0042
     24 N         -22.4679   -8.2339  -14.2984 N.pl3   1  UNL1       -0.2917
     25 C         -22.3357   -7.4400  -15.5140 C.3     1  UNL1        0.0937
     26 C         -22.8296   -8.3294  -16.6469 C.3     1  UNL1        0.0391
     27 C         -22.6896   -9.7515  -16.1067 C.3     1  UNL1        0.0790
     28 C         -22.8224   -9.6166  -14.5881 C.3     1  UNL1        0.1081
     29 N         -23.6222  -10.7011  -16.7708 N.3     1  UNL1       -0.2723
     30 C         -24.9566  -10.9486  -16.1721 C.3     1  UNL1        0.0721
     31 C         -25.0351  -12.2354  -15.3221 C.3     1  UNL1        0.0174
     32 C         -24.3902  -13.4426  -16.0216 C.3     1  UNL1        0.0028
     33 C         -22.9575  -13.0771  -16.4474 C.3     1  UNL1        0.0174
     34 C         -22.9937  -11.8810  -17.3977 C.3     1  UNL1        0.0721
     35 C         -24.4770  -14.7329  -15.1464 C.3     1  UNL1        0.0001
     36 C         -23.1081  -15.4189  -15.0196 C.3     1  UNL1        0.0000
     37 C         -25.0796  -14.5059  -13.7476 C.3     1  UNL1        0.0000
@<TRIPOS>BOND
     1    17    18    1
     2    18    19   ar
     3    19    20   ar
     4    20    21   ar
     5    21    11    1
     6    11    12   ar
     7    12     1    1
     8     1     2   ar
     9     2     3   ar
    10     3     4    1
    11     3     5   ar
    12     5     6   ar
    13     6     7   ar
    14     7     8   ar
    15     8     9   ar
    16     9    24    1
    17    24    25    1
    18    25    26    1
    19    26    27    1
    20    27    29    1
    21    29    30    1
    22    30    31    1
    23    31    32    1
    24    32    35    1
    25    35    36    1
    26    35    37    1
    27    32    33    1
    28    33    34    1
    29    27    28    1
    30     9    10   ar
    31    12    13   ar
    32    13    14   ar
    33    14    15   ar
    34    15    16    1
    35    21    22   ar
    36    22    23   ar
    37    23    18   ar
    38    15    11   ar
    39    10     1   ar
    40    10     5   ar
    41    28    24    1
    42    34    29    1
@<TRIPOS>MOLECULE
*****
 37 42 0 0 0
SMALL
GASTEIGER

@<TRIPOS>ATOM
      1 C         -22.3002   -9.6410  -10.2416 C.ar    1  UNL1        0.1095
      2 N         -22.2036   -9.9634   -8.9272 N.ar    1  UNL1       -0.1677
      3 N         -22.1120   -8.8369   -8.2310 N.ar    1  UNL1       -0.2319
      4 C         -21.8892   -8.7780   -6.7927 C.3     1  UNL1        0.1554
      5 C         -22.1152   -7.8065   -9.0900 C.ar    1  UNL1        0.1654
      6 N         -21.9409   -6.4969   -8.7920 N.ar    1  UNL1       -0.2050
      7 C         -21.9411   -5.5985   -9.8193 C.ar    1  UNL1        0.2014
      8 N         -22.1396   -6.0177  -11.1081 N.ar    1  UNL1       -0.2089
      9 C         -22.3123   -7.3379  -11.4208 C.ar    1  UNL1        0.1379
     10 C         -22.2618   -8.2567  -10.3671 C.ar    1  UNL1        0.0865
     11 C         -21.1436  -11.5148  -11.5794 C.ar    1  UNL1        0.0809
     12 C         -22.1933  -10.6475  -11.3048 C.ar    1  UNL1        0.0577
     13 C         -23.2000  -11.0029  -12.1780 C.ar    1  UNL1        0.1231
     14 N         -22.7765  -12.0177  -12.9539 N.ar    1  UNL1       -0.1676
     15 N         -21.5424  -12.3294  -12.5867 N.ar    1  UNL1       -0.2488
     16 C         -20.8067  -13.4408  -13.1823 C.3     1  UNL1        0.1537
     17 C         -16.2139  -12.0502   -8.5582 C.3     1  UNL1        0.0310
     18 C         -17.4967  -11.9164   -9.3235 C.ar    1  UNL1       -0.0218
     19 C         -18.0483  -13.0242   -9.9815 C.ar    1  UNL1       -0.0042
     20 C         -19.2272  -12.8907  -10.7200 C.ar    1  UNL1        0.0012
     21 C         -19.8780  -11.6476  -10.8104 C.ar    1  UNL1        0.0174
     22 C         -19.3044  -10.5356  -10.1724 C.ar    1  UNL1        0.0012
     23 C         -18.1179  -10.6667   -9.4450 C.ar    1  UNL1       -0.0042
     24 N         -22.6704   -7.7126  -12.7597 N.pl3   1  UNL1       -0.2917
     25 C         -23.9504   -7.3297  -13.3430 C.3     1  UNL1        0.0937
     26 C         -23.8075   -7.5540  -14.8422 C.3     1  UNL1        0.0391
     27 C         -22.3011   -7.5165  -15.0936 C.3     1  UNL1        0.0790
     28 C         -21.6656   -7.9778  -13.7801 C.3     1  UNL1        0.1081
     29 N         -21.9147   -8.2701  -16.3164 N.3     1  UNL1       -0.2723
     30 C         -22.9457   -8.5775  -17.3375 C.3     1  UNL1        0.0721
     31 C         -23.5233  -10.0061  -17.2370 C.3     1  UNL1        0.0174
     32 C         -22.4296  -11.0716  -17.0603 C.3     1  UNL1        0.0028
     33 C         -21.5350  -10.6882  -15.8686 C.3     1  UNL1        0.0174
     34 C         -20.8976   -9.3230  -16.1235 C.3     1  UNL1        0.0721
     35 C         -23.0327  -12.5083  -16.9582 C.3     1  UNL1        0.0001
     36 C         -22.0060  -13.5108  -16.4090 C.3     1  UNL1        0.0000
     37 C         -24.3330  -12.5889  -16.1372 C.3     1  UNL1        0.0000
@<TRIPOS>BOND
     1    17    18    1
     2    18    19   ar
     3    19    20   ar
     4    20    21   ar
     5    21    11    1
     6    11    12   ar
     7    12     1    1
     8     1     2   ar
     9     2     3   ar
    10     3     4    1
    11     3     5   ar
    12     5     6   ar
    13     6     7   ar
    14     7     8   ar
    15     8     9   ar
    16     9    24    1
    17    24    25    1
    18    25    26    1
    19    26    27    1
    20    27    29    1
    21    29    30    1
    22    30    31    1
    23    31    32    1
    24    32    35    1
    25    35    36    1
    26    35    37    1
    27    32    33    1
    28    33    34    1
    29    27    28    1
    30     9    10   ar
    31    12    13   ar
    32    13    14   ar
    33    14    15   ar
    34    15    16    1
    35    21    22   ar
    36    22    23   ar
    37    23    18   ar
    38    15    11   ar
    39    10     1   ar
    40    10     5   ar
    41    28    24    1
    42    34    29    1
@<TRIPOS>MOLECULE
*****
 37 42 0 0 0
SMALL
GASTEIGER

@<TRIPOS>ATOM
      1 C         -24.8170   -8.8673  -11.8899 C.ar    1  UNL1        0.1095
      2 N         -25.7036   -8.7915  -10.8656 N.ar    1  UNL1       -0.1677
      3 N         -26.5786   -7.8337  -11.1466 N.ar    1  UNL1       -0.2319
      4 C         -27.6241   -7.3857  -10.2365 C.3     1  UNL1        0.1554
      5 C         -26.2378   -7.2791  -12.3196 C.ar    1  UNL1        0.1654
      6 N         -26.8148   -6.2065  -12.9119 N.ar    1  UNL1       -0.2050
      7 C         -26.2955   -5.7695  -14.0959 C.ar    1  UNL1        0.2014
      8 N         -25.2379   -6.4212  -14.6728 N.ar    1  UNL1       -0.2089
      9 C         -24.6449   -7.5026  -14.0813 C.ar    1  UNL1        0.1379
     10 C         -25.1525   -7.9133  -12.8442 C.ar    1  UNL1        0.0865
     11 C         -22.2944   -9.2453  -11.5259 C.ar    1  UNL1        0.0809
     12 C         -23.5885   -9.6663  -11.8047 C.ar    1  UNL1        0.0577
     13 C         -23.5192  -11.0421  -11.8737 C.ar    1  UNL1        0.1231
     14 N         -22.2480  -11.4332  -11.6678 N.ar    1  UNL1       -0.1676
     15 N         -21.5146  -10.3515  -11.4506 N.ar    1  UNL1       -0.2488
     16 C         -20.0940  -10.4232  -11.1223 C.3     1  UNL1        0.1537
     17 C         -20.6335   -3.8277  -10.2586 C.3     1  UNL1        0.0310
     18 C         -21.0792   -5.2207  -10.5903 C.ar    1  UNL1       -0.0218
     19 C         -21.6615   -6.0316   -9.6066 C.ar    1  UNL1       -0.0042
     20 C         -22.0477   -7.3401   -9.9092 C.ar    1  UNL1        0.0012
     21 C         -21.8623   -7.8600  -11.2024 C.ar    1  UNL1        0.0174
     22 C         -21.2521   -7.0515  -12.1754 C.ar    1  UNL1        0.0012
     23 C         -20.8535   -5.7474  -11.8686 C.ar    1  UNL1       -0.0042
     24 N         -23.6440   -8.2453  -14.7939 N.pl3   1  UNL1       -0.2917
     25 C         -22.3012   -7.7155  -14.9978 C.3     1  UNL1        0.0937
     26 C         -21.4471   -8.9015  -15.4252 C.3     1  UNL1        0.0391
     27 C         -22.2021  -10.1242  -14.9067 C.3     1  UNL1        0.0790
     28 C         -23.6718   -9.6996  -14.8692 C.3     1  UNL1        0.1081
     29 N         -21.8878  -11.3524  -15.6847 N.3     1  UNL1       -0.2723
     30 C         -22.7117  -11.6934  -16.8700 C.3     1  UNL1        0.0721
     31 C         -23.8078  -12.7449  -16.5920 C.3     1  UNL1        0.0174
     32 C         -23.2823  -13.9431  -15.7854 C.3     1  UNL1        0.0028
     33 C         -22.5875  -13.4321  -14.5112 C.3     1  UNL1        0.0174
     34 C         -21.4293  -12.5110  -14.8923 C.3     1  UNL1        0.0721
     35 C         -24.4047  -14.9938  -15.5122 C.3     1  UNL1        0.0001
     36 C         -25.4390  -14.4626  -14.5078 C.3     1  UNL1        0.0000
     37 C         -25.1184  -15.4974  -16.7805 C.3     1  UNL1        0.0000
@<TRIPOS>BOND
     1    17    18    1
     2    18    19   ar
     3    19    20   ar
     4    20    21   ar
     5    21    11    1
     6    11    12   ar
     7    12     1    1
     8     1     2   ar
     9     2     3   ar
    10     3     4    1
    11     3     5   ar
    12     5     6   ar
    13     6     7   ar
    14     7     8   ar
    15     8     9   ar
    16     9    24    1
    17    24    25    1
    18    25    26    1
    19    26    27    1
    20    27    29    1
    21    29    30    1
    22    30    31    1
    23    31    32    1
    24    32    35    1
    25    35    36    1
    26    35    37    1
    27    32    33    1
    28    33    34    1
    29    27    28    1
    30     9    10   ar
    31    12    13   ar
    32    13    14   ar
    33    14    15   ar
    34    15    16    1
    35    21    22   ar
    36    22    23   ar
    37    23    18   ar
    38    15    11   ar
    39    10     1   ar
    40    10     5   ar
    41    28    24    1
    42    34    29    1
@<TRIPOS>MOLECULE
*****
 37 42 0 0 0
SMALL
GASTEIGER

@<TRIPOS>ATOM
      1 C         -22.9907   -8.5432  -10.3302 C.ar    1  UNL1        0.1095
      2 N         -22.0581   -8.8884   -9.4071 N.ar    1  UNL1       -0.1677
      3 N         -21.3124   -7.8199   -9.1534 N.ar    1  UNL1       -0.2319
      4 C         -20.1399   -7.8250   -8.2890 C.3     1  UNL1        0.1554
      5 C         -21.7389   -6.8117   -9.9289 C.ar    1  UNL1        0.1654
      6 N         -21.1834   -5.5820  -10.0450 N.ar    1  UNL1       -0.2050
      7 C         -21.7485   -4.7017  -10.9214 C.ar    1  UNL1        0.2014
      8 N         -22.8616   -5.0535  -11.6381 N.ar    1  UNL1       -0.2089
      9 C         -23.4281   -6.2938  -11.5318 C.ar    1  UNL1        0.1379
     10 C         -22.8132   -7.2059  -10.6676 C.ar    1  UNL1        0.0865
     11 C         -23.8677   -9.8902  -12.3439 C.ar    1  UNL1        0.0809
     12 C         -23.8355   -9.5392  -11.0003 C.ar    1  UNL1        0.0577
     13 C         -24.6950  -10.4160  -10.3719 C.ar    1  UNL1        0.1231
     14 N         -25.2346  -11.2413  -11.2879 N.ar    1  UNL1       -0.1676
     15 N         -24.7295  -10.9286  -12.4720 N.ar    1  UNL1       -0.2488
     16 C         -25.0524  -11.6783  -13.6823 C.3     1  UNL1        0.1537
     17 C         -20.4858   -7.7989  -16.5752 C.3     1  UNL1        0.0310
     18 C         -21.3565   -8.3561  -15.4887 C.ar    1  UNL1       -0.0218
     19 C         -22.7318   -8.5250  -15.6991 C.ar    1  UNL1       -0.0042
     20 C         -23.5470   -9.0150  -14.6752 C.ar    1  UNL1        0.0012
     21 C         -23.0006   -9.3488  -13.4235 C.ar    1  UNL1        0.0174
     22 C         -21.6266   -9.1501  -13.2103 C.ar    1  UNL1        0.0012
     23 C         -20.8140   -8.6471  -14.2303 C.ar    1  UNL1       -0.0042
     24 N         -24.6790   -6.5645  -12.1824 N.pl3   1  UNL1       -0.2917
     25 C         -25.8711   -6.9250  -11.4246 C.3     1  UNL1        0.0937
     26 C         -27.0412   -6.7509  -12.3832 C.3     1  UNL1        0.0391
     27 C         -26.5268   -5.7787  -13.4434 C.3     1  UNL1        0.0790
     28 C         -25.0119   -5.9927  -13.4799 C.3     1  UNL1        0.1081
     29 N         -27.2468   -5.9226  -14.7370 N.3     1  UNL1       -0.2723
     30 C         -26.8364   -5.0905  -15.8944 C.3     1  UNL1        0.0721
     31 C         -27.7135   -3.8381  -16.1103 C.3     1  UNL1        0.0174
     32 C         -29.2159   -4.1494  -16.0197 C.3     1  UNL1        0.0028
     33 C         -29.5047   -4.8775  -14.6954 C.3     1  UNL1        0.0174
     34 C         -28.6983   -6.1741  -14.6360 C.3     1  UNL1        0.0721
     35 C         -30.0859   -2.8712  -16.2381 C.3     1  UNL1        0.0001
     36 C         -30.2873   -2.5773  -17.7327 C.3     1  UNL1        0.0000
     37 C         -31.4498   -2.9080  -15.5241 C.3     1  UNL1        0.0000
@<TRIPOS>BOND
     1    17    18    1
     2    18    19   ar
     3    19    20   ar
     4    20    21   ar
     5    21    11    1
     6    11    12   ar
     7    12     1    1
     8     1     2   ar
     9     2     3   ar
    10     3     4    1
    11     3     5   ar
    12     5     6   ar
    13     6     7   ar
    14     7     8   ar
    15     8     9   ar
    16     9    24    1
    17    24    25    1
    18    25    26    1
    19    26    27    1
    20    27    29    1
    21    29    30    1
    22    30    31    1
    23    31    32    1
    24    32    35    1
    25    35    36    1
    26    35    37    1
    27    32    33    1
    28    33    34    1
    29    27    28    1
    30     9    10   ar
    31    12    13   ar
    32    13    14   ar
    33    14    15   ar
    34    15    16    1
    35    21    22   ar
    36    22    23   ar
    37    23    18   ar
    38    15    11   ar
    39    10     1   ar
    40    10     5   ar
    41    28    24    1
    42    34    29    1
@<TRIPOS>MOLECULE
*****
 37 42 0 0 0
SMALL
GASTEIGER

@<TRIPOS>ATOM
      1 C         -21.9454   -8.9552  -13.2038 C.ar    1  UNL1        0.1095
      2 N         -22.1070   -9.1946  -14.5295 N.ar    1  UNL1       -0.1677
      3 N         -21.8935  -10.4869  -14.7451 N.ar    1  UNL1       -0.2319
      4 C         -21.8744  -11.1058  -16.0636 C.3     1  UNL1        0.1554
      5 C         -21.5655  -11.0626  -13.5786 C.ar    1  UNL1        0.1654
      6 N         -21.1774  -12.3454  -13.3839 N.ar    1  UNL1       -0.2050
      7 C         -20.8486  -12.7322  -12.1171 C.ar    1  UNL1        0.2014
      8 N         -20.9380  -11.8469  -11.0758 N.ar    1  UNL1       -0.2089
      9 C         -21.3246  -10.5482  -11.2616 C.ar    1  UNL1        0.1379
     10 C         -21.6126  -10.1477  -12.5707 C.ar    1  UNL1        0.0865
     11 C         -22.9366   -6.7286  -12.3680 C.ar    1  UNL1        0.0809
     12 C         -21.8893   -7.5950  -12.6547 C.ar    1  UNL1        0.0577
     13 C         -20.7529   -6.9586  -12.2011 C.ar    1  UNL1        0.1231
     14 N         -21.0902   -5.7622  -11.6854 N.ar    1  UNL1       -0.1676
     15 N         -22.4050   -5.6294  -11.7793 N.ar    1  UNL1       -0.2488
     16 C         -23.1135   -4.4691  -11.2474 C.3     1  UNL1        0.1537
     17 C         -28.6012   -7.8579  -12.9613 C.3     1  UNL1        0.0310
     18 C         -27.1342   -7.5823  -12.8161 C.ar    1  UNL1       -0.0218
     19 C         -26.4425   -8.0088  -11.6741 C.ar    1  UNL1       -0.0042
     20 C         -25.0824   -7.7239  -11.5261 C.ar    1  UNL1        0.0012
     21 C         -24.3885   -7.0108  -12.5195 C.ar    1  UNL1        0.0174
     22 C         -25.0943   -6.5617  -13.6477 C.ar    1  UNL1        0.0012
     23 C         -26.4577   -6.8351  -13.7890 C.ar    1  UNL1       -0.0042
     24 N         -21.5525   -9.7023  -10.1242 N.pl3   1  UNL1       -0.2917
     25 C         -22.8718   -9.5800   -9.5160 C.3     1  UNL1        0.0937
     26 C         -22.6437   -8.9374   -8.1546 C.3     1  UNL1        0.0391
     27 C         -21.1819   -9.2382   -7.8287 C.3     1  UNL1        0.0790
     28 C         -20.4888   -9.3689   -9.1868 C.3     1  UNL1        0.1081
     29 N         -20.6005   -8.2497   -6.8814 N.3     1  UNL1       -0.2723
     30 C         -19.2952   -7.6200   -7.1974 C.3     1  UNL1        0.0721
     31 C         -18.0928   -8.2735   -6.4821 C.3     1  UNL1        0.0174
     32 C         -18.3617   -8.5243   -4.9897 C.3     1  UNL1        0.0028
     33 C         -19.6704   -9.3187   -4.8360 C.3     1  UNL1        0.0174
     34 C         -20.8257   -8.5283   -5.4489 C.3     1  UNL1        0.0721
     35 C         -17.1363   -9.1873   -4.2844 C.3     1  UNL1        0.0001
     36 C         -16.7770  -10.5341   -4.9308 C.3     1  UNL1        0.0000
     37 C         -15.8867   -8.2898   -4.2170 C.3     1  UNL1        0.0000
@<TRIPOS>BOND
     1    17    18    1
     2    18    19   ar
     3    19    20   ar
     4    20    21   ar
     5    21    11    1
     6    11    12   ar
     7    12     1    1
     8     1     2   ar
     9     2     3   ar
    10     3     4    1
    11     3     5   ar
    12     5     6   ar
    13     6     7   ar
    14     7     8   ar
    15     8     9   ar
    16     9    24    1
    17    24    25    1
    18    25    26    1
    19    26    27    1
    20    27    29    1
    21    29    30    1
    22    30    31    1
    23    31    32    1
    24    32    35    1
    25    35    36    1
    26    35    37    1
    27    32    33    1
    28    33    34    1
    29    27    28    1
    30     9    10   ar
    31    12    13   ar
    32    13    14   ar
    33    14    15   ar
    34    15    16    1
    35    21    22   ar
    36    22    23   ar
    37    23    18   ar
    38    15    11   ar
    39    10     1   ar
    40    10     5   ar
    41    28    24    1
    42    34    29    1
@<TRIPOS>MOLECULE
*****
 37 42 0 0 0
SMALL
GASTEIGER

@<TRIPOS>ATOM
      1 C         -22.7809  -10.3864  -14.6325 C.ar    1  UNL1        0.1095
      2 N         -21.9973  -10.7898  -15.6641 N.ar    1  UNL1       -0.1677
      3 N         -22.3046  -12.0495  -15.9483 N.ar    1  UNL1       -0.2319
      4 C         -21.6025  -12.8626  -16.9321 C.3     1  UNL1        0.1554
      5 C         -23.2487  -12.4598  -15.0881 C.ar    1  UNL1        0.1654
      6 N         -23.7634  -13.7077  -14.9777 N.ar    1  UNL1       -0.2050
      7 C         -24.6966  -13.9345  -14.0080 C.ar    1  UNL1        0.2014
      8 N         -25.1128  -12.9153  -13.1931 N.ar    1  UNL1       -0.2089
      9 C         -24.5968  -11.6526  -13.2930 C.ar    1  UNL1        0.1379
     10 C         -23.6055  -11.4412  -14.2572 C.ar    1  UNL1        0.0865
     11 C         -21.7948   -8.8947  -12.7774 C.ar    1  UNL1        0.0809
     12 C         -22.5497   -9.1235  -13.9208 C.ar    1  UNL1        0.0577
     13 C         -22.9608   -7.8767  -14.3438 C.ar    1  UNL1        0.1231
     14 N         -22.4971   -6.9439  -13.4918 N.ar    1  UNL1       -0.1676
     15 N         -21.7892   -7.5575  -12.5551 N.ar    1  UNL1       -0.2488
     16 C         -21.0831   -6.8287  -11.5056 C.3     1  UNL1        0.1537
     17 C         -18.6607  -12.8085   -9.8492 C.3     1  UNL1        0.0310
     18 C         -19.4571  -11.7970  -10.6184 C.ar    1  UNL1       -0.0218
     19 C         -19.2746  -10.4267  -10.3871 C.ar    1  UNL1       -0.0042
     20 C         -20.0397   -9.4862  -11.0823 C.ar    1  UNL1        0.0012
     21 C         -20.9982   -9.8991  -12.0244 C.ar    1  UNL1        0.0174
     22 C         -21.1959  -11.2744  -12.2303 C.ar    1  UNL1        0.0012
     23 C         -20.4400  -12.2149  -11.5248 C.ar    1  UNL1       -0.0042
     24 N         -25.1721  -10.5844  -12.5255 N.pl3   1  UNL1       -0.2917
     25 C         -24.6493  -10.2191  -11.2145 C.3     1  UNL1        0.0937
     26 C         -25.2324   -8.8476  -10.9022 C.3     1  UNL1        0.0391
     27 C         -25.5966   -8.2660  -12.2671 C.3     1  UNL1        0.0790
     28 C         -25.8822   -9.4794  -13.1547 C.3     1  UNL1        0.1081
     29 N         -26.6743   -7.2448  -12.1753 N.3     1  UNL1       -0.2723
     30 C         -27.9857   -7.5118  -12.8151 C.3     1  UNL1        0.0721
     31 C         -28.1552   -6.8507  -14.2002 C.3     1  UNL1        0.0174
     32 C         -27.7013   -5.3822  -14.2106 C.3     1  UNL1        0.0028
     33 C         -26.2675   -5.2900  -13.6602 C.3     1  UNL1        0.0174
     34 C         -26.2287   -5.8383  -12.2344 C.3     1  UNL1        0.0721
     35 C         -27.8779   -4.7320  -15.6193 C.3     1  UNL1        0.0001
     36 C         -29.2510   -4.0565  -15.7582 C.3     1  UNL1        0.0000
     37 C         -26.7652   -3.7371  -15.9979 C.3     1  UNL1        0.0000
@<TRIPOS>BOND
     1    17    18    1
     2    18    19   ar
     3    19    20   ar
     4    20    21   ar
     5    21    11    1
     6    11    12   ar
     7    12     1    1
     8     1     2   ar
     9     2     3   ar
    10     3     4    1
    11     3     5   ar
    12     5     6   ar
    13     6     7   ar
    14     7     8   ar
    15     8     9   ar
    16     9    24    1
    17    24    25    1
    18    25    26    1
    19    26    27    1
    20    27    29    1
    21    29    30    1
    22    30    31    1
    23    31    32    1
    24    32    35    1
    25    35    36    1
    26    35    37    1
    27    32    33    1
    28    33    34    1
    29    27    28    1
    30     9    10   ar
    31    12    13   ar
    32    13    14   ar
    33    14    15   ar
    34    15    16    1
    35    21    22   ar
    36    22    23   ar
    37    23    18   ar
    38    15    11   ar
    39    10     1   ar
    40    10     5   ar
    41    28    24    1
    42    34    29    1
