@<TRIPOS>MOLECULE
*****
 43 47 0 0 0
SMALL
GASTEIGER

@<TRIPOS>ATOM
      1 C          50.8205   10.6434  -23.0630 C.ar    1  UNL1        0.1352
      2 C          51.3771   10.8010  -24.3472 C.ar    1  UNL1        0.0411
      3 C          51.2820    9.7788  -25.3074 C.ar    1  UNL1        0.0578
      4 C          50.6329    8.5831  -24.9644 C.ar    1  UNL1        0.0044
      5 C          50.0877    8.4122  -23.6920 C.ar    1  UNL1       -0.0008
      6 C          50.1614    9.4384  -22.7378 C.ar    1  UNL1        0.0162
      7 C          51.8080    9.9703  -26.6808 C.2     1  UNL1        0.2644
      8 O          52.5714   10.9449  -26.9226 O.2     1  UNL1       -0.2686
      9 N          51.4701    9.0624  -27.7379 N.am    1  UNL1       -0.1814
     10 H          50.6477    8.4261  -27.6508 H       1  UNL1        0.1769
     11 S          52.4064    8.9848  -29.1925 S.O2    1  UNL1        0.0755
     12 O          53.7405    8.3691  -28.8744 O.2     1  UNL1       -0.1499
     13 O          52.6318   10.3733  -29.7210 O.2     1  UNL1       -0.1499
     14 C          51.5499    8.0311  -30.4159 C.ar    1  UNL1        0.1213
     15 C          52.2706    7.5539  -31.5236 C.ar    1  UNL1        0.0199
     16 C          51.6430    6.7810  -32.5016 C.ar    1  UNL1        0.0014
     17 C          50.2894    6.4710  -32.3853 C.ar    1  UNL1       -0.0002
     18 C          49.5561    6.9395  -31.2945 C.ar    1  UNL1       -0.0029
     19 C          50.1658    7.7361  -30.3092 C.ar    1  UNL1       -0.0030
     20 C          49.3347    8.1849  -29.1364 C.3     1  UNL1        0.0324
     21 C          50.8138   13.0603  -22.3954 C.3     1  UNL1        0.2525
     22 O          50.8876   11.6683  -22.1035 O.3     1  UNL1       -0.4717
     23 C          49.5021    9.2393  -21.3923 C.3     1  UNL1        0.0572
     24 C          48.4742   10.3030  -21.1204 C.ar    1  UNL1        0.0010
     25 C          48.0940   10.7722  -19.8667 C.ar    1  UNL1        0.0719
     26 N          47.1672   11.7506  -19.9952 N.ar    1  UNL1       -0.3243
     27 C          46.5113   12.4682  -18.9067 C.3     1  UNL1        0.1305
     28 C          46.9564   11.9067  -21.3174 C.ar    1  UNL1        0.0597
     29 C          46.0691   12.7806  -21.9471 C.ar    1  UNL1        0.0185
     30 C          45.9999   12.7540  -23.3508 C.ar    1  UNL1        0.0162
     31 C          46.8169   11.8749  -24.1040 C.ar    1  UNL1        0.0533
     32 C          47.6982   10.9979  -23.4295 C.ar    1  UNL1        0.0159
     33 C          47.7432   11.0434  -22.0362 C.ar    1  UNL1        0.0148
     34 N          46.6728   11.8390  -25.5358 N.am    1  UNL1       -0.2499
     35 C          45.4210   11.7592  -26.2310 C.2     1  UNL1        0.4053
     36 O          44.3774   11.3761  -25.6343 O.2     1  UNL1       -0.2261
     37 H          47.5393   11.8550  -26.1195 H       1  UNL1        0.1582
     38 O          45.3801   12.0741  -27.5933 O.3     1  UNL1       -0.4383
     39 C          46.5488   12.3147  -28.3800 C.3     1  UNL1        0.1705
     40 C          46.1921   13.0457  -29.6684 C.3     1  UNL1        0.0437
     41 C          45.8303   11.9628  -30.6761 C.3     1  UNL1        0.0038
     42 C          46.4380   10.6603  -30.1600 C.3     1  UNL1        0.0038
     43 C          47.1283   10.9873  -28.8416 C.3     1  UNL1        0.0437
@<TRIPOS>BOND
     1    21    22    1
     2    22     1    1
     3     1     2   ar
     4     2     3   ar
     5     3     7    1
     6     7     8    2
     7     7     9   am
     8     9    11    1
     9    11    12    2
    10    11    13    2
    11    11    14    1
    12    14    15   ar
    13    15    16   ar
    14    16    17   ar
    15    17    18   ar
    16    18    19   ar
    17    19    20    1
    18     3     4   ar
    19     4     5   ar
    20     5     6   ar
    21     6    23    1
    22    23    24    1
    23    24    25   ar
    24    25    26   ar
    25    26    27    1
    26    26    28   ar
    27    28    29   ar
    28    29    30   ar
    29    30    31   ar
    30    31    34    1
    31    34    35   am
    32    35    36    2
    33    35    38    1
    34    38    39    1
    35    39    40    1
    36    40    41    1
    37    41    42    1
    38    42    43    1
    39    31    32   ar
    40    32    33   ar
    41     6     1   ar
    42    33    24   ar
    43    19    14   ar
    44    33    28   ar
    45    43    39    1
    46     9    10    1
    47    34    37    1
@<TRIPOS>MOLECULE
*****
 43 47 0 0 0
SMALL
GASTEIGER

@<TRIPOS>ATOM
      1 C          48.9971   10.7271  -24.4076 C.ar    1  UNL1        0.1352
      2 C          49.7804   10.7712  -25.5775 C.ar    1  UNL1        0.0411
      3 C          50.9591   10.0134  -25.6880 C.ar    1  UNL1        0.0578
      4 C          51.3580    9.2163  -24.6044 C.ar    1  UNL1        0.0044
      5 C          50.5957    9.1735  -23.4371 C.ar    1  UNL1       -0.0008
      6 C          49.4069    9.9116  -23.3311 C.ar    1  UNL1        0.0162
      7 C          51.7475   10.0070  -26.9441 C.2     1  UNL1        0.2644
      8 O          52.8356   10.6427  -26.9970 O.2     1  UNL1       -0.2686
      9 N          51.2984    9.2842  -28.0981 N.am    1  UNL1       -0.1814
     10 H          50.3023    8.9859  -28.1852 H       1  UNL1        0.1769
     11 S          52.3829    8.8794  -29.3860 S.O2    1  UNL1        0.0755
     12 O          53.5490    8.1225  -28.8139 O.2     1  UNL1       -0.1499
     13 O          52.8952   10.1381  -30.0273 O.2     1  UNL1       -0.1499
     14 C          51.5412    7.9085  -30.6062 C.ar    1  UNL1        0.1213
     15 C          52.2840    7.3788  -31.6747 C.ar    1  UNL1        0.0199
     16 C          51.6680    6.5907  -32.6480 C.ar    1  UNL1        0.0014
     17 C          50.3039    6.3179  -32.5658 C.ar    1  UNL1       -0.0002
     18 C          49.5488    6.8387  -31.5142 C.ar    1  UNL1       -0.0029
     19 C          50.1474    7.6511  -30.5351 C.ar    1  UNL1       -0.0030
     20 C          49.2915    8.1573  -29.4041 C.3     1  UNL1        0.0324
     21 C          47.4341   12.5450  -25.1424 C.3     1  UNL1        0.2525
     22 O          47.8035   11.4610  -24.2958 O.3     1  UNL1       -0.4717
     23 C          48.5755    9.7886  -22.0748 C.3     1  UNL1        0.0572
     24 C          49.1053   10.6684  -20.9760 C.ar    1  UNL1        0.0010
     25 C          49.1188   10.3635  -19.6183 C.ar    1  UNL1        0.0719
     26 N          49.6953   11.3693  -18.9193 N.ar    1  UNL1       -0.3243
     27 C          49.8695   11.4265  -17.4713 C.3     1  UNL1        0.1305
     28 C          50.0478   12.3084  -19.8198 C.ar    1  UNL1        0.0597
     29 C          50.6531   13.5426  -19.5797 C.ar    1  UNL1        0.0185
     30 C          50.9094   14.3781  -20.6807 C.ar    1  UNL1        0.0162
     31 C          50.5747   13.9727  -21.9965 C.ar    1  UNL1        0.0533
     32 C          49.9546   12.7177  -22.1991 C.ar    1  UNL1        0.0159
     33 C          49.7089   11.9111  -21.0881 C.ar    1  UNL1        0.0148
     34 N          50.8013   14.8827  -23.0885 N.am    1  UNL1       -0.2499
     35 C          49.8150   15.7698  -23.6334 C.2     1  UNL1        0.4053
     36 O          48.5871   15.5767  -23.4172 O.2     1  UNL1       -0.2261
     37 H          51.7463   14.8928  -23.5344 H       1  UNL1        0.1582
     38 O          50.2309   16.8318  -24.4433 O.3     1  UNL1       -0.4383
     39 C          50.5775   16.6805  -25.8215 C.3     1  UNL1        0.1705
     40 C          51.0613   18.0020  -26.4055 C.3     1  UNL1        0.0437
     41 C          49.8112   18.7313  -26.8794 C.3     1  UNL1        0.0038
     42 C          48.7173   17.6767  -27.0320 C.3     1  UNL1        0.0038
     43 C          49.3296   16.3432  -26.6215 C.3     1  UNL1        0.0437
@<TRIPOS>BOND
     1    21    22    1
     2    22     1    1
     3     1     2   ar
     4     2     3   ar
     5     3     7    1
     6     7     8    2
     7     7     9   am
     8     9    11    1
     9    11    12    2
    10    11    13    2
    11    11    14    1
    12    14    15   ar
    13    15    16   ar
    14    16    17   ar
    15    17    18   ar
    16    18    19   ar
    17    19    20    1
    18     3     4   ar
    19     4     5   ar
    20     5     6   ar
    21     6    23    1
    22    23    24    1
    23    24    25   ar
    24    25    26   ar
    25    26    27    1
    26    26    28   ar
    27    28    29   ar
    28    29    30   ar
    29    30    31   ar
    30    31    34    1
    31    34    35   am
    32    35    36    2
    33    35    38    1
    34    38    39    1
    35    39    40    1
    36    40    41    1
    37    41    42    1
    38    42    43    1
    39    31    32   ar
    40    32    33   ar
    41     6     1   ar
    42    33    24   ar
    43    19    14   ar
    44    33    28   ar
    45    43    39    1
    46     9    10    1
    47    34    37    1
@<TRIPOS>MOLECULE
*****
 43 47 0 0 0
SMALL
GASTEIGER

@<TRIPOS>ATOM
      1 C          46.0545   12.8573  -26.6002 C.ar    1  UNL1        0.1352
      2 C          46.4112   11.5858  -27.0901 C.ar    1  UNL1        0.0411
      3 C          46.7292   11.3958  -28.4460 C.ar    1  UNL1        0.0578
      4 C          46.6728   12.4944  -29.3171 C.ar    1  UNL1        0.0044
      5 C          46.3103   13.7557  -28.8449 C.ar    1  UNL1       -0.0008
      6 C          46.0134   13.9540  -27.4878 C.ar    1  UNL1        0.0162
      7 C          47.1703   10.0720  -28.9484 C.2     1  UNL1        0.2644
      8 O          46.4515    9.4528  -29.7796 O.2     1  UNL1       -0.2686
      9 N          48.4041    9.4864  -28.5118 N.am    1  UNL1       -0.1814
     10 H          48.8759    9.8236  -27.6443 H       1  UNL1        0.1769
     11 S          49.1568    8.2043  -29.3996 S.O2    1  UNL1        0.0755
     12 O          48.5135    8.1150  -30.7555 O.2     1  UNL1       -0.1499
     13 O          48.9449    6.9019  -28.6807 O.2     1  UNL1       -0.1499
     14 C          50.8962    8.5080  -29.5481 C.ar    1  UNL1        0.1213
     15 C          51.5179    9.3382  -28.6003 C.ar    1  UNL1        0.0199
     16 C          52.8893    9.5890  -28.6646 C.ar    1  UNL1        0.0014
     17 C          53.6587    9.0119  -29.6731 C.ar    1  UNL1       -0.0002
     18 C          53.0583    8.1880  -30.6259 C.ar    1  UNL1       -0.0029
     19 C          51.6748    7.9394  -30.5895 C.ar    1  UNL1       -0.0030
     20 C          51.0864    7.0149  -31.6223 C.3     1  UNL1        0.0324
     21 C          44.5911   12.5852  -24.5824 C.3     1  UNL1        0.2525
     22 O          45.7593   13.0638  -25.2416 O.3     1  UNL1       -0.4717
     23 C          45.6877   15.3481  -27.0030 C.3     1  UNL1        0.0572
     24 C          46.9339   16.1660  -26.8023 C.ar    1  UNL1        0.0010
     25 C          47.1513   17.4560  -27.2767 C.ar    1  UNL1        0.0719
     26 N          48.3694   17.8985  -26.8857 N.ar    1  UNL1       -0.3243
     27 C          48.9637   19.1919  -27.2086 C.3     1  UNL1        0.1305
     28 C          48.9263   16.9026  -26.1681 C.ar    1  UNL1        0.0597
     29 C          50.1889   16.8755  -25.5745 C.ar    1  UNL1        0.0185
     30 C          50.5714   15.7099  -24.8881 C.ar    1  UNL1        0.0162
     31 C          49.6950   14.6009  -24.7909 C.ar    1  UNL1        0.0533
     32 C          48.4261   14.6629  -25.4128 C.ar    1  UNL1        0.0159
     33 C          48.0747   15.8303  -26.0902 C.ar    1  UNL1        0.0148
     34 N          50.1484   13.4059  -24.1287 N.am    1  UNL1       -0.2499
     35 C          49.8466   13.0574  -22.7708 C.2     1  UNL1        0.4053
     36 O          49.4432   13.9330  -21.9568 O.2     1  UNL1       -0.2261
     37 H          50.7568   12.7458  -24.6637 H       1  UNL1        0.1582
     38 O          50.0440   11.7385  -22.3486 O.3     1  UNL1       -0.4383
     39 C          49.3708   10.6187  -22.9277 C.3     1  UNL1        0.1705
     40 C          47.8627   10.8358  -22.9282 C.3     1  UNL1        0.0437
     41 C          47.3687   10.3365  -21.5770 C.3     1  UNL1        0.0038
     42 C          48.4511    9.4098  -21.0275 C.3     1  UNL1        0.0038
     43 C          49.5804    9.3950  -22.0502 C.3     1  UNL1        0.0437
@<TRIPOS>BOND
     1    21    22    1
     2    22     1    1
     3     1     2   ar
     4     2     3   ar
     5     3     7    1
     6     7     8    2
     7     7     9   am
     8     9    11    1
     9    11    12    2
    10    11    13    2
    11    11    14    1
    12    14    15   ar
    13    15    16   ar
    14    16    17   ar
    15    17    18   ar
    16    18    19   ar
    17    19    20    1
    18     3     4   ar
    19     4     5   ar
    20     5     6   ar
    21     6    23    1
    22    23    24    1
    23    24    25   ar
    24    25    26   ar
    25    26    27    1
    26    26    28   ar
    27    28    29   ar
    28    29    30   ar
    29    30    31   ar
    30    31    34    1
    31    34    35   am
    32    35    36    2
    33    35    38    1
    34    38    39    1
    35    39    40    1
    36    40    41    1
    37    41    42    1
    38    42    43    1
    39    31    32   ar
    40    32    33   ar
    41     6     1   ar
    42    33    24   ar
    43    19    14   ar
    44    33    28   ar
    45    43    39    1
    46     9    10    1
    47    34    37    1
@<TRIPOS>MOLECULE
*****
 43 47 0 0 0
SMALL
GASTEIGER

@<TRIPOS>ATOM
      1 C          46.5303   11.7617  -29.8535 C.ar    1  UNL1        0.1352
      2 C          46.3701   13.0352  -29.2734 C.ar    1  UNL1        0.0411
      3 C          46.3205   13.1934  -27.8776 C.ar    1  UNL1        0.0578
      4 C          46.4190   12.0564  -27.0613 C.ar    1  UNL1        0.0044
      5 C          46.5670   10.7893  -27.6254 C.ar    1  UNL1       -0.0008
      6 C          46.6389   10.6295  -29.0177 C.ar    1  UNL1        0.0162
      7 C          46.2201   14.5404  -27.2651 C.2     1  UNL1        0.2644
      8 O          45.3658   14.7486  -26.3608 O.2     1  UNL1       -0.2686
      9 N          47.0826   15.6090  -27.6775 N.am    1  UNL1       -0.1814
     10 H          47.5953   15.5594  -28.5850 H       1  UNL1        0.1769
     11 S          47.3074   17.0161  -26.6936 S.O2    1  UNL1        0.0755
     12 O          45.9635   17.6313  -26.4187 O.2     1  UNL1       -0.1499
     13 O          48.1519   18.0166  -27.4311 O.2     1  UNL1       -0.1499
     14 C          48.1185   16.5761  -25.1809 C.ar    1  UNL1        0.1213
     15 C          47.3903   16.6467  -23.9814 C.ar    1  UNL1        0.0199
     16 C          47.9809   16.2899  -22.7683 C.ar    1  UNL1        0.0014
     17 C          49.3043   15.8545  -22.7367 C.ar    1  UNL1       -0.0002
     18 C          50.0448   15.7819  -23.9172 C.ar    1  UNL1       -0.0029
     19 C          49.4736   16.1560  -25.1463 C.ar    1  UNL1       -0.0030
     20 C          50.3081   16.0245  -26.3929 C.3     1  UNL1        0.0324
     21 C          46.0272   12.4762  -32.2037 C.3     1  UNL1        0.2525
     22 O          46.6066   11.5946  -31.2470 O.3     1  UNL1       -0.4717
     23 C          46.8643    9.2480  -29.5879 C.3     1  UNL1        0.0572
     24 C          48.3275    8.9026  -29.6314 C.ar    1  UNL1        0.0010
     25 C          48.9729    8.2009  -30.6450 C.ar    1  UNL1        0.0719
     26 N          50.2949    8.0968  -30.3727 N.ar    1  UNL1       -0.3243
     27 C          51.2935    7.4108  -31.1864 C.3     1  UNL1        0.1305
     28 C          50.4942    8.7256  -29.1971 C.ar    1  UNL1        0.0597
     29 C          51.6894    8.8638  -28.4902 C.ar    1  UNL1        0.0185
     30 C          51.6553    9.5461  -27.2616 C.ar    1  UNL1        0.0162
     31 C          50.4451   10.0886  -26.7629 C.ar    1  UNL1        0.0533
     32 C          49.2522    9.9210  -27.5043 C.ar    1  UNL1        0.0159
     33 C          49.3150    9.2366  -28.7179 C.ar    1  UNL1        0.0148
     34 N          50.4436   10.7290  -25.4738 N.am    1  UNL1       -0.2499
     35 C          49.8089   11.9814  -25.1823 C.2     1  UNL1        0.4053
     36 O          49.4941   12.7743  -26.1119 O.2     1  UNL1       -0.2261
     37 H          50.9543   10.2624  -24.6905 H       1  UNL1        0.1582
     38 O          49.5791   12.3314  -23.8475 O.3     1  UNL1       -0.4383
     39 C          48.8566   11.5058  -22.9316 C.3     1  UNL1        0.1705
     40 C          47.5187   11.0825  -23.5251 C.3     1  UNL1        0.0437
     41 C          46.5375   12.1941  -23.1775 C.3     1  UNL1        0.0038
     42 C          47.1453   12.9686  -22.0100 C.3     1  UNL1        0.0038
     43 C          48.4887   12.3194  -21.7012 C.3     1  UNL1        0.0437
@<TRIPOS>BOND
     1    21    22    1
     2    22     1    1
     3     1     2   ar
     4     2     3   ar
     5     3     7    1
     6     7     8    2
     7     7     9   am
     8     9    11    1
     9    11    12    2
    10    11    13    2
    11    11    14    1
    12    14    15   ar
    13    15    16   ar
    14    16    17   ar
    15    17    18   ar
    16    18    19   ar
    17    19    20    1
    18     3     4   ar
    19     4     5   ar
    20     5     6   ar
    21     6    23    1
    22    23    24    1
    23    24    25   ar
    24    25    26   ar
    25    26    27    1
    26    26    28   ar
    27    28    29   ar
    28    29    30   ar
    29    30    31   ar
    30    31    34    1
    31    34    35   am
    32    35    36    2
    33    35    38    1
    34    38    39    1
    35    39    40    1
    36    40    41    1
    37    41    42    1
    38    42    43    1
    39    31    32   ar
    40    32    33   ar
    41     6     1   ar
    42    33    24   ar
    43    19    14   ar
    44    33    28   ar
    45    43    39    1
    46     9    10    1
    47    34    37    1
@<TRIPOS>MOLECULE
*****
 43 47 0 0 0
SMALL
GASTEIGER

@<TRIPOS>ATOM
      1 C          46.5264   11.6483  -29.8377 C.ar    1  UNL1        0.1352
      2 C          46.2880   12.8411  -29.1275 C.ar    1  UNL1        0.0411
      3 C          46.1897   12.8410  -27.7254 C.ar    1  UNL1        0.0578
      4 C          46.3186   11.6259  -27.0357 C.ar    1  UNL1        0.0044
      5 C          46.5440   10.4372  -27.7296 C.ar    1  UNL1       -0.0008
      6 C          46.6645   10.4363  -29.1277 C.ar    1  UNL1        0.0162
      7 C          46.0065   14.1059  -26.9729 C.2     1  UNL1        0.2644
      8 O          45.2134   14.1353  -25.9925 O.2     1  UNL1       -0.2686
      9 N          46.7212   15.2948  -27.3354 N.am    1  UNL1       -0.1814
     10 H          47.1595   15.3861  -28.2779 H       1  UNL1        0.1769
     11 S          46.8852   16.6192  -26.2319 S.O2    1  UNL1        0.0755
     12 O          46.4757   16.1574  -24.8610 O.2     1  UNL1       -0.1499
     13 O          45.9773   17.7404  -26.6522 O.2     1  UNL1       -0.1499
     14 C          48.5591   17.2004  -26.2252 C.ar    1  UNL1        0.1213
     15 C          49.5649   16.3619  -26.7344 C.ar    1  UNL1        0.0199
     16 C          50.8944   16.7852  -26.7690 C.ar    1  UNL1        0.0014
     17 C          51.2369   18.0518  -26.2996 C.ar    1  UNL1       -0.0002
     18 C          50.2524   18.8971  -25.7864 C.ar    1  UNL1       -0.0029
     19 C          48.9107   18.4810  -25.7248 C.ar    1  UNL1       -0.0030
     20 C          47.8854   19.4475  -25.1934 C.3     1  UNL1        0.0324
     21 C          46.0357   12.5795  -32.1136 C.3     1  UNL1        0.2525
     22 O          46.6517   11.6405  -31.2377 O.3     1  UNL1       -0.4717
     23 C          46.9729    9.1380  -29.8377 C.3     1  UNL1        0.0572
     24 C          48.4403    8.8135  -29.7783 C.ar    1  UNL1        0.0010
     25 C          49.1530    8.0720  -30.7157 C.ar    1  UNL1        0.0719
     26 N          50.4578    8.0020  -30.3620 N.ar    1  UNL1       -0.3243
     27 C          51.5111    7.2916  -31.0803 C.3     1  UNL1        0.1305
     28 C          50.5797    8.6918  -29.2103 C.ar    1  UNL1        0.0597
     29 C          51.7294    8.8835  -28.4430 C.ar    1  UNL1        0.0185
     30 C          51.6145    9.6257  -27.2547 C.ar    1  UNL1        0.0162
     31 C          50.3705   10.1738  -26.8555 C.ar    1  UNL1        0.0533
     32 C          49.2255    9.9511  -27.6555 C.ar    1  UNL1        0.0159
     33 C          49.3681    9.2079  -28.8271 C.ar    1  UNL1        0.0148
     34 N          50.2851   10.8777  -25.6028 N.am    1  UNL1       -0.2499
     35 C          50.7734   12.2068  -25.3754 C.2     1  UNL1        0.4053
     36 O          51.6123   12.7268  -26.1614 O.2     1  UNL1       -0.2261
     37 H          49.8521   10.3858  -24.7888 H       1  UNL1        0.1582
     38 O          50.3366   12.9062  -24.2453 O.3     1  UNL1       -0.4383
     39 C          49.2852   13.8736  -24.2774 C.3     1  UNL1        0.1705
     40 C          49.5731   15.0170  -23.3123 C.3     1  UNL1        0.0437
     41 C          49.0206   14.5742  -21.9640 C.3     1  UNL1        0.0038
     42 C          48.0136   13.4609  -22.2450 C.3     1  UNL1        0.0038
     43 C          48.0045   13.2443  -23.7531 C.3     1  UNL1        0.0437
@<TRIPOS>BOND
     1    21    22    1
     2    22     1    1
     3     1     2   ar
     4     2     3   ar
     5     3     7    1
     6     7     8    2
     7     7     9   am
     8     9    11    1
     9    11    12    2
    10    11    13    2
    11    11    14    1
    12    14    15   ar
    13    15    16   ar
    14    16    17   ar
    15    17    18   ar
    16    18    19   ar
    17    19    20    1
    18     3     4   ar
    19     4     5   ar
    20     5     6   ar
    21     6    23    1
    22    23    24    1
    23    24    25   ar
    24    25    26   ar
    25    26    27    1
    26    26    28   ar
    27    28    29   ar
    28    29    30   ar
    29    30    31   ar
    30    31    34    1
    31    34    35   am
    32    35    36    2
    33    35    38    1
    34    38    39    1
    35    39    40    1
    36    40    41    1
    37    41    42    1
    38    42    43    1
    39    31    32   ar
    40    32    33   ar
    41     6     1   ar
    42    33    24   ar
    43    19    14   ar
    44    33    28   ar
    45    43    39    1
    46     9    10    1
    47    34    37    1
@<TRIPOS>MOLECULE
*****
 43 47 0 0 0
SMALL
GASTEIGER

@<TRIPOS>ATOM
      1 C          46.0317   12.9655  -30.0266 C.ar    1  UNL1        0.1352
      2 C          46.5851   11.6955  -30.2810 C.ar    1  UNL1        0.0411
      3 C          47.1093   10.9126  -29.2380 C.ar    1  UNL1        0.0578
      4 C          47.0881   11.4211  -27.9304 C.ar    1  UNL1        0.0044
      5 C          46.5524   12.6820  -27.6687 C.ar    1  UNL1       -0.0008
      6 C          46.0082   13.4575  -28.7039 C.ar    1  UNL1        0.0162
      7 C          47.6300    9.5479  -29.4953 C.2     1  UNL1        0.2644
      8 O          47.2599    8.9274  -30.5292 O.2     1  UNL1       -0.2686
      9 N          48.5533    8.9239  -28.5932 N.am    1  UNL1       -0.1814
     10 H          48.6652    9.2765  -27.6175 H       1  UNL1        0.1769
     11 S          49.5140    7.5687  -29.0820 S.O2    1  UNL1        0.0755
     12 O          48.9007    6.9625  -30.3135 O.2     1  UNL1       -0.1499
     13 O          49.5204    6.5359  -27.9904 O.2     1  UNL1       -0.1499
     14 C          51.1786    8.0870  -29.3990 C.ar    1  UNL1        0.1213
     15 C          51.8763    7.4956  -30.4655 C.ar    1  UNL1        0.0199
     16 C          53.1818    7.8870  -30.7660 C.ar    1  UNL1        0.0014
     17 C          53.8066    8.8760  -30.0088 C.ar    1  UNL1       -0.0002
     18 C          53.1312    9.4719  -28.9430 C.ar    1  UNL1       -0.0029
     19 C          51.8229    9.0770  -28.6123 C.ar    1  UNL1       -0.0030
     20 C          51.1297    9.7784  -27.4742 C.3     1  UNL1        0.0324
     21 C          45.5314   13.4149  -32.4422 C.3     1  UNL1        0.2525
     22 O          45.4819   13.7462  -31.0581 O.3     1  UNL1       -0.4717
     23 C          45.3790   14.7907  -28.3703 C.3     1  UNL1        0.0572
     24 C          46.2766   15.6184  -27.4921 C.ar    1  UNL1        0.0010
     25 C          46.9271   16.7918  -27.8614 C.ar    1  UNL1        0.0719
     26 N          47.6269   17.2878  -26.8140 N.ar    1  UNL1       -0.3243
     27 C          48.4553   18.4893  -26.8194 C.3     1  UNL1        0.1305
     28 C          47.4263   16.4411  -25.7845 C.ar    1  UNL1        0.0597
     29 C          47.9607   16.5142  -24.4974 C.ar    1  UNL1        0.0185
     30 C          47.6291   15.4969  -23.5857 C.ar    1  UNL1        0.0162
     31 C          46.7671   14.4363  -23.9593 C.ar    1  UNL1        0.0533
     32 C          46.2517   14.3921  -25.2757 C.ar    1  UNL1        0.0159
     33 C          46.6005   15.4125  -26.1602 C.ar    1  UNL1        0.0148
     34 N          46.4999   13.3848  -23.0132 N.am    1  UNL1       -0.2499
     35 C          46.7584   11.9928  -23.2413 C.2     1  UNL1        0.4053
     36 O          46.9251   11.5533  -24.4122 O.2     1  UNL1       -0.2261
     37 H          46.0705   13.6433  -22.0963 H       1  UNL1        0.1582
     38 O          46.7836   11.1192  -22.1490 O.3     1  UNL1       -0.4383
     39 C          47.8832   11.0280  -21.2407 C.3     1  UNL1        0.1705
     40 C          49.1546   11.5793  -21.8739 C.3     1  UNL1        0.0437
     41 C          49.7824   10.4162  -22.6304 C.3     1  UNL1        0.0038
     42 C          49.1854    9.1376  -22.0463 C.3     1  UNL1        0.0038
     43 C          48.1943    9.5646  -20.9706 C.3     1  UNL1        0.0437
@<TRIPOS>BOND
     1    21    22    1
     2    22     1    1
     3     1     2   ar
     4     2     3   ar
     5     3     7    1
     6     7     8    2
     7     7     9   am
     8     9    11    1
     9    11    12    2
    10    11    13    2
    11    11    14    1
    12    14    15   ar
    13    15    16   ar
    14    16    17   ar
    15    17    18   ar
    16    18    19   ar
    17    19    20    1
    18     3     4   ar
    19     4     5   ar
    20     5     6   ar
    21     6    23    1
    22    23    24    1
    23    24    25   ar
    24    25    26   ar
    25    26    27    1
    26    26    28   ar
    27    28    29   ar
    28    29    30   ar
    29    30    31   ar
    30    31    34    1
    31    34    35   am
    32    35    36    2
    33    35    38    1
    34    38    39    1
    35    39    40    1
    36    40    41    1
    37    41    42    1
    38    42    43    1
    39    31    32   ar
    40    32    33   ar
    41     6     1   ar
    42    33    24   ar
    43    19    14   ar
    44    33    28   ar
    45    43    39    1
    46     9    10    1
    47    34    37    1
@<TRIPOS>MOLECULE
*****
 43 47 0 0 0
SMALL
GASTEIGER

@<TRIPOS>ATOM
      1 C          48.3605   10.4837  -22.6680 C.ar    1  UNL1        0.1352
      2 C          47.7854   11.1381  -23.7748 C.ar    1  UNL1        0.0411
      3 C          46.7939   12.1190  -23.6003 C.ar    1  UNL1        0.0578
      4 C          46.3692   12.4317  -22.3000 C.ar    1  UNL1        0.0044
      5 C          46.9242   11.7821  -21.1976 C.ar    1  UNL1       -0.0008
      6 C          47.9298   10.8180  -21.3662 C.ar    1  UNL1        0.0162
      7 C          46.2369   12.8562  -24.7605 C.2     1  UNL1        0.2644
      8 O          45.2454   13.6179  -24.5936 O.2     1  UNL1       -0.2686
      9 N          46.8105   12.7245  -26.0679 N.am    1  UNL1       -0.1814
     10 H          47.4332   11.9193  -26.2975 H       1  UNL1        0.1769
     11 S          46.4958   13.8879  -27.3112 S.O2    1  UNL1        0.0755
     12 O          47.6538   14.8441  -27.3805 O.2     1  UNL1       -0.1499
     13 O          45.2530   14.6622  -26.9735 O.2     1  UNL1       -0.1499
     14 C          46.2637   13.0685  -28.8651 C.ar    1  UNL1        0.1213
     15 C          45.7677   13.8107  -29.9501 C.ar    1  UNL1        0.0199
     16 C          45.5884   13.2131  -31.1985 C.ar    1  UNL1        0.0014
     17 C          45.9053   11.8685  -31.3816 C.ar    1  UNL1       -0.0002
     18 C          46.3951   11.1141  -30.3148 C.ar    1  UNL1       -0.0029
     19 C          46.5637   11.6931  -29.0446 C.ar    1  UNL1       -0.0030
     20 C          47.1284   10.8409  -27.9388 C.3     1  UNL1        0.0324
     21 C          50.4643    9.6325  -23.7343 C.3     1  UNL1        0.2525
     22 O          49.3705    9.5195  -22.8293 O.3     1  UNL1       -0.4717
     23 C          48.5514   10.1832  -20.1433 C.3     1  UNL1        0.0572
     24 C          49.4975   11.1276  -19.4539 C.ar    1  UNL1        0.0010
     25 C          49.8324   11.1093  -18.1034 C.ar    1  UNL1        0.0719
     26 N          50.7338   12.0824  -17.8323 N.ar    1  UNL1       -0.3243
     27 C          51.3045   12.3920  -16.5253 C.3     1  UNL1        0.1305
     28 C          50.9739   12.7169  -18.9971 C.ar    1  UNL1        0.0597
     29 C          51.8140   13.8083  -19.2219 C.ar    1  UNL1        0.0185
     30 C          51.8912   14.3248  -20.5270 C.ar    1  UNL1        0.0162
     31 C          51.1479   13.7455  -21.5850 C.ar    1  UNL1        0.0533
     32 C          50.3007   12.6451  -21.3163 C.ar    1  UNL1        0.0159
     33 C          50.2409   12.1559  -20.0116 C.ar    1  UNL1        0.0148
     34 N          51.2116   14.3414  -22.8938 N.am    1  UNL1       -0.2499
     35 C          50.1118   14.9785  -23.5579 C.2     1  UNL1        0.4053
     36 O          48.9253   14.7663  -23.1849 O.2     1  UNL1       -0.2261
     37 H          52.1174   14.2965  -23.4129 H       1  UNL1        0.1582
     38 O          50.3697   15.8096  -24.6532 O.3     1  UNL1       -0.4383
     39 C          50.1787   17.2256  -24.6277 C.3     1  UNL1        0.1705
     40 C          49.0089   17.6294  -25.5165 C.3     1  UNL1        0.0437
     41 C          49.5887   17.8100  -26.9130 C.3     1  UNL1        0.0038
     42 C          51.0940   18.0035  -26.7431 C.3     1  UNL1        0.0038
     43 C          51.3855   17.9089  -25.2506 C.3     1  UNL1        0.0437
@<TRIPOS>BOND
     1    21    22    1
     2    22     1    1
     3     1     2   ar
     4     2     3   ar
     5     3     7    1
     6     7     8    2
     7     7     9   am
     8     9    11    1
     9    11    12    2
    10    11    13    2
    11    11    14    1
    12    14    15   ar
    13    15    16   ar
    14    16    17   ar
    15    17    18   ar
    16    18    19   ar
    17    19    20    1
    18     3     4   ar
    19     4     5   ar
    20     5     6   ar
    21     6    23    1
    22    23    24    1
    23    24    25   ar
    24    25    26   ar
    25    26    27    1
    26    26    28   ar
    27    28    29   ar
    28    29    30   ar
    29    30    31   ar
    30    31    34    1
    31    34    35   am
    32    35    36    2
    33    35    38    1
    34    38    39    1
    35    39    40    1
    36    40    41    1
    37    41    42    1
    38    42    43    1
    39    31    32   ar
    40    32    33   ar
    41     6     1   ar
    42    33    24   ar
    43    19    14   ar
    44    33    28   ar
    45    43    39    1
    46     9    10    1
    47    34    37    1
@<TRIPOS>MOLECULE
*****
 43 47 0 0 0
SMALL
GASTEIGER

@<TRIPOS>ATOM
      1 C          51.6856   10.8788  -26.8133 C.ar    1  UNL1        0.1352
      2 C          51.7073   12.2159  -26.3710 C.ar    1  UNL1        0.0411
      3 C          50.6527   12.7419  -25.6050 C.ar    1  UNL1        0.0578
      4 C          49.5612   11.9165  -25.2950 C.ar    1  UNL1        0.0044
      5 C          49.5242   10.5941  -25.7370 C.ar    1  UNL1       -0.0008
      6 C          50.5851   10.0589  -26.4834 C.ar    1  UNL1        0.0162
      7 C          50.7068   14.1286  -25.0819 C.2     1  UNL1        0.2644
      8 O          51.2121   14.3442  -23.9465 O.2     1  UNL1       -0.2686
      9 N          50.2015   15.2305  -25.8477 N.am    1  UNL1       -0.1814
     10 H          49.5449   15.0698  -26.6426 H       1  UNL1        0.1769
     11 S          50.6568   16.8619  -25.4875 S.O2    1  UNL1        0.0755
     12 O          51.5442   17.3690  -26.5900 O.2     1  UNL1       -0.1499
     13 O          51.4261   16.8969  -24.1972 O.2     1  UNL1       -0.1499
     14 C          49.2115   17.8747  -25.3281 C.ar    1  UNL1        0.1213
     15 C          49.0827   18.9997  -26.1599 C.ar    1  UNL1        0.0199
     16 C          47.9522   19.8146  -26.0847 C.ar    1  UNL1        0.0014
     17 C          46.9340   19.5156  -25.1815 C.ar    1  UNL1       -0.0002
     18 C          47.0460   18.4049  -24.3442 C.ar    1  UNL1       -0.0029
     19 C          48.1861   17.5834  -24.3912 C.ar    1  UNL1       -0.0030
     20 C          48.2378   16.3786  -23.4892 C.3     1  UNL1        0.0324
     21 C          52.9124   10.4865  -28.9647 C.3     1  UNL1        0.2525
     22 O          52.7462   10.3352  -27.5584 O.3     1  UNL1       -0.4717
     23 C          50.5375    8.6035  -26.8887 C.3     1  UNL1        0.0572
     24 C          49.8936    8.4286  -28.2367 C.ar    1  UNL1        0.0010
     25 C          50.2667    7.5046  -29.2081 C.ar    1  UNL1        0.0719
     26 N          49.4526    7.6044  -30.2850 N.ar    1  UNL1       -0.3243
     27 C          49.5440    6.8210  -31.5131 C.3     1  UNL1        0.1305
     28 C          48.5670    8.5817  -30.0062 C.ar    1  UNL1        0.0597
     29 C          47.5430    9.0688  -30.8196 C.ar    1  UNL1        0.0185
     30 C          46.7498   10.1189  -30.3255 C.ar    1  UNL1        0.0162
     31 C          46.9756   10.6574  -29.0346 C.ar    1  UNL1        0.0533
     32 C          48.0286   10.1428  -28.2427 C.ar    1  UNL1        0.0159
     33 C          48.8018    9.1035  -28.7598 C.ar    1  UNL1        0.0148
     34 N          46.1779   11.7704  -28.5908 N.am    1  UNL1       -0.2499
     35 C          45.9477   12.1173  -27.2185 C.2     1  UNL1        0.4053
     36 O          46.1505   11.2763  -26.3000 O.2     1  UNL1       -0.2261
     37 H          45.7148   12.3653  -29.3144 H       1  UNL1        0.1582
     38 O          45.4557   13.3908  -26.9137 O.3     1  UNL1       -0.4383
     39 C          46.2181   14.3838  -26.2244 C.3     1  UNL1        0.1705
     40 C          45.3704   15.6185  -25.9446 C.3     1  UNL1        0.0437
     41 C          45.4902   16.4965  -27.1832 C.3     1  UNL1        0.0038
     42 C          46.7439   16.0405  -27.9264 C.3     1  UNL1        0.0038
     43 C          47.3327   14.8828  -27.1299 C.3     1  UNL1        0.0437
@<TRIPOS>BOND
     1    21    22    1
     2    22     1    1
     3     1     2   ar
     4     2     3   ar
     5     3     7    1
     6     7     8    2
     7     7     9   am
     8     9    11    1
     9    11    12    2
    10    11    13    2
    11    11    14    1
    12    14    15   ar
    13    15    16   ar
    14    16    17   ar
    15    17    18   ar
    16    18    19   ar
    17    19    20    1
    18     3     4   ar
    19     4     5   ar
    20     5     6   ar
    21     6    23    1
    22    23    24    1
    23    24    25   ar
    24    25    26   ar
    25    26    27    1
    26    26    28   ar
    27    28    29   ar
    28    29    30   ar
    29    30    31   ar
    30    31    34    1
    31    34    35   am
    32    35    36    2
    33    35    38    1
    34    38    39    1
    35    39    40    1
    36    40    41    1
    37    41    42    1
    38    42    43    1
    39    31    32   ar
    40    32    33   ar
    41     6     1   ar
    42    33    24   ar
    43    19    14   ar
    44    33    28   ar
    45    43    39    1
    46     9    10    1
    47    34    37    1
@<TRIPOS>MOLECULE
*****
 43 47 0 0 0
SMALL
GASTEIGER

@<TRIPOS>ATOM
      1 C          51.4121   10.6332  -24.1884 C.ar    1  UNL1        0.1352
      2 C          51.5979   10.1772  -25.5080 C.ar    1  UNL1        0.0411
      3 C          51.9407   11.0680  -26.5398 C.ar    1  UNL1        0.0578
      4 C          52.0831   12.4314  -26.2405 C.ar    1  UNL1        0.0044
      5 C          51.8908   12.8955  -24.9393 C.ar    1  UNL1       -0.0008
      6 C          51.5699   12.0062  -23.9023 C.ar    1  UNL1        0.0162
      7 C          52.2028   10.5786  -27.9151 C.2     1  UNL1        0.2644
      8 O          52.7765   11.3363  -28.7445 O.2     1  UNL1       -0.2686
      9 N          51.8224    9.2559  -28.3169 N.am    1  UNL1       -0.1814
     10 H          51.1196    8.7141  -27.7680 H       1  UNL1        0.1769
     11 S          52.5085    8.5082  -29.7201 S.O2    1  UNL1        0.0755
     12 O          53.5445    7.5128  -29.2775 O.2     1  UNL1       -0.1499
     13 O          53.1769    9.5513  -30.5706 O.2     1  UNL1       -0.1499
     14 C          51.2388    7.7145  -30.6675 C.ar    1  UNL1        0.1213
     15 C          49.8998    7.8911  -30.2801 C.ar    1  UNL1        0.0199
     16 C          48.8648    7.3027  -31.0083 C.ar    1  UNL1        0.0014
     17 C          49.1519    6.5337  -32.1344 C.ar    1  UNL1       -0.0002
     18 C          50.4758    6.3435  -32.5322 C.ar    1  UNL1       -0.0029
     19 C          51.5333    6.9116  -31.8001 C.ar    1  UNL1       -0.0030
     20 C          52.9401    6.7023  -32.2951 C.3     1  UNL1        0.0324
     21 C          50.1314    8.7017  -23.2310 C.3     1  UNL1        0.2525
     22 O          51.0940    9.7477  -23.1441 O.3     1  UNL1       -0.4717
     23 C          51.4331   12.5385  -22.4942 C.3     1  UNL1        0.0572
     24 C          50.0269   12.3860  -21.9826 C.ar    1  UNL1        0.0010
     25 C          49.6389   12.3762  -20.6463 C.ar    1  UNL1        0.0719
     26 N          48.2944   12.2507  -20.5510 N.ar    1  UNL1       -0.3243
     27 C          47.5185   12.1773  -19.3170 C.3     1  UNL1        0.1305
     28 C          47.8261   12.1813  -21.8131 C.ar    1  UNL1        0.0597
     29 C          46.5037   12.0225  -22.2297 C.ar    1  UNL1        0.0185
     30 C          46.2500   11.9518  -23.6105 C.ar    1  UNL1        0.0162
     31 C          47.3048   12.0523  -24.5512 C.ar    1  UNL1        0.0533
     32 C          48.6333   12.2045  -24.0901 C.ar    1  UNL1        0.0159
     33 C          48.8560   12.2678  -22.7147 C.ar    1  UNL1        0.0148
     34 N          47.0080   11.9169  -25.9532 N.am    1  UNL1       -0.2499
     35 C          45.6872   11.8614  -26.5090 C.2     1  UNL1        0.4053
     36 O          44.6939   11.5892  -25.7801 O.2     1  UNL1       -0.2261
     37 H          47.8074   11.8356  -26.6212 H       1  UNL1        0.1582
     38 O          45.5188   12.0742  -27.8813 O.3     1  UNL1       -0.4383
     39 C          46.6060   12.3002  -28.7809 C.3     1  UNL1        0.1705
     40 C          46.1098   12.9097  -30.0862 C.3     1  UNL1        0.0437
     41 C          45.7203   11.7351  -30.9737 C.3     1  UNL1        0.0038
     42 C          46.4312   10.5051  -30.4134 C.3     1  UNL1        0.0038
     43 C          47.2102   10.9658  -29.1876 C.3     1  UNL1        0.0437
@<TRIPOS>BOND
     1    21    22    1
     2    22     1    1
     3     1     2   ar
     4     2     3   ar
     5     3     7    1
     6     7     8    2
     7     7     9   am
     8     9    11    1
     9    11    12    2
    10    11    13    2
    11    11    14    1
    12    14    15   ar
    13    15    16   ar
    14    16    17   ar
    15    17    18   ar
    16    18    19   ar
    17    19    20    1
    18     3     4   ar
    19     4     5   ar
    20     5     6   ar
    21     6    23    1
    22    23    24    1
    23    24    25   ar
    24    25    26   ar
    25    26    27    1
    26    26    28   ar
    27    28    29   ar
    28    29    30   ar
    29    30    31   ar
    30    31    34    1
    31    34    35   am
    32    35    36    2
    33    35    38    1
    34    38    39    1
    35    39    40    1
    36    40    41    1
    37    41    42    1
    38    42    43    1
    39    31    32   ar
    40    32    33   ar
    41     6     1   ar
    42    33    24   ar
    43    19    14   ar
    44    33    28   ar
    45    43    39    1
    46     9    10    1
    47    34    37    1
