@<TRIPOS>MOLECULE
*****
 47 52 0 0 0
SMALL
GASTEIGER

@<TRIPOS>ATOM
      1 C          59.9381   85.3446    8.9725 C.ar    1  UNL1        0.0525
      2 C          60.3377   84.6899   10.1507 C.ar    1  UNL1        0.0384
      3 C          61.4501   85.1492   10.8707 C.ar    1  UNL1        0.1319
      4 N          62.1570   86.2098   10.3987 N.ar    1  UNL1       -0.2279
      5 C          61.8066   86.8645    9.2630 C.ar    1  UNL1        0.1150
      6 C          60.6866   86.4576    8.5213 C.ar    1  UNL1        0.0729
      7 N          61.8835   84.4846   12.0720 N.pl3   1  UNL1       -0.2932
      8 C          61.1337   84.6071   13.3299 C.3     1  UNL1        0.0923
      9 C          60.8711   83.2223   13.9461 C.3     1  UNL1        0.0252
     10 C          61.9918   82.1909   13.6451 C.3     1  UNL1        0.0472
     11 C          63.3269   82.8878   13.3170 C.3     1  UNL1        0.0252
     12 C          63.1683   83.7699   12.0690 C.3     1  UNL1        0.0923
     13 C          62.1526   81.2017   14.8158 C.3     1  UNL1        0.2054
     14 O          61.5131   79.9557   14.5329 O.3     1  UNL1       -0.4755
     15 C          60.7287   79.6762   13.4015 C.ar    1  UNL1        0.1388
     16 C          59.3678   79.4191   13.5939 C.ar    1  UNL1        0.0369
     17 C          58.5392   79.1367   12.5072 C.ar    1  UNL1        0.0033
     18 C          59.0628   79.1049   11.2133 C.ar    1  UNL1        0.0066
     19 C          60.4289   79.3544   10.9926 C.ar    1  UNL1        0.0785
     20 C          61.2543   79.6519   12.0937 C.ar    1  UNL1        0.0433
     21 C          60.9995   79.3308    9.6233 C.2     1  UNL1        0.3381
     22 O          62.0512   78.6755    9.3952 O.2     1  UNL1       -0.2451
     23 O          60.3944   80.0058    8.5637 O.3     1  UNL1       -0.4771
     24 H          59.4967   80.4641    8.6504 H       1  UNL1        0.2954
     25 N          60.3842   87.1036    7.2719 N.am    1  UNL1       -0.2766
     26 C          60.0320   88.4917    7.1776 C.2     1  UNL1        0.2839
     27 O          59.5877   89.0975    8.1898 O.2     1  UNL1       -0.2665
     28 H          60.3623   86.5266    6.4028 H       1  UNL1        0.1553
     29 C          60.1095   89.2147    5.8962 C.ar    1  UNL1        0.1946
     30 O          61.2600   89.4831    5.3038 O.2     1  UNL1       -0.4492
     31 C          61.0008   90.1376    4.1984 C.ar    1  UNL1        0.1452
     32 C          61.9144   90.6250    3.2702 C.ar    1  UNL1        0.0375
     33 C          61.4141   91.3074    2.1474 C.ar    1  UNL1        0.0031
     34 C          60.0158   91.4912    1.9696 C.ar    1  UNL1        0.0002
     35 C          59.1202   90.9769    2.9378 C.ar    1  UNL1        0.0028
     36 C          59.6523   90.3058    4.0389 C.ar    1  UNL1        0.0337
     37 C          59.0480   89.7005    5.1223 C.ar    1  UNL1        0.0202
     38 C          57.5757   89.5888    5.3804 C.3     1  UNL1        0.0345
     39 C          59.4986   92.2143    0.7801 C.ar    1  UNL1        0.0000
     40 C          60.3001   93.1601    0.1130 C.ar    1  UNL1        0.0000
     41 C          59.8100   93.8404   -1.0061 C.ar    1  UNL1        0.0000
     42 C          58.5184   93.5850   -1.4717 C.ar    1  UNL1        0.0000
     43 C          57.7135   92.6489   -0.8188 C.ar    1  UNL1        0.0000
     44 C          58.1979   91.9664    0.3013 C.ar    1  UNL1        0.0000
     45 C          58.3494   83.4303    8.2099 C.3     1  UNL1        0.0773
     46 C          58.7210   84.8810    8.2574 C.2     1  UNL1        0.1748
     47 O          57.9431   85.7210    7.7297 O.2     1  UNL1       -0.2913
@<TRIPOS>BOND
     1    45    46    1
     2    46    47    2
     3    46     1    1
     4     1     2   ar
     5     2     3   ar
     6     3     7    1
     7     7     8    1
     8     8     9    1
     9     9    10    1
    10    10    13    1
    11    13    14    1
    12    14    15    1
    13    15    16   ar
    14    16    17   ar
    15    17    18   ar
    16    18    19   ar
    17    19    21    1
    18    21    22    2
    19    21    23    1
    20    19    20   ar
    21    10    11    1
    22    11    12    1
    23     3     4   ar
    24     4     5   ar
    25     5     6   ar
    26     6    25    1
    27    25    26   am
    28    26    27    2
    29    26    29    1
    30    29    30   ar
    31    30    31   ar
    32    31    32   ar
    33    32    33   ar
    34    33    34   ar
    35    34    39    1
    36    39    40   ar
    37    40    41   ar
    38    41    42   ar
    39    42    43   ar
    40    43    44   ar
    41    34    35   ar
    42    35    36   ar
    43    36    37   ar
    44    37    38    1
    45     6     1   ar
    46    37    29   ar
    47    12     7    1
    48    36    31   ar
    49    20    15   ar
    50    44    39   ar
    51    23    24    1
    52    25    28    1
