@<TRIPOS>MOLECULE
*****
 42 46 0 0 0
SMALL
GASTEIGER

@<TRIPOS>ATOM
      1 C         -27.3056   51.5466   -7.9450 C.ar    1  UNL1        0.0888
      2 C         -25.8887   51.6230   -7.9601 C.ar    1  UNL1        0.0282
      3 C         -25.2304   51.5762   -9.1958 C.ar    1  UNL1        0.0999
      4 N         -23.9083   51.6750   -9.4174 N.ar    1  UNL1       -0.2135
      5 C         -23.8182   51.5911  -10.7720 C.ar    1  UNL1        0.2018
      6 N         -25.0209   51.4389  -11.3925 N.ar    1  UNL1       -0.2977
      7 C         -25.2955   51.3474  -12.8263 C.3     1  UNL1        0.1332
      8 C         -25.9061   51.4423  -10.3788 C.ar    1  UNL1        0.0789
      9 C         -27.3000   51.3546  -10.3851 C.ar    1  UNL1        0.0327
     10 C         -27.9745   51.4084   -9.1874 C.ar    1  UNL1        0.1401
     11 O         -29.3333   51.2898   -9.3865 O.3     1  UNL1       -0.4824
     12 C         -29.6439   51.1675  -10.7743 C.3     1  UNL1        0.1375
     13 C         -30.5135   52.3580  -11.1996 C.3     1  UNL1        0.0439
     14 C         -30.3932   49.8483  -11.0036 C.3     1  UNL1        0.0439
     15 C         -28.2626   51.1803  -11.5078 C.3     1  UNL1        0.0709
     16 N         -29.2803   50.8782   -6.4907 N.am    1  UNL1       -0.2806
     17 C         -28.0383   51.5821   -6.6586 C.2     1  UNL1        0.2525
     18 O         -27.5611   52.2451   -5.6970 O.2     1  UNL1       -0.2697
     19 H         -29.7875   50.5362   -7.3345 H       1  UNL1        0.1552
     20 C         -29.9573   49.8143   -4.3310 C.ar    1  UNL1       -0.0051
     21 C         -30.0050   50.9017   -5.2547 C.ar    1  UNL1        0.0464
     22 C         -30.8135   52.0141   -4.9965 C.ar    1  UNL1        0.0143
     23 C         -31.5841   52.0797   -3.8463 C.ar    1  UNL1        0.0012
     24 C         -31.5832   51.0231   -2.9458 C.ar    1  UNL1        0.0036
     25 C         -30.8020   49.8716   -3.1717 C.ar    1  UNL1        0.0686
     26 C         -30.8761   48.7435   -2.1524 C.3     1  UNL1        0.4183
     27 F         -29.6201   48.3490   -1.7226 F       1  UNL1       -0.1659
     28 F         -31.5824   49.1554   -1.0363 F       1  UNL1       -0.1659
     29 F         -31.4955   47.6436   -2.7185 F       1  UNL1       -0.1659
     30 C         -29.3048   47.9165   -5.9026 C.3     1  UNL1        0.0047
     31 C         -29.0207   48.6163   -4.5679 C.3     1  UNL1        0.0235
     32 C         -27.5331   48.9684   -4.4123 C.3     1  UNL1        0.0047
     33 N         -22.5700   51.7148  -11.4702 N.pl3   1  UNL1       -0.2814
     34 H         -22.5487   51.5270  -12.4966 H       1  UNL1        0.1551
     35 C         -21.4357   52.3732  -10.8880 C.ar    1  UNL1        0.0889
     36 C         -20.2600   51.6403  -10.6542 C.ar    1  UNL1        0.1543
     37 F         -20.1930   50.3281  -10.9930 F       1  UNL1       -0.2028
     38 C         -19.1417   52.2617  -10.0911 C.ar    1  UNL1        0.0310
     39 C         -19.1914   53.6130   -9.7441 C.ar    1  UNL1        0.0033
     40 C         -20.3629   54.3451   -9.9489 C.ar    1  UNL1        0.0128
     41 C         -21.4893   53.7334  -10.5126 C.ar    1  UNL1        0.0733
     42 CL        -22.9681   54.6756  -10.6614 Cl      1  UNL1       -0.0809
@<TRIPOS>BOND
     1    30    31    1
     2    31    32    1
     3    31    20    1
     4    20    21   ar
     5    21    16    1
     6    16    17   am
     7    17    18    2
     8    17     1    1
     9     1     2   ar
    10     2     3   ar
    11     3     4   ar
    12     4     5   ar
    13     5    33    1
    14    33    35    1
    15    35    36   ar
    16    36    37    1
    17    36    38   ar
    18    38    39   ar
    19    39    40   ar
    20    40    41   ar
    21    41    42    1
    22     5     6   ar
    23     6     7    1
    24     6     8   ar
    25     8     9   ar
    26     9    10   ar
    27    10    11    1
    28    11    12    1
    29    12    13    1
    30    12    14    1
    31    12    15    1
    32    21    22   ar
    33    22    23   ar
    34    23    24   ar
    35    24    25   ar
    36    25    26    1
    37    26    27    1
    38    26    28    1
    39    26    29    1
    40    25    20   ar
    41    10     1   ar
    42     8     3   ar
    43    15     9    1
    44    41    35   ar
    45    16    19    1
    46    33    34    1
@<TRIPOS>MOLECULE
*****
 42 46 0 0 0
SMALL
GASTEIGER

@<TRIPOS>ATOM
      1 C         -30.1051   49.4712  -10.1932 C.ar    1  UNL1        0.0888
      2 C         -30.0281   50.3517  -11.3034 C.ar    1  UNL1        0.0282
      3 C         -30.0311   49.8030  -12.5925 C.ar    1  UNL1        0.0999
      4 N         -30.0067   50.4689  -13.7599 N.ar    1  UNL1       -0.2135
      5 C         -30.0464   49.4700  -14.6823 C.ar    1  UNL1        0.2018
      6 N         -30.0873   48.2226  -14.1375 N.ar    1  UNL1       -0.2977
      7 C         -30.1669   46.9350  -14.8269 C.3     1  UNL1        0.1332
      8 C         -30.0878   48.4529  -12.8116 C.ar    1  UNL1        0.0789
      9 C         -30.1533   47.5688  -11.7324 C.ar    1  UNL1        0.0327
     10 C         -30.1627   48.0790  -10.4550 C.ar    1  UNL1        0.1401
     11 O         -30.2127   47.0638   -9.5240 O.3     1  UNL1       -0.4824
     12 C         -30.2612   45.7847  -10.1558 C.3     1  UNL1        0.1375
     13 C         -31.5751   45.0886   -9.7769 C.3     1  UNL1        0.0439
     14 C         -29.0601   44.9516   -9.6891 C.3     1  UNL1        0.0439
     15 C         -30.1953   46.0809  -11.6901 C.3     1  UNL1        0.0709
     16 N         -30.8504   49.3845   -7.7646 N.am    1  UNL1       -0.2806
     17 C         -30.0941   50.0109   -8.8143 C.2     1  UNL1        0.2525
     18 O         -29.4092   51.0401   -8.5620 O.2     1  UNL1       -0.2697
     19 H         -31.5901   48.6941   -8.0151 H       1  UNL1        0.1552
     20 C         -30.5321   49.0684   -5.3043 C.ar    1  UNL1       -0.0051
     21 C         -30.8542   49.8924   -6.4247 C.ar    1  UNL1        0.0464
     22 C         -31.2373   51.2248   -6.2359 C.ar    1  UNL1        0.0143
     23 C         -31.3158   51.7670   -4.9628 C.ar    1  UNL1        0.0012
     24 C         -31.0403   50.9807   -3.8522 C.ar    1  UNL1        0.0036
     25 C         -30.6708   49.6273   -3.9893 C.ar    1  UNL1        0.0686
     26 C         -30.4121   48.8229   -2.7231 C.3     1  UNL1        0.4183
     27 F         -30.7520   49.5290   -1.5813 F       1  UNL1       -0.1659
     28 F         -31.1690   47.6647   -2.7313 F       1  UNL1       -0.1659
     29 F         -29.0687   48.5034   -2.6400 F       1  UNL1       -0.1659
     30 C         -31.1162   46.7316   -6.1382 C.3     1  UNL1        0.0047
     31 C         -30.0429   47.6226   -5.5010 C.3     1  UNL1        0.0235
     32 C         -28.7049   47.5309   -6.2508 C.3     1  UNL1        0.0047
     33 N         -30.1013   49.7267  -16.0937 N.pl3   1  UNL1       -0.2814
     34 H         -30.7865   50.4289  -16.4496 H       1  UNL1        0.1551
     35 C         -29.0629   49.2954  -16.9854 C.ar    1  UNL1        0.0889
     36 C         -27.7587   49.7883  -16.8121 C.ar    1  UNL1        0.1543
     37 F         -27.4813   50.6488  -15.8003 F       1  UNL1       -0.2028
     38 C         -26.7308   49.3795  -17.6666 C.ar    1  UNL1        0.0310
     39 C         -26.9977   48.4885  -18.7076 C.ar    1  UNL1        0.0033
     40 C         -28.2954   48.0115  -18.9047 C.ar    1  UNL1        0.0128
     41 C         -29.3330   48.4137  -18.0548 C.ar    1  UNL1        0.0733
     42 CL        -30.9657   47.8577  -18.4044 Cl      1  UNL1       -0.0809
@<TRIPOS>BOND
     1    30    31    1
     2    31    32    1
     3    31    20    1
     4    20    21   ar
     5    21    16    1
     6    16    17   am
     7    17    18    2
     8    17     1    1
     9     1     2   ar
    10     2     3   ar
    11     3     4   ar
    12     4     5   ar
    13     5    33    1
    14    33    35    1
    15    35    36   ar
    16    36    37    1
    17    36    38   ar
    18    38    39   ar
    19    39    40   ar
    20    40    41   ar
    21    41    42    1
    22     5     6   ar
    23     6     7    1
    24     6     8   ar
    25     8     9   ar
    26     9    10   ar
    27    10    11    1
    28    11    12    1
    29    12    13    1
    30    12    14    1
    31    12    15    1
    32    21    22   ar
    33    22    23   ar
    34    23    24   ar
    35    24    25   ar
    36    25    26    1
    37    26    27    1
    38    26    28    1
    39    26    29    1
    40    25    20   ar
    41    10     1   ar
    42     8     3   ar
    43    15     9    1
    44    41    35   ar
    45    16    19    1
    46    33    34    1
@<TRIPOS>MOLECULE
*****
 42 46 0 0 0
SMALL
GASTEIGER

@<TRIPOS>ATOM
      1 C         -27.2270   51.0005   -7.3711 C.ar    1  UNL1        0.0888
      2 C         -25.8214   51.0536   -7.1840 C.ar    1  UNL1        0.0282
      3 C         -25.0000   51.1452   -8.3152 C.ar    1  UNL1        0.0999
      4 N         -23.6599   51.2471   -8.3414 N.ar    1  UNL1       -0.2135
      5 C         -23.3853   51.3261   -9.6712 C.ar    1  UNL1        0.2018
      6 N         -24.4917   51.2709  -10.4633 N.ar    1  UNL1       -0.2977
      7 C         -24.5674   51.3582  -11.9214 C.3     1  UNL1        0.1332
      8 C         -25.5074   51.1671   -9.5865 C.ar    1  UNL1        0.0789
      9 C         -26.8873   51.1050   -9.7927 C.ar    1  UNL1        0.0327
     10 C         -27.7195   51.0251   -8.7003 C.ar    1  UNL1        0.1401
     11 O         -29.0383   50.9551   -9.0951 O.3     1  UNL1       -0.4824
     12 C         -29.1559   51.0069  -10.5167 C.3     1  UNL1        0.1375
     13 C         -29.9583   52.2550  -10.9076 C.3     1  UNL1        0.0439
     14 C         -29.8676   49.7383  -11.0052 C.3     1  UNL1        0.0439
     15 C         -27.6872   51.0843  -11.0486 C.3     1  UNL1        0.0709
     16 N         -28.5394   49.6121   -5.6945 N.am    1  UNL1       -0.2806
     17 C         -28.1290   50.8929   -6.2016 C.2     1  UNL1        0.2525
     18 O         -28.5435   51.9469   -5.6455 O.2     1  UNL1       -0.2697
     19 H         -28.3974   48.7642   -6.2837 H       1  UNL1        0.1552
     20 C         -29.0579   48.7146   -3.4184 C.ar    1  UNL1       -0.0051
     21 C         -29.4128   49.4872   -4.5653 C.ar    1  UNL1        0.0464
     22 C         -30.6634   50.1103   -4.6390 C.ar    1  UNL1        0.0143
     23 C         -31.5799   49.9864   -3.6066 C.ar    1  UNL1        0.0012
     24 C         -31.2755   49.2148   -2.4934 C.ar    1  UNL1        0.0036
     25 C         -30.0374   48.5501   -2.3820 C.ar    1  UNL1        0.0686
     26 C         -29.7889   47.6999   -1.1440 C.3     1  UNL1        0.4183
     27 F         -30.9692   47.3477   -0.5108 F       1  UNL1       -0.1659
     28 F         -29.1433   46.5270   -1.4931 F       1  UNL1       -0.1659
     29 F         -29.0173   48.4074   -0.2397 F       1  UNL1       -0.1659
     30 C         -27.3580   47.1185   -4.4480 C.3     1  UNL1        0.0047
     31 C         -27.6609   48.0812   -3.2934 C.3     1  UNL1        0.0235
     32 C         -26.5403   49.1150   -3.1022 C.3     1  UNL1        0.0047
     33 N         -22.0530   51.5116  -10.1729 N.pl3   1  UNL1       -0.2814
     34 H         -21.7344   50.9282  -10.9776 H       1  UNL1        0.1551
     35 C         -21.2622   52.6569   -9.8237 C.ar    1  UNL1        0.0889
     36 C         -20.5388   52.6521   -8.6193 C.ar    1  UNL1        0.1543
     37 F         -20.5738   51.5677   -7.8045 F       1  UNL1       -0.2028
     38 C         -19.7591   53.7553   -8.2604 C.ar    1  UNL1        0.0310
     39 C         -19.7059   54.8759   -9.0912 C.ar    1  UNL1        0.0033
     40 C         -20.4406   54.9017  -10.2786 C.ar    1  UNL1        0.0128
     41 C         -21.2249   53.8023  -10.6487 C.ar    1  UNL1        0.0733
     42 CL        -22.2039   53.9240  -12.1060 Cl      1  UNL1       -0.0809
@<TRIPOS>BOND
     1    30    31    1
     2    31    32    1
     3    31    20    1
     4    20    21   ar
     5    21    16    1
     6    16    17   am
     7    17    18    2
     8    17     1    1
     9     1     2   ar
    10     2     3   ar
    11     3     4   ar
    12     4     5   ar
    13     5    33    1
    14    33    35    1
    15    35    36   ar
    16    36    37    1
    17    36    38   ar
    18    38    39   ar
    19    39    40   ar
    20    40    41   ar
    21    41    42    1
    22     5     6   ar
    23     6     7    1
    24     6     8   ar
    25     8     9   ar
    26     9    10   ar
    27    10    11    1
    28    11    12    1
    29    12    13    1
    30    12    14    1
    31    12    15    1
    32    21    22   ar
    33    22    23   ar
    34    23    24   ar
    35    24    25   ar
    36    25    26    1
    37    26    27    1
    38    26    28    1
    39    26    29    1
    40    25    20   ar
    41    10     1   ar
    42     8     3   ar
    43    15     9    1
    44    41    35   ar
    45    16    19    1
    46    33    34    1
@<TRIPOS>MOLECULE
*****
 42 46 0 0 0
SMALL
GASTEIGER

@<TRIPOS>ATOM
      1 C         -26.7521   50.1460   -7.2078 C.ar    1  UNL1        0.0888
      2 C         -25.4260   50.5993   -7.4303 C.ar    1  UNL1        0.0282
      3 C         -25.0408   50.9212   -8.7383 C.ar    1  UNL1        0.0999
      4 N         -23.8520   51.4023   -9.1411 N.ar    1  UNL1       -0.2135
      5 C         -24.0227   51.5555  -10.4818 C.ar    1  UNL1        0.2018
      6 N         -25.2569   51.1853  -10.9227 N.ar    1  UNL1       -0.2977
      7 C         -25.7885   51.2460  -12.2840 C.3     1  UNL1        0.1332
      8 C         -25.8928   50.7959   -9.8024 C.ar    1  UNL1        0.0789
      9 C         -27.1988   50.3413   -9.6063 C.ar    1  UNL1        0.0327
     10 C         -27.6087   50.0276   -8.3312 C.ar    1  UNL1        0.1401
     11 O         -28.9134   49.5828   -8.3333 O.3     1  UNL1       -0.4824
     12 C         -29.4626   49.5975   -9.6507 C.3     1  UNL1        0.1375
     13 C         -30.6543   50.5634   -9.6856 C.3     1  UNL1        0.0439
     14 C         -29.9133   48.1779  -10.0195 C.3     1  UNL1        0.0439
     15 C         -28.3017   50.0915  -10.5751 C.3     1  UNL1        0.0709
     16 N         -28.3325   48.9330   -5.6292 N.am    1  UNL1       -0.2806
     17 C         -27.1951   49.7858   -5.8414 C.2     1  UNL1        0.2525
     18 O         -26.5610   50.2398   -4.8495 O.2     1  UNL1       -0.2697
     19 H         -28.9883   48.7561   -6.4197 H       1  UNL1        0.1552
     20 C         -28.5142   47.2886   -3.7536 C.ar    1  UNL1       -0.0051
     21 C         -28.7777   48.5744   -4.3152 C.ar    1  UNL1        0.0464
     22 C         -29.5333   49.5146   -3.6059 C.ar    1  UNL1        0.0143
     23 C         -30.0423   49.2156   -2.3519 C.ar    1  UNL1        0.0012
     24 C         -29.8301   47.9620   -1.7944 C.ar    1  UNL1        0.0036
     25 C         -29.0936   46.9737   -2.4785 C.ar    1  UNL1        0.0686
     26 C         -28.9281   45.6143   -1.8139 C.3     1  UNL1        0.4183
     27 F         -27.5956   45.2899   -1.6209 F       1  UNL1       -0.1659
     28 F         -29.5358   45.6144   -0.5710 F       1  UNL1       -0.1659
     29 F         -29.4922   44.6340   -2.6105 F       1  UNL1       -0.1659
     30 C         -28.1091   46.0180   -5.9259 C.3     1  UNL1        0.0047
     31 C         -27.6275   46.2703   -4.4919 C.3     1  UNL1        0.0235
     32 C         -26.1321   46.6202   -4.4444 C.3     1  UNL1        0.0047
     33 N         -23.0070   52.1140  -11.3287 N.pl3   1  UNL1       -0.2814
     34 H         -23.2473   52.3377  -12.3195 H       1  UNL1        0.1551
     35 C         -21.7885   52.6555  -10.7984 C.ar    1  UNL1        0.0889
     36 C         -20.6733   51.8155  -10.6419 C.ar    1  UNL1        0.1543
     37 F         -20.7433   50.5103  -11.0063 F       1  UNL1       -0.2028
     38 C         -19.4750   52.3219  -10.1305 C.ar    1  UNL1        0.0310
     39 C         -19.3838   53.6642   -9.7582 C.ar    1  UNL1        0.0033
     40 C         -20.4935   54.5025   -9.8859 C.ar    1  UNL1        0.0128
     41 C         -21.6989   54.0064  -10.3974 C.ar    1  UNL1        0.0733
     42 CL        -23.0922   55.0802  -10.4489 Cl      1  UNL1       -0.0809
@<TRIPOS>BOND
     1    30    31    1
     2    31    32    1
     3    31    20    1
     4    20    21   ar
     5    21    16    1
     6    16    17   am
     7    17    18    2
     8    17     1    1
     9     1     2   ar
    10     2     3   ar
    11     3     4   ar
    12     4     5   ar
    13     5    33    1
    14    33    35    1
    15    35    36   ar
    16    36    37    1
    17    36    38   ar
    18    38    39   ar
    19    39    40   ar
    20    40    41   ar
    21    41    42    1
    22     5     6   ar
    23     6     7    1
    24     6     8   ar
    25     8     9   ar
    26     9    10   ar
    27    10    11    1
    28    11    12    1
    29    12    13    1
    30    12    14    1
    31    12    15    1
    32    21    22   ar
    33    22    23   ar
    34    23    24   ar
    35    24    25   ar
    36    25    26    1
    37    26    27    1
    38    26    28    1
    39    26    29    1
    40    25    20   ar
    41    10     1   ar
    42     8     3   ar
    43    15     9    1
    44    41    35   ar
    45    16    19    1
    46    33    34    1
@<TRIPOS>MOLECULE
*****
 42 46 0 0 0
SMALL
GASTEIGER

@<TRIPOS>ATOM
      1 C         -24.0832   51.5427   -9.8708 C.ar    1  UNL1        0.0888
      2 C         -24.0773   51.6041  -11.2885 C.ar    1  UNL1        0.0282
      3 C         -25.2966   51.4814  -11.9674 C.ar    1  UNL1        0.0999
      4 N         -25.4998   51.5543  -13.2942 N.ar    1  UNL1       -0.2135
      5 C         -26.8458   51.3936  -13.4066 C.ar    1  UNL1        0.2018
      6 N         -27.4781   51.2188  -12.2132 N.ar    1  UNL1       -0.2977
      7 C         -28.9091   51.0497  -11.9622 C.3     1  UNL1        0.1332
      8 C         -26.4821   51.2880  -11.3107 C.ar    1  UNL1        0.0789
      9 C         -26.5082   51.2141   -9.9163 C.ar    1  UNL1        0.0327
     10 C         -25.3276   51.3417   -9.2219 C.ar    1  UNL1        0.1401
     11 O         -25.5439   51.2258   -7.8655 O.3     1  UNL1       -0.4824
     12 C         -26.9280   51.0288   -7.5775 C.3     1  UNL1        0.1375
     13 C         -27.4347   52.2022   -6.7285 C.3     1  UNL1        0.0439
     14 C         -27.0964   49.7064   -6.8178 C.3     1  UNL1        0.0439
     15 C         -27.6363   50.9865   -8.9713 C.3     1  UNL1        0.0709
     16 N         -21.6677   52.3120   -9.6855 N.am    1  UNL1       -0.2806
     17 C         -22.8141   51.6578   -9.1165 C.2     1  UNL1        0.2525
     18 O         -22.7422   51.1694   -7.9553 O.2     1  UNL1       -0.2697
     19 H         -21.6474   52.4991  -10.7107 H       1  UNL1        0.1552
     20 C         -19.1859   52.0355   -9.5485 C.ar    1  UNL1       -0.0051
     21 C         -20.4305   52.4320   -8.9725 C.ar    1  UNL1        0.0464
     22 C         -20.4817   52.9079   -7.6577 C.ar    1  UNL1        0.0143
     23 C         -19.3309   52.9988   -6.8906 C.ar    1  UNL1        0.0012
     24 C         -18.1112   52.5898   -7.4127 C.ar    1  UNL1        0.0036
     25 C         -18.0114   52.0835   -8.7245 C.ar    1  UNL1        0.0686
     26 C         -16.6440   51.6291   -9.2155 C.3     1  UNL1        0.4183
     27 F         -16.3505   52.1316  -10.4722 F       1  UNL1       -0.1659
     28 F         -15.6566   52.0728   -8.3538 F       1  UNL1       -0.1659
     29 F         -16.6116   50.2482   -9.2928 F       1  UNL1       -0.1659
     30 C         -20.0170   50.3757  -11.2954 C.3     1  UNL1        0.0047
     31 C         -19.1043   51.5758  -11.0149 C.3     1  UNL1        0.0235
     32 C         -19.3311   52.7141  -12.0218 C.3     1  UNL1        0.0047
     33 N         -27.5274   51.4654  -14.6679 N.pl3   1  UNL1       -0.2814
     34 H         -28.2401   52.2143  -14.8110 H       1  UNL1        0.1551
     35 C         -27.0593   50.7589  -15.8259 C.ar    1  UNL1        0.0889
     36 C         -25.8426   51.1376  -16.4175 C.ar    1  UNL1        0.1543
     37 F         -25.1096   52.1489  -15.8874 F       1  UNL1       -0.2028
     38 C         -25.3654   50.4615  -17.5440 C.ar    1  UNL1        0.0310
     39 C         -26.1034   49.4135  -18.0972 C.ar    1  UNL1        0.0033
     40 C         -27.3263   49.0449  -17.5324 C.ar    1  UNL1        0.0128
     41 C         -27.8142   49.7147  -16.4036 C.ar    1  UNL1        0.0733
     42 CL        -29.4031   49.2736  -15.7892 Cl      1  UNL1       -0.0809
@<TRIPOS>BOND
     1    30    31    1
     2    31    32    1
     3    31    20    1
     4    20    21   ar
     5    21    16    1
     6    16    17   am
     7    17    18    2
     8    17     1    1
     9     1     2   ar
    10     2     3   ar
    11     3     4   ar
    12     4     5   ar
    13     5    33    1
    14    33    35    1
    15    35    36   ar
    16    36    37    1
    17    36    38   ar
    18    38    39   ar
    19    39    40   ar
    20    40    41   ar
    21    41    42    1
    22     5     6   ar
    23     6     7    1
    24     6     8   ar
    25     8     9   ar
    26     9    10   ar
    27    10    11    1
    28    11    12    1
    29    12    13    1
    30    12    14    1
    31    12    15    1
    32    21    22   ar
    33    22    23   ar
    34    23    24   ar
    35    24    25   ar
    36    25    26    1
    37    26    27    1
    38    26    28    1
    39    26    29    1
    40    25    20   ar
    41    10     1   ar
    42     8     3   ar
    43    15     9    1
    44    41    35   ar
    45    16    19    1
    46    33    34    1
@<TRIPOS>MOLECULE
*****
 42 46 0 0 0
SMALL
GASTEIGER

@<TRIPOS>ATOM
      1 C         -26.3930   49.9929   -7.2028 C.ar    1  UNL1        0.0888
      2 C         -25.0900   50.4772   -7.4884 C.ar    1  UNL1        0.0282
      3 C         -24.7909   50.8535   -8.8043 C.ar    1  UNL1        0.0999
      4 N         -23.6365   51.3697   -9.2602 N.ar    1  UNL1       -0.2135
      5 C         -23.8915   51.5690  -10.5813 C.ar    1  UNL1        0.2018
      6 N         -25.1447   51.1938  -10.9600 N.ar    1  UNL1       -0.2977
      7 C         -25.7598   51.2952  -12.2832 C.3     1  UNL1        0.1332
      8 C         -25.7046   50.7525   -9.8186 C.ar    1  UNL1        0.0789
      9 C         -26.9890   50.2683   -9.5607 C.ar    1  UNL1        0.0327
     10 C         -27.3150   49.9009   -8.2757 C.ar    1  UNL1        0.1401
     11 O         -28.6105   49.4338   -8.2152 O.3     1  UNL1       -0.4824
     12 C         -29.2398   49.4873   -9.4953 C.3     1  UNL1        0.1375
     13 C         -30.4459   50.4329   -9.4212 C.3     1  UNL1        0.0439
     14 C         -29.6907   48.0745   -9.8892 C.3     1  UNL1        0.0439
     15 C         -28.1455   50.0351  -10.4693 C.3     1  UNL1        0.0709
     16 N         -27.6730   48.5028   -5.5898 N.am    1  UNL1       -0.2806
     17 C         -26.7456   49.5752   -5.8266 C.2     1  UNL1        0.2525
     18 O         -26.2220   50.1757   -4.8482 O.2     1  UNL1       -0.2697
     19 H         -28.2770   48.1725   -6.3723 H       1  UNL1        0.1552
     20 C         -29.2375   48.5122   -3.6387 C.ar    1  UNL1       -0.0051
     21 C         -28.0283   48.0850   -4.2659 C.ar    1  UNL1        0.0464
     22 C         -27.1204   47.2757   -3.5741 C.ar    1  UNL1        0.0143
     23 C         -27.3738   46.8787   -2.2706 C.ar    1  UNL1        0.0012
     24 C         -28.5256   47.3054   -1.6236 C.ar    1  UNL1        0.0036
     25 C         -29.4605   48.1388   -2.2706 C.ar    1  UNL1        0.0686
     26 C         -30.6850   48.5875   -1.4855 C.3     1  UNL1        0.4183
     27 F         -31.5806   47.5507   -1.2835 F       1  UNL1       -0.1659
     28 F         -30.3071   49.0536   -0.2388 F       1  UNL1       -0.1659
     29 F         -31.3430   49.5873   -2.1791 F       1  UNL1       -0.1659
     30 C         -29.7416   50.7314   -4.7868 C.3     1  UNL1        0.0047
     31 C         -30.2769   49.3446   -4.4102 C.3     1  UNL1        0.0235
     32 C         -30.8634   48.6090   -5.6251 C.3     1  UNL1        0.0047
     33 N         -22.9383   52.1759  -11.4668 N.pl3   1  UNL1       -0.2814
     34 H         -23.2478   52.4500  -12.4252 H       1  UNL1        0.1551
     35 C         -21.6862   52.6946  -10.9954 C.ar    1  UNL1        0.0889
     36 C         -20.5704   51.8435  -10.9290 C.ar    1  UNL1        0.1543
     37 F         -20.6723   50.5494  -11.3243 F       1  UNL1       -0.2028
     38 C         -19.3398   52.3277  -10.4762 C.ar    1  UNL1        0.0310
     39 C         -19.2158   53.6586  -10.0732 C.ar    1  UNL1        0.0033
     40 C         -20.3244   54.5070  -10.1113 C.ar    1  UNL1        0.0128
     41 C         -21.5621   54.0332  -10.5635 C.ar    1  UNL1        0.0733
     42 CL        -22.9473   55.1168  -10.5021 Cl      1  UNL1       -0.0809
@<TRIPOS>BOND
     1    30    31    1
     2    31    32    1
     3    31    20    1
     4    20    21   ar
     5    21    16    1
     6    16    17   am
     7    17    18    2
     8    17     1    1
     9     1     2   ar
    10     2     3   ar
    11     3     4   ar
    12     4     5   ar
    13     5    33    1
    14    33    35    1
    15    35    36   ar
    16    36    37    1
    17    36    38   ar
    18    38    39   ar
    19    39    40   ar
    20    40    41   ar
    21    41    42    1
    22     5     6   ar
    23     6     7    1
    24     6     8   ar
    25     8     9   ar
    26     9    10   ar
    27    10    11    1
    28    11    12    1
    29    12    13    1
    30    12    14    1
    31    12    15    1
    32    21    22   ar
    33    22    23   ar
    34    23    24   ar
    35    24    25   ar
    36    25    26    1
    37    26    27    1
    38    26    28    1
    39    26    29    1
    40    25    20   ar
    41    10     1   ar
    42     8     3   ar
    43    15     9    1
    44    41    35   ar
    45    16    19    1
    46    33    34    1
@<TRIPOS>MOLECULE
*****
 42 46 0 0 0
SMALL
GASTEIGER

@<TRIPOS>ATOM
      1 C         -25.4184   50.2166   -7.5409 C.ar    1  UNL1        0.0888
      2 C         -24.0523   50.5603   -7.3695 C.ar    1  UNL1        0.0282
      3 C         -23.4100   51.2739   -8.3898 C.ar    1  UNL1        0.0999
      4 N         -22.1430   51.7228   -8.3952 N.ar    1  UNL1       -0.2135
      5 C         -22.0483   52.3565   -9.5950 C.ar    1  UNL1        0.2018
      6 N         -23.1942   52.3125  -10.3297 N.ar    1  UNL1       -0.2977
      7 C         -23.4544   52.9099  -11.6392 C.3     1  UNL1        0.1332
      8 C         -24.0504   51.6316   -9.5457 C.ar    1  UNL1        0.0789
      9 C         -25.3917   51.2937   -9.7386 C.ar    1  UNL1        0.0327
     10 C         -26.0516   50.6021   -8.7493 C.ar    1  UNL1        0.1401
     11 O         -27.3536   50.3428   -9.1201 O.3     1  UNL1       -0.4824
     12 C         -27.6418   50.8842  -10.4090 C.3     1  UNL1        0.1375
     13 C         -28.7533   51.9334  -10.2744 C.3     1  UNL1        0.0439
     14 C         -28.0879   49.7482  -11.3391 C.3     1  UNL1        0.0439
     15 C         -26.3027   51.5318  -10.8922 C.3     1  UNL1        0.0709
     16 N         -26.7289   50.1185   -5.3651 N.am    1  UNL1       -0.2806
     17 C         -26.1304   49.4537   -6.4902 C.2     1  UNL1        0.2525
     18 O         -26.2083   48.1981   -6.5877 O.2     1  UNL1       -0.2697
     19 H         -26.4653   51.1060   -5.1605 H       1  UNL1        0.1552
     20 C         -28.8447   49.4011   -4.2412 C.ar    1  UNL1       -0.0051
     21 C         -27.4204   49.3980   -4.3374 C.ar    1  UNL1        0.0464
     22 C         -26.6487   48.7224   -3.3857 C.ar    1  UNL1        0.0143
     23 C         -27.2491   48.0500   -2.3329 C.ar    1  UNL1        0.0012
     24 C         -28.6305   48.0630   -2.1950 C.ar    1  UNL1        0.0036
     25 C         -29.4499   48.7471   -3.1158 C.ar    1  UNL1        0.0686
     26 C         -30.9539   48.7389   -2.8811 C.3     1  UNL1        0.4183
     27 F         -31.2907   48.1074   -1.6954 F       1  UNL1       -0.1659
     28 F         -31.4317   50.0353   -2.8071 F       1  UNL1       -0.1659
     29 F         -31.5832   48.0665   -3.9133 F       1  UNL1       -0.1659
     30 C         -29.3176   51.5491   -5.5297 C.3     1  UNL1        0.0047
     31 C         -29.7083   50.0813   -5.3183 C.3     1  UNL1        0.0235
     32 C         -29.7498   49.3043   -6.6433 C.3     1  UNL1        0.0047
     33 N         -20.8629   53.0538  -10.0065 N.pl3   1  UNL1       -0.2814
     34 H         -20.9570   54.0195  -10.3910 H       1  UNL1        0.1551
     35 C         -19.5510   52.6091   -9.6316 C.ar    1  UNL1        0.0889
     36 C         -18.7956   51.8508  -10.5417 C.ar    1  UNL1        0.1543
     37 F         -19.2951   51.5584  -11.7690 F       1  UNL1       -0.2028
     38 C         -17.5142   51.4097  -10.1994 C.ar    1  UNL1        0.0310
     39 C         -16.9823   51.7087   -8.9438 C.ar    1  UNL1        0.0033
     40 C         -17.7340   52.4404   -8.0219 C.ar    1  UNL1        0.0128
     41 C         -19.0187   52.8878   -8.3538 C.ar    1  UNL1        0.0733
     42 CL        -19.9589   53.7234   -7.1231 Cl      1  UNL1       -0.0809
@<TRIPOS>BOND
     1    30    31    1
     2    31    32    1
     3    31    20    1
     4    20    21   ar
     5    21    16    1
     6    16    17   am
     7    17    18    2
     8    17     1    1
     9     1     2   ar
    10     2     3   ar
    11     3     4   ar
    12     4     5   ar
    13     5    33    1
    14    33    35    1
    15    35    36   ar
    16    36    37    1
    17    36    38   ar
    18    38    39   ar
    19    39    40   ar
    20    40    41   ar
    21    41    42    1
    22     5     6   ar
    23     6     7    1
    24     6     8   ar
    25     8     9   ar
    26     9    10   ar
    27    10    11    1
    28    11    12    1
    29    12    13    1
    30    12    14    1
    31    12    15    1
    32    21    22   ar
    33    22    23   ar
    34    23    24   ar
    35    24    25   ar
    36    25    26    1
    37    26    27    1
    38    26    28    1
    39    26    29    1
    40    25    20   ar
    41    10     1   ar
    42     8     3   ar
    43    15     9    1
    44    41    35   ar
    45    16    19    1
    46    33    34    1
@<TRIPOS>MOLECULE
*****
 42 46 0 0 0
SMALL
GASTEIGER

@<TRIPOS>ATOM
      1 C         -26.3487   50.4260   -7.1094 C.ar    1  UNL1        0.0888
      2 C         -24.9542   50.6281   -6.9408 C.ar    1  UNL1        0.0282
      3 C         -24.1948   51.0070   -8.0555 C.ar    1  UNL1        0.0999
      4 N         -22.8796   51.2831   -8.0879 N.ar    1  UNL1       -0.2135
      5 C         -22.6683   51.6116   -9.3908 C.ar    1  UNL1        0.2018
      6 N         -23.7891   51.5442  -10.1614 N.ar    1  UNL1       -0.2977
      7 C         -23.9312   51.8567  -11.5832 C.3     1  UNL1        0.1332
      8 C         -24.7496   51.1697   -9.2963 C.ar    1  UNL1        0.0789
      9 C         -26.1181   50.9652   -9.4856 C.ar    1  UNL1        0.0327
     10 C         -26.8913   50.6028   -8.4071 C.ar    1  UNL1        0.1401
     11 O         -28.2055   50.4291   -8.7848 O.3     1  UNL1       -0.4824
     12 C         -28.3833   50.6955  -10.1758 C.3     1  UNL1        0.1375
     13 C         -29.3485   51.8770  -10.3399 C.3     1  UNL1        0.0439
     14 C         -28.9508   49.4424  -10.8555 C.3     1  UNL1        0.0439
     15 C         -26.9571   51.0463  -10.7133 C.3     1  UNL1        0.0709
     16 N         -28.4281   49.3207   -6.1527 N.am    1  UNL1       -0.2806
     17 C         -27.1846   50.0149   -5.9582 C.2     1  UNL1        0.2525
     18 O         -26.7953   50.2831   -4.7884 O.2     1  UNL1       -0.2697
     19 H         -28.8606   49.3110   -7.1010 H       1  UNL1        0.1552
     20 C         -29.3752   47.5477   -4.6648 C.ar    1  UNL1       -0.0051
     21 C         -29.2518   48.9162   -5.0522 C.ar    1  UNL1        0.0464
     22 C         -29.9833   49.9077   -4.3890 C.ar    1  UNL1        0.0143
     23 C         -30.8416   49.5815   -3.3508 C.ar    1  UNL1        0.0012
     24 C         -31.0070   48.2557   -2.9736 C.ar    1  UNL1        0.0036
     25 C         -30.3086   47.2187   -3.6249 C.ar    1  UNL1        0.0686
     26 C         -30.5647   45.7879   -3.1730 C.3     1  UNL1        0.4183
     27 F         -30.9494   44.9726   -4.2243 F       1  UNL1       -0.1659
     28 F         -29.4125   45.2456   -2.6320 F       1  UNL1       -0.1659
     29 F         -31.5772   45.7707   -2.2305 F       1  UNL1       -0.1659
     30 C         -28.6942   46.4517   -6.8630 C.3     1  UNL1        0.0047
     31 C         -28.5257   46.4556   -5.3387 C.3     1  UNL1        0.0235
     32 C         -27.0459   46.4971   -4.9273 C.3     1  UNL1        0.0047
     33 N         -21.3896   52.0457   -9.8781 N.pl3   1  UNL1       -0.2814
     34 H         -21.0223   51.6299  -10.7621 H       1  UNL1        0.1551
     35 C         -20.7476   53.2279   -9.3788 C.ar    1  UNL1        0.0889
     36 C         -21.0267   54.4676   -9.9782 C.ar    1  UNL1        0.1543
     37 F         -21.9085   54.5474  -11.0064 F       1  UNL1       -0.2028
     38 C         -20.4155   55.6328   -9.5064 C.ar    1  UNL1        0.0310
     39 C         -19.5118   55.5693   -8.4442 C.ar    1  UNL1        0.0033
     40 C         -19.2078   54.3391   -7.8571 C.ar    1  UNL1        0.0128
     41 C         -19.8142   53.1653   -8.3211 C.ar    1  UNL1        0.0733
     42 CL        -19.3252   51.6318   -7.6096 Cl      1  UNL1       -0.0809
@<TRIPOS>BOND
     1    30    31    1
     2    31    32    1
     3    31    20    1
     4    20    21   ar
     5    21    16    1
     6    16    17   am
     7    17    18    2
     8    17     1    1
     9     1     2   ar
    10     2     3   ar
    11     3     4   ar
    12     4     5   ar
    13     5    33    1
    14    33    35    1
    15    35    36   ar
    16    36    37    1
    17    36    38   ar
    18    38    39   ar
    19    39    40   ar
    20    40    41   ar
    21    41    42    1
    22     5     6   ar
    23     6     7    1
    24     6     8   ar
    25     8     9   ar
    26     9    10   ar
    27    10    11    1
    28    11    12    1
    29    12    13    1
    30    12    14    1
    31    12    15    1
    32    21    22   ar
    33    22    23   ar
    34    23    24   ar
    35    24    25   ar
    36    25    26    1
    37    26    27    1
    38    26    28    1
    39    26    29    1
    40    25    20   ar
    41    10     1   ar
    42     8     3   ar
    43    15     9    1
    44    41    35   ar
    45    16    19    1
    46    33    34    1
@<TRIPOS>MOLECULE
*****
 42 46 0 0 0
SMALL
GASTEIGER

@<TRIPOS>ATOM
      1 C         -25.3391   50.2621   -7.5991 C.ar    1  UNL1        0.0888
      2 C         -23.9750   50.6025   -7.4069 C.ar    1  UNL1        0.0282
      3 C         -23.3190   51.3253   -8.4120 C.ar    1  UNL1        0.0999
      4 N         -22.0516   51.7728   -8.3967 N.ar    1  UNL1       -0.2135
      5 C         -21.9410   52.4180   -9.5890 C.ar    1  UNL1        0.2018
      6 N         -23.0774   52.3824  -10.3387 N.ar    1  UNL1       -0.2977
      7 C         -23.3202   52.9928  -11.6455 C.3     1  UNL1        0.1332
      8 C         -23.9442   51.6949   -9.5724 C.ar    1  UNL1        0.0789
      9 C         -25.2833   51.3604   -9.7857 C.ar    1  UNL1        0.0327
     10 C         -25.9564   50.6600   -8.8117 C.ar    1  UNL1        0.1401
     11 O         -27.2539   50.4058   -9.2016 O.3     1  UNL1       -0.4824
     12 C         -27.5250   50.9600  -10.4889 C.3     1  UNL1        0.1375
     13 C         -28.6371   52.0091  -10.3582 C.3     1  UNL1        0.0439
     14 C         -27.9603   49.8336  -11.4355 C.3     1  UNL1        0.0439
     15 C         -26.1791   51.6107  -10.9485 C.3     1  UNL1        0.0709
     16 N         -26.6823   50.1449   -5.4443 N.am    1  UNL1       -0.2806
     17 C         -26.0653   49.4898   -6.5651 C.2     1  UNL1        0.2525
     18 O         -26.1388   48.2348   -6.6731 O.2     1  UNL1       -0.2697
     19 H         -26.4242   51.1313   -5.2283 H       1  UNL1        0.1552
     20 C         -28.8121   49.4392   -4.3394 C.ar    1  UNL1       -0.0051
     21 C         -27.3877   49.4152   -4.4327 C.ar    1  UNL1        0.0464
     22 C         -26.6293   48.7086   -3.4929 C.ar    1  UNL1        0.0143
     23 C         -27.2429   48.0250   -2.4551 C.ar    1  UNL1        0.0012
     24 C         -28.6242   48.0573   -2.3198 C.ar    1  UNL1        0.0036
     25 C         -29.4304   48.7726   -3.2285 C.ar    1  UNL1        0.0686
     26 C         -30.9348   48.7839   -2.9972 C.3     1  UNL1        0.4183
     27 F         -31.4450   50.0709   -2.9631 F       1  UNL1       -0.1659
     28 F         -31.5794   48.1126   -4.0211 F       1  UNL1       -0.1659
     29 F         -31.2250   48.1805   -1.7866 F       1  UNL1       -0.1659
     30 C         -29.2636   51.6262   -5.5686 C.3     1  UNL1        0.0047
     31 C         -29.6621   50.1544   -5.4046 C.3     1  UNL1        0.0235
     32 C         -29.6932   49.4170   -6.7523 C.3     1  UNL1        0.0047
     33 N         -20.7496   53.1180   -9.9785 N.pl3   1  UNL1       -0.2814
     34 H         -20.4432   53.0707  -10.9751 H       1  UNL1        0.1551
     35 C         -20.1448   54.1134   -9.1403 C.ar    1  UNL1        0.0889
     36 C         -20.4701   55.4663   -9.3346 C.ar    1  UNL1        0.1543
     37 F         -21.3612   55.8249  -10.2931 F       1  UNL1       -0.2028
     38 C         -19.8958   56.4528   -8.5279 C.ar    1  UNL1        0.0310
     39 C         -18.9833   56.1000   -7.5320 C.ar    1  UNL1        0.0033
     40 C         -18.6336   54.7608   -7.3464 C.ar    1  UNL1        0.0128
     41 C         -19.2027   53.7638   -8.1483 C.ar    1  UNL1        0.0733
     42 CL        -18.6569   52.1044   -7.9358 Cl      1  UNL1       -0.0809
@<TRIPOS>BOND
     1    30    31    1
     2    31    32    1
     3    31    20    1
     4    20    21   ar
     5    21    16    1
     6    16    17   am
     7    17    18    2
     8    17     1    1
     9     1     2   ar
    10     2     3   ar
    11     3     4   ar
    12     4     5   ar
    13     5    33    1
    14    33    35    1
    15    35    36   ar
    16    36    37    1
    17    36    38   ar
    18    38    39   ar
    19    39    40   ar
    20    40    41   ar
    21    41    42    1
    22     5     6   ar
    23     6     7    1
    24     6     8   ar
    25     8     9   ar
    26     9    10   ar
    27    10    11    1
    28    11    12    1
    29    12    13    1
    30    12    14    1
    31    12    15    1
    32    21    22   ar
    33    22    23   ar
    34    23    24   ar
    35    24    25   ar
    36    25    26    1
    37    26    27    1
    38    26    28    1
    39    26    29    1
    40    25    20   ar
    41    10     1   ar
    42     8     3   ar
    43    15     9    1
    44    41    35   ar
    45    16    19    1
    46    33    34    1
