@<TRIPOS>MOLECULE
*****
 49 54 0 0 0
SMALL
GASTEIGER

@<TRIPOS>ATOM
      1 O          57.7442   82.9796   13.1723 O.2     1  UNL1       -0.2701
      2 C          58.9981   82.9681   13.0338 C.2     1  UNL1        0.2483
      3 N          59.6585   81.7659   12.6096 N.am    1  UNL1       -0.2945
      4 H          60.6342   81.8354   12.2422 H       1  UNL1        0.1501
      5 C          59.7672   84.2080   13.2791 C.ar    1  UNL1        0.0808
      6 C          61.1093   84.2848   12.8743 C.ar    1  UNL1        0.0080
      7 C          61.8558   85.4434   13.1031 C.ar    1  UNL1        0.0148
      8 C          61.2741   86.5548   13.7362 C.ar    1  UNL1        0.0502
      9 C          59.9236   86.4854   14.1209 C.ar    1  UNL1        0.0443
     10 C          59.1745   85.3271   13.8933 C.ar    1  UNL1        0.1457
     11 F          57.8590   85.3267   14.2243 F       1  UNL1       -0.2040
     12 N          62.0449   87.7540   13.9685 N.pl3   1  UNL1       -0.3040
     13 C          61.8864   88.5026   15.2265 C.3     1  UNL1        0.1122
     14 C          63.2171   89.1350   15.6589 C.3     1  UNL1        0.1122
     15 N          63.9197   89.7607   14.5287 N.pl3   1  UNL1       -0.3041
     16 C          63.3132   89.7394   13.1930 C.3     1  UNL1        0.1122
     17 C          62.8475   88.3192   12.8698 C.3     1  UNL1        0.1122
     18 C          65.2373   90.3068   14.7263 C.ar    1  UNL1        0.0479
     19 C          66.2433   90.0975   13.7697 C.ar    1  UNL1        0.0145
     20 C          67.5265   90.6155   13.9658 C.ar    1  UNL1        0.0051
     21 C          67.8235   91.3669   15.1156 C.ar    1  UNL1        0.0715
     22 C          66.8243   91.5483   16.0871 C.ar    1  UNL1        0.0051
     23 C          65.5415   91.0289   15.8907 C.ar    1  UNL1        0.0145
     24 C          69.2205   91.8835   15.3509 C.3     1  UNL1        0.4186
     25 F          69.9798   91.7823   14.1979 F       1  UNL1       -0.1659
     26 F          69.1917   93.2134   15.7339 F       1  UNL1       -0.1659
     27 F          69.8183   91.1396   16.3508 F       1  UNL1       -0.1659
     28 C          58.9536   80.4840   12.5116 C.3     1  UNL1        0.1535
     29 C          58.5668   80.2231   11.0808 C.2     1  UNL1        0.2443
     30 O          57.9170   79.1795   10.8004 O.2     1  UNL1       -0.2730
     31 N          58.9014   81.1719   10.0537 N.am    1  UNL1       -0.2825
     32 H          59.1856   82.1333   10.3488 H       1  UNL1        0.1549
     33 C          58.7660   80.9157    8.6457 C.ar    1  UNL1        0.0535
     34 C          57.5397   80.5214    8.0840 C.ar    1  UNL1        0.0353
     35 C          57.4628   80.2580    6.7140 C.ar    1  UNL1        0.1002
     36 N          58.5705   80.3687    5.9341 N.ar    1  UNL1       -0.2422
     37 C          59.7735   80.7296    6.4537 C.ar    1  UNL1        0.1002
     38 C          59.8944   81.0006    7.8187 C.ar    1  UNL1        0.0353
     39 C          59.8248   79.3324   13.0443 C.3     1  UNL1        0.0569
     40 C          61.2177   79.8024   13.3533 C.ar    1  UNL1       -0.0017
     41 C          61.8095   79.8543   14.6119 C.ar    1  UNL1        0.0681
     42 N          63.0377   80.4146   14.5338 N.ar    1  UNL1       -0.3523
     43 C          63.2232   80.7252   13.2391 C.ar    1  UNL1        0.0563
     44 C          64.3341   81.3477   12.6715 C.ar    1  UNL1        0.0170
     45 C          64.3104   81.6024   11.2884 C.ar    1  UNL1        0.0015
     46 C          63.1892   81.2346   10.5122 C.ar    1  UNL1        0.0001
     47 C          62.0813   80.6087   11.1117 C.ar    1  UNL1        0.0012
     48 C          62.1334   80.3684   12.4860 C.ar    1  UNL1        0.0131
     49 H          63.6978   80.5859   15.3246 H       1  UNL1        0.1660
@<TRIPOS>BOND
     1     1     2    2
     2     2     3   am
     3     3    28    1
     4    28    39    1
     5    39    40    1
     6    40    41   ar
     7    41    42   ar
     8    42    43   ar
     9    43    44   ar
    10    44    45   ar
    11    45    46   ar
    12    46    47   ar
    13    47    48   ar
    14    28    29    1
    15    29    30    2
    16    29    31   am
    17    31    33    1
    18    33    34   ar
    19    34    35   ar
    20    35    36   ar
    21    36    37   ar
    22    37    38   ar
    23     2     5    1
    24     5     6   ar
    25     6     7   ar
    26     7     8   ar
    27     8    12    1
    28    12    13    1
    29    13    14    1
    30    14    15    1
    31    15    18    1
    32    18    19   ar
    33    19    20   ar
    34    20    21   ar
    35    21    24    1
    36    24    25    1
    37    24    26    1
    38    24    27    1
    39    21    22   ar
    40    22    23   ar
    41    15    16    1
    42    16    17    1
    43     8     9   ar
    44     9    10   ar
    45    10    11    1
    46    48    40   ar
    47    38    33   ar
    48    10     5   ar
    49    48    43   ar
    50    17    12    1
    51    23    18   ar
    52     3     4    1
    53    42    49    1
    54    31    32    1
@<TRIPOS>MOLECULE
*****
 49 54 0 0 0
SMALL
GASTEIGER

@<TRIPOS>ATOM
      1 O          58.8356   84.8263    7.6813 O.2     1  UNL1       -0.2701
      2 C          59.7402   84.5131    8.5030 C.2     1  UNL1        0.2483
      3 N          60.0498   83.1298    8.7308 N.am    1  UNL1       -0.2945
      4 H          60.9569   82.8905    9.1908 H       1  UNL1        0.1501
      5 C          60.4933   85.5815    9.1961 C.ar    1  UNL1        0.0808
      6 C          60.9925   85.3535   10.4883 C.ar    1  UNL1        0.0080
      7 C          61.6998   86.3514   11.1636 C.ar    1  UNL1        0.0148
      8 C          61.9299   87.5983   10.5583 C.ar    1  UNL1        0.0502
      9 C          61.4492   87.8180    9.2554 C.ar    1  UNL1        0.0443
     10 C          60.7411   86.8212    8.5776 C.ar    1  UNL1        0.1457
     11 F          60.3502   87.0543    7.2997 F       1  UNL1       -0.2040
     12 N          62.6649   88.6281   11.2549 N.pl3   1  UNL1       -0.3040
     13 C          62.2045   89.1040   12.5700 C.3     1  UNL1        0.1122
     14 C          63.3949   89.4794   13.4643 C.3     1  UNL1        0.1122
     15 N          64.4099   90.2504   12.7310 N.pl3   1  UNL1       -0.3041
     16 C          64.1923   90.5813   11.3183 C.3     1  UNL1        0.1122
     17 C          63.7644   89.3228   10.5625 C.3     1  UNL1        0.1122
     18 C          65.6480   90.5935   13.3813 C.ar    1  UNL1        0.0479
     19 C          65.6616   90.9501   14.7391 C.ar    1  UNL1        0.0145
     20 C          66.8603   91.2962   15.3688 C.ar    1  UNL1        0.0051
     21 C          68.0712   91.2768   14.6559 C.ar    1  UNL1        0.0715
     22 C          68.0512   90.9506   13.2891 C.ar    1  UNL1        0.0051
     23 C          66.8517   90.6057   12.6597 C.ar    1  UNL1        0.0145
     24 C          69.3568   91.6980   15.3220 C.3     1  UNL1        0.4186
     25 F          69.2439   92.9777   15.8375 F       1  UNL1       -0.1659
     26 F          69.6727   90.8399   16.3613 F       1  UNL1       -0.1659
     27 F          70.3796   91.6753   14.3924 F       1  UNL1       -0.1659
     28 C          59.2238   82.0476    8.1864 C.3     1  UNL1        0.1535
     29 C          59.9660   80.7420    8.2830 C.2     1  UNL1        0.2443
     30 O          59.7501   79.8472    7.4212 O.2     1  UNL1       -0.2730
     31 N          60.9369   80.5340    9.3228 N.am    1  UNL1       -0.2825
     32 H          61.2882   81.3717    9.8395 H       1  UNL1        0.1549
     33 C          61.5346   79.2617    9.6237 C.ar    1  UNL1        0.0535
     34 C          62.7217   78.8406    9.0007 C.ar    1  UNL1        0.0353
     35 C          63.2513   77.5841    9.3059 C.ar    1  UNL1        0.1002
     36 N          62.6136   76.7702   10.1881 N.ar    1  UNL1       -0.2422
     37 C          61.4541   77.1438   10.7911 C.ar    1  UNL1        0.1002
     38 C          60.8900   78.3912   10.5131 C.ar    1  UNL1        0.0353
     39 C          57.8800   81.9505    8.9306 C.3     1  UNL1        0.0569
     40 C          58.0863   81.6547   10.3889 C.ar    1  UNL1       -0.0017
     41 C          58.4032   82.5788   11.3801 C.ar    1  UNL1        0.0681
     42 N          58.6054   81.9534   12.5619 N.ar    1  UNL1       -0.3523
     43 C          58.4279   80.6423   12.3241 C.ar    1  UNL1        0.0563
     44 C          58.5561   79.5946   13.2349 C.ar    1  UNL1        0.0170
     45 C          58.3476   78.2852   12.7652 C.ar    1  UNL1        0.0015
     46 C          58.0205   78.0545   11.4107 C.ar    1  UNL1        0.0001
     47 C          57.8988   79.1308   10.5133 C.ar    1  UNL1        0.0012
     48 C          58.1111   80.4189   11.0080 C.ar    1  UNL1        0.0131
     49 H          58.8644   82.4006   13.4693 H       1  UNL1        0.1660
@<TRIPOS>BOND
     1     1     2    2
     2     2     3   am
     3     3    28    1
     4    28    39    1
     5    39    40    1
     6    40    41   ar
     7    41    42   ar
     8    42    43   ar
     9    43    44   ar
    10    44    45   ar
    11    45    46   ar
    12    46    47   ar
    13    47    48   ar
    14    28    29    1
    15    29    30    2
    16    29    31   am
    17    31    33    1
    18    33    34   ar
    19    34    35   ar
    20    35    36   ar
    21    36    37   ar
    22    37    38   ar
    23     2     5    1
    24     5     6   ar
    25     6     7   ar
    26     7     8   ar
    27     8    12    1
    28    12    13    1
    29    13    14    1
    30    14    15    1
    31    15    18    1
    32    18    19   ar
    33    19    20   ar
    34    20    21   ar
    35    21    24    1
    36    24    25    1
    37    24    26    1
    38    24    27    1
    39    21    22   ar
    40    22    23   ar
    41    15    16    1
    42    16    17    1
    43     8     9   ar
    44     9    10   ar
    45    10    11    1
    46    48    40   ar
    47    38    33   ar
    48    10     5   ar
    49    48    43   ar
    50    17    12    1
    51    23    18   ar
    52     3     4    1
    53    42    49    1
    54    31    32    1
@<TRIPOS>MOLECULE
*****
 49 54 0 0 0
SMALL
GASTEIGER

@<TRIPOS>ATOM
      1 O          58.9767   84.9130    7.3295 O.2     1  UNL1       -0.2701
      2 C          59.7935   84.6177    8.2445 C.2     1  UNL1        0.2483
      3 N          60.0078   83.2415    8.5932 N.am    1  UNL1       -0.2945
      4 H          60.8603   82.9930    9.1439 H       1  UNL1        0.1501
      5 C          60.5451   85.6964    8.9230 C.ar    1  UNL1        0.0808
      6 C          61.2068   85.4281   10.1318 C.ar    1  UNL1        0.0080
      7 C          61.9159   86.4342   10.7928 C.ar    1  UNL1        0.0148
      8 C          61.9851   87.7306   10.2555 C.ar    1  UNL1        0.0502
      9 C          61.3411   87.9928    9.0335 C.ar    1  UNL1        0.0443
     10 C          60.6307   86.9879    8.3702 C.ar    1  UNL1        0.1457
     11 F          60.0777   87.2689    7.1638 F       1  UNL1       -0.2040
     12 N          62.7219   88.7694   10.9368 N.pl3   1  UNL1       -0.3040
     13 C          62.1960   89.3540   12.1816 C.3     1  UNL1        0.1122
     14 C          63.3389   89.7324   13.1347 C.3     1  UNL1        0.1122
     15 N          64.4411   90.4037   12.4298 N.pl3   1  UNL1       -0.3041
     16 C          64.3402   90.6484   10.9867 C.3     1  UNL1        0.1122
     17 C          63.9016   89.3633   10.2836 C.3     1  UNL1        0.1122
     18 C          65.6468   90.7312   13.1456 C.ar    1  UNL1        0.0479
     19 C          66.8866   90.7285   12.4869 C.ar    1  UNL1        0.0145
     20 C          68.0595   91.0332   13.1829 C.ar    1  UNL1        0.0051
     21 C          68.0128   91.3623   14.5483 C.ar    1  UNL1        0.0715
     22 C          66.7751   91.3335   15.2135 C.ar    1  UNL1        0.0051
     23 C          65.6025   91.0274   14.5168 C.ar    1  UNL1        0.0145
     24 C          69.2833   91.6426   15.3106 C.3     1  UNL1        0.4186
     25 F          70.3860   91.5280   14.4818 F       1  UNL1       -0.1659
     26 F          69.2670   92.9242   15.8334 F       1  UNL1       -0.1659
     27 F          69.4020   90.7350   16.3465 F       1  UNL1       -0.1659
     28 C          59.1708   82.1636    8.0574 C.3     1  UNL1        0.1535
     29 C          59.8642   80.8406    8.2412 C.2     1  UNL1        0.2443
     30 O          59.7289   79.9482    7.3607 O.2     1  UNL1       -0.2730
     31 N          60.7010   80.6126    9.3879 N.am    1  UNL1       -0.2825
     32 H          61.0099   81.4434    9.9417 H       1  UNL1        0.1549
     33 C          61.2278   79.3273    9.7577 C.ar    1  UNL1        0.0535
     34 C          62.3920   78.8105    9.1640 C.ar    1  UNL1        0.0353
     35 C          62.8516   77.5448    9.5368 C.ar    1  UNL1        0.1002
     36 N          62.1681   76.8138   10.4566 N.ar    1  UNL1       -0.2422
     37 C          61.0290   77.2805   11.0328 C.ar    1  UNL1        0.1002
     38 C          60.5344   78.5404   10.6875 C.ar    1  UNL1        0.0353
     39 C          57.7933   82.1406    8.7435 C.3     1  UNL1        0.0569
     40 C          57.9301   82.0020   10.2331 C.ar    1  UNL1       -0.0017
     41 C          57.9972   80.8091   10.9468 C.ar    1  UNL1        0.0681
     42 N          58.0252   81.0547   12.2762 N.ar    1  UNL1       -0.3523
     43 C          57.9674   82.3912   12.4088 C.ar    1  UNL1        0.0563
     44 C          57.9435   83.1211   13.5964 C.ar    1  UNL1        0.0170
     45 C          57.8565   84.5221   13.5060 C.ar    1  UNL1        0.0015
     46 C          57.7949   85.1553   12.2451 C.ar    1  UNL1        0.0001
     47 C          57.8197   84.3937   11.0628 C.ar    1  UNL1        0.0012
     48 C          57.9067   83.0055   11.1836 C.ar    1  UNL1        0.0131
     49 H          58.0656   80.3459   13.0419 H       1  UNL1        0.1660
@<TRIPOS>BOND
     1     1     2    2
     2     2     3   am
     3     3    28    1
     4    28    39    1
     5    39    40    1
     6    40    41   ar
     7    41    42   ar
     8    42    43   ar
     9    43    44   ar
    10    44    45   ar
    11    45    46   ar
    12    46    47   ar
    13    47    48   ar
    14    28    29    1
    15    29    30    2
    16    29    31   am
    17    31    33    1
    18    33    34   ar
    19    34    35   ar
    20    35    36   ar
    21    36    37   ar
    22    37    38   ar
    23     2     5    1
    24     5     6   ar
    25     6     7   ar
    26     7     8   ar
    27     8    12    1
    28    12    13    1
    29    13    14    1
    30    14    15    1
    31    15    18    1
    32    18    19   ar
    33    19    20   ar
    34    20    21   ar
    35    21    24    1
    36    24    25    1
    37    24    26    1
    38    24    27    1
    39    21    22   ar
    40    22    23   ar
    41    15    16    1
    42    16    17    1
    43     8     9   ar
    44     9    10   ar
    45    10    11    1
    46    48    40   ar
    47    38    33   ar
    48    10     5   ar
    49    48    43   ar
    50    17    12    1
    51    23    18   ar
    52     3     4    1
    53    42    49    1
    54    31    32    1
@<TRIPOS>MOLECULE
*****
 49 54 0 0 0
SMALL
GASTEIGER

@<TRIPOS>ATOM
      1 O          59.3245   83.1198    9.4075 O.2     1  UNL1       -0.2701
      2 C          59.0510   84.2754    9.8336 C.2     1  UNL1        0.2483
      3 N          58.6055   84.4501   11.1872 N.am    1  UNL1       -0.2945
      4 H          58.6430   85.4069   11.6054 H       1  UNL1        0.1501
      5 C          59.2267   85.4400    8.9381 C.ar    1  UNL1        0.0808
      6 C          58.4465   85.5466    7.7757 C.ar    1  UNL1        0.0080
      7 C          58.6018   86.6342    6.9125 C.ar    1  UNL1        0.0148
      8 C          59.5365   87.6441    7.1966 C.ar    1  UNL1        0.0502
      9 C          60.3013   87.5481    8.3724 C.ar    1  UNL1        0.0443
     10 C          60.1481   86.4608    9.2377 C.ar    1  UNL1        0.1457
     11 F          60.8616   86.4406   10.3911 F       1  UNL1       -0.2040
     12 N          59.6935   88.7705    6.3063 N.pl3   1  UNL1       -0.3040
     13 C          60.9422   89.5507    6.3143 C.3     1  UNL1        0.1122
     14 C          61.2760   90.0644    4.9063 C.3     1  UNL1        0.1122
     15 N          60.0904   90.6043    4.2242 N.pl3   1  UNL1       -0.3041
     16 C          58.7963   90.6175    4.9151 C.3     1  UNL1        0.1122
     17 C          58.5343   89.2414    5.5282 C.3     1  UNL1        0.1122
     18 C          60.1926   91.0295    2.8523 C.ar    1  UNL1        0.0479
     19 C          61.4272   90.9849    2.1852 C.ar    1  UNL1        0.0145
     20 C          61.5312   91.4096    0.8578 C.ar    1  UNL1        0.0051
     21 C          60.3983   91.8723    0.1669 C.ar    1  UNL1        0.0715
     22 C          59.1700   91.9463    0.8459 C.ar    1  UNL1        0.0051
     23 C          59.0671   91.5224    2.1739 C.ar    1  UNL1        0.0145
     24 C          60.5200   92.3769   -1.2489 C.3     1  UNL1        0.4186
     25 F          60.4826   93.7603   -1.2797 F       1  UNL1       -0.1659
     26 F          61.7145   91.9643   -1.8137 F       1  UNL1       -0.1659
     27 F          59.4713   91.8810   -2.0005 F       1  UNL1       -0.1659
     28 C          58.2693   83.3124   12.0488 C.3     1  UNL1        0.1535
     29 C          59.4971   82.4766   12.2915 C.2     1  UNL1        0.2443
     30 O          59.3618   81.2764   12.6537 O.2     1  UNL1       -0.2730
     31 N          60.8064   83.0300   12.0754 N.am    1  UNL1       -0.2825
     32 H          60.8795   83.9135   11.5220 H       1  UNL1        0.1549
     33 C          62.0282   82.3889   12.4787 C.ar    1  UNL1        0.0535
     34 C          62.1750   81.8225   13.7564 C.ar    1  UNL1        0.0353
     35 C          63.3907   81.2330   14.1128 C.ar    1  UNL1        0.1002
     36 N          64.4275   81.2215   13.2340 N.ar    1  UNL1       -0.2422
     37 C          64.3199   81.7785   11.9989 C.ar    1  UNL1        0.1002
     38 C          63.1225   82.3793   11.6031 C.ar    1  UNL1        0.0353
     39 C          57.6785   83.7890   13.3877 C.3     1  UNL1        0.0569
     40 C          58.2275   85.1321   13.7769 C.ar    1  UNL1       -0.0017
     41 C          57.7141   86.3711   13.4049 C.ar    1  UNL1        0.0681
     42 N          58.5093   87.3670   13.8571 N.ar    1  UNL1       -0.3523
     43 C          59.5246   86.7681   14.5032 C.ar    1  UNL1        0.0563
     44 C          60.6128   87.3841   15.1196 C.ar    1  UNL1        0.0170
     45 C          61.5809   86.5602   15.7220 C.ar    1  UNL1        0.0015
     46 C          61.4420   85.1550   15.6942 C.ar    1  UNL1        0.0001
     47 C          60.3339   84.5604   15.0639 C.ar    1  UNL1        0.0012
     48 C          59.3894   85.4031   14.4750 C.ar    1  UNL1        0.0131
     49 H          58.3688   88.3920   13.7153 H       1  UNL1        0.1660
@<TRIPOS>BOND
     1     1     2    2
     2     2     3   am
     3     3    28    1
     4    28    39    1
     5    39    40    1
     6    40    41   ar
     7    41    42   ar
     8    42    43   ar
     9    43    44   ar
    10    44    45   ar
    11    45    46   ar
    12    46    47   ar
    13    47    48   ar
    14    28    29    1
    15    29    30    2
    16    29    31   am
    17    31    33    1
    18    33    34   ar
    19    34    35   ar
    20    35    36   ar
    21    36    37   ar
    22    37    38   ar
    23     2     5    1
    24     5     6   ar
    25     6     7   ar
    26     7     8   ar
    27     8    12    1
    28    12    13    1
    29    13    14    1
    30    14    15    1
    31    15    18    1
    32    18    19   ar
    33    19    20   ar
    34    20    21   ar
    35    21    24    1
    36    24    25    1
    37    24    26    1
    38    24    27    1
    39    21    22   ar
    40    22    23   ar
    41    15    16    1
    42    16    17    1
    43     8     9   ar
    44     9    10   ar
    45    10    11    1
    46    48    40   ar
    47    38    33   ar
    48    10     5   ar
    49    48    43   ar
    50    17    12    1
    51    23    18   ar
    52     3     4    1
    53    42    49    1
    54    31    32    1
