@<TRIPOS>MOLECULE
*****
 46 51 0 0 0
SMALL
GASTEIGER

@<TRIPOS>ATOM
      1 C          11.6732   81.0330   25.3068 C.ar    1  UNL1        0.0702
      2 C          12.6197   81.6257   26.1567 C.ar    1  UNL1        0.0191
      3 C          13.3960   82.6942   25.7051 C.ar    1  UNL1        0.0356
      4 C          13.2177   83.1804   24.3985 C.ar    1  UNL1        0.1318
      5 N          12.2718   82.6051   23.6038 N.ar    1  UNL1       -0.2279
      6 C          11.5042   81.5648   24.0227 C.ar    1  UNL1        0.1149
      7 N          13.9998   84.2851   23.8949 N.pl3   1  UNL1       -0.2932
      8 C          15.0342   84.0392   22.8784 C.3     1  UNL1        0.0923
      9 C          15.1836   85.2649   21.9740 C.3     1  UNL1        0.0252
     10 C          15.5539   86.5416   22.7716 C.3     1  UNL1        0.0472
     11 C          15.0941   86.4823   24.2502 C.3     1  UNL1        0.0252
     12 C          13.8256   85.6420   24.4418 C.3     1  UNL1        0.0923
     13 C          15.0025   87.8028   22.0742 C.3     1  UNL1        0.2054
     14 O          13.6694   87.5929   21.6042 O.3     1  UNL1       -0.4755
     15 C          13.1647   88.0049   20.3597 C.ar    1  UNL1        0.1388
     16 C          11.8771   88.5489   20.3218 C.ar    1  UNL1        0.0369
     17 C          11.3240   88.9776   19.1147 C.ar    1  UNL1        0.0033
     18 C          12.0519   88.8653   17.9285 C.ar    1  UNL1        0.0066
     19 C          13.3467   88.3176   17.9380 C.ar    1  UNL1        0.0785
     20 C          13.9016   87.8997   19.1627 C.ar    1  UNL1        0.0433
     21 C          14.1364   88.1991   16.6874 C.2     1  UNL1        0.3381
     22 O          14.7581   89.2008   16.2430 O.2     1  UNL1       -0.2451
     23 O          14.2266   86.9967   15.9870 O.3     1  UNL1       -0.4771
     24 H          13.8406   86.1303   16.3388 H       1  UNL1        0.2954
     25 C          11.3162   78.6201   26.0107 C.2     1  UNL1        0.2839
     26 O          12.4651   78.2712   25.6273 O.2     1  UNL1       -0.2665
     27 N          10.8366   79.9481   25.7439 N.am    1  UNL1       -0.2766
     28 H           9.8059   80.1156   25.7893 H       1  UNL1        0.1553
     29 C           7.4872   74.7836   28.5927 C.ar    1  UNL1       -0.0001
     30 C           8.6701   74.4499   29.2981 C.ar    1  UNL1        0.0031
     31 C           9.8788   75.1114   29.0196 C.ar    1  UNL1        0.0375
     32 C           9.8698   76.1029   28.0429 C.ar    1  UNL1        0.1452
     33 O          10.8821   76.8301   27.6378 O.2     1  UNL1       -0.4492
     34 C          10.4432   77.6508   26.6997 C.ar    1  UNL1        0.1946
     35 C           9.0756   77.4454   26.4847 C.ar    1  UNL1        0.0202
     36 C           8.1838   78.1560   25.5117 C.3     1  UNL1        0.0345
     37 C           8.7273   76.4395   27.3651 C.ar    1  UNL1        0.0337
     38 C           7.5110   75.8035   27.6177 C.ar    1  UNL1        0.0028
     39 C           5.3981   74.4778   29.9904 C.ar    1  UNL1       -0.0222
     40 C           4.2126   73.7622   30.2378 C.ar    1  UNL1       -0.0043
     41 C           3.8377   72.6987   29.4144 C.ar    1  UNL1       -0.0003
     42 C           4.6475   72.3246   28.3426 C.ar    1  UNL1       -0.0000
     43 C           5.8345   73.0135   28.0889 C.ar    1  UNL1       -0.0003
     44 C           6.2200   74.0927   28.9004 C.ar    1  UNL1       -0.0040
     45 C           5.0927   76.8800   30.6180 C.3     1  UNL1        0.0050
     46 C           5.8003   75.5712   30.9551 C.3     1  UNL1        0.0264
@<TRIPOS>BOND
     1    45    46    1
     2    46    39    1
     3    39    40   ar
     4    40    41   ar
     5    41    42   ar
     6    42    43   ar
     7    43    44   ar
     8    44    29    1
     9    29    30   ar
    10    30    31   ar
    11    31    32   ar
    12    32    33   ar
    13    33    34   ar
    14    34    25    1
    15    25    26    2
    16    25    27   am
    17    27     1    1
    18     1     2   ar
    19     2     3   ar
    20     3     4   ar
    21     4     7    1
    22     7     8    1
    23     8     9    1
    24     9    10    1
    25    10    13    1
    26    13    14    1
    27    14    15    1
    28    15    16   ar
    29    16    17   ar
    30    17    18   ar
    31    18    19   ar
    32    19    21    1
    33    21    22    2
    34    21    23    1
    35    19    20   ar
    36    10    11    1
    37    11    12    1
    38     4     5   ar
    39     5     6   ar
    40    34    35   ar
    41    35    36    1
    42    35    37   ar
    43    37    38   ar
    44    44    39   ar
    45    38    29   ar
    46    37    32   ar
    47     6     1   ar
    48    12     7    1
    49    20    15   ar
    50    27    28    1
    51    23    24    1
@<TRIPOS>MOLECULE
*****
 46 51 0 0 0
SMALL
GASTEIGER

@<TRIPOS>ATOM
      1 C          11.5505   80.9492   25.3120 C.ar    1  UNL1        0.0702
      2 C          12.4479   81.5891   26.1806 C.ar    1  UNL1        0.0191
      3 C          13.2267   82.6539   25.7246 C.ar    1  UNL1        0.0356
      4 C          13.0999   83.0890   24.3941 C.ar    1  UNL1        0.1318
      5 N          12.2003   82.4684   23.5799 N.ar    1  UNL1       -0.2279
      6 C          11.4313   81.4306   24.0027 C.ar    1  UNL1        0.1149
      7 N          13.8863   84.1881   23.8851 N.pl3   1  UNL1       -0.2932
      8 C          15.0971   83.9117   23.0970 C.3     1  UNL1        0.0923
      9 C          15.3247   85.0279   22.0749 C.3     1  UNL1        0.0252
     10 C          15.4663   86.4184   22.7456 C.3     1  UNL1        0.0472
     11 C          14.7581   86.4980   24.1216 C.3     1  UNL1        0.0252
     12 C          13.5320   85.5810   24.2095 C.3     1  UNL1        0.0923
     13 C          14.9669   87.5344   21.8043 C.3     1  UNL1        0.2054
     14 O          13.9516   87.0513   20.9224 O.3     1  UNL1       -0.4755
     15 C          14.0690   86.9253   19.5282 C.ar    1  UNL1        0.1388
     16 C          13.7789   88.0446   18.7419 C.ar    1  UNL1        0.0369
     17 C          13.8803   87.9798   17.3518 C.ar    1  UNL1        0.0033
     18 C          14.2712   86.7924   16.7299 C.ar    1  UNL1        0.0066
     19 C          14.5640   85.6510   17.4968 C.ar    1  UNL1        0.0785
     20 C          14.4715   85.7296   18.8995 C.ar    1  UNL1        0.0433
     21 C          14.9889   84.3841   16.8516 C.2     1  UNL1        0.3381
     22 O          14.2402   83.3724   16.9068 O.2     1  UNL1       -0.2451
     23 O          16.1979   84.2793   16.1646 O.3     1  UNL1       -0.4771
     24 H          16.7980   85.0753   15.9922 H       1  UNL1        0.2954
     25 C          11.1913   78.5398   26.0268 C.2     1  UNL1        0.2839
     26 O          12.3417   78.1892   25.6496 O.2     1  UNL1       -0.2665
     27 N          10.7125   79.8663   25.7514 N.am    1  UNL1       -0.2766
     28 H           9.6816   80.0338   25.7920 H       1  UNL1        0.1553
     29 C           7.3550   74.7111   28.6096 C.ar    1  UNL1       -0.0001
     30 C           8.5296   74.3987   29.3382 C.ar    1  UNL1        0.0031
     31 C           9.7369   75.0661   29.0680 C.ar    1  UNL1        0.0375
     32 C           9.7348   76.0421   28.0758 C.ar    1  UNL1        0.1452
     33 O          10.7470   76.7716   27.6749 O.2     1  UNL1       -0.4492
     34 C          10.3159   77.5739   26.7175 C.ar    1  UNL1        0.1946
     35 C           8.9536   77.3534   26.4847 C.ar    1  UNL1        0.0202
     36 C           8.0711   78.0410   25.4871 C.3     1  UNL1        0.0345
     37 C           8.6001   76.3583   27.3753 C.ar    1  UNL1        0.0337
     38 C           7.3854   75.7158   27.6191 C.ar    1  UNL1        0.0028
     39 C           5.2286   74.4325   29.9557 C.ar    1  UNL1       -0.0222
     40 C           4.0464   73.7096   30.1980 C.ar    1  UNL1       -0.0043
     41 C           3.7124   72.6061   29.4104 C.ar    1  UNL1       -0.0003
     42 C           4.5601   72.1993   28.3805 C.ar    1  UNL1       -0.0000
     43 C           5.7442   72.8953   28.1332 C.ar    1  UNL1       -0.0003
     44 C           6.0890   74.0142   28.9085 C.ar    1  UNL1       -0.0040
     45 C           4.8531   76.8490   30.4823 C.3     1  UNL1        0.0050
     46 C           5.5852   75.5723   30.8840 C.3     1  UNL1        0.0264
@<TRIPOS>BOND
     1    45    46    1
     2    46    39    1
     3    39    40   ar
     4    40    41   ar
     5    41    42   ar
     6    42    43   ar
     7    43    44   ar
     8    44    29    1
     9    29    30   ar
    10    30    31   ar
    11    31    32   ar
    12    32    33   ar
    13    33    34   ar
    14    34    25    1
    15    25    26    2
    16    25    27   am
    17    27     1    1
    18     1     2   ar
    19     2     3   ar
    20     3     4   ar
    21     4     7    1
    22     7     8    1
    23     8     9    1
    24     9    10    1
    25    10    13    1
    26    13    14    1
    27    14    15    1
    28    15    16   ar
    29    16    17   ar
    30    17    18   ar
    31    18    19   ar
    32    19    21    1
    33    21    22    2
    34    21    23    1
    35    19    20   ar
    36    10    11    1
    37    11    12    1
    38     4     5   ar
    39     5     6   ar
    40    34    35   ar
    41    35    36    1
    42    35    37   ar
    43    37    38   ar
    44    44    39   ar
    45    38    29   ar
    46    37    32   ar
    47     6     1   ar
    48    12     7    1
    49    20    15   ar
    50    27    28    1
    51    23    24    1
@<TRIPOS>MOLECULE
*****
 46 51 0 0 0
SMALL
GASTEIGER

@<TRIPOS>ATOM
      1 C          11.7303   80.9902   25.0392 C.ar    1  UNL1        0.0702
      2 C          13.1289   80.9018   25.1124 C.ar    1  UNL1        0.0191
      3 C          13.9202   81.9963   24.7600 C.ar    1  UNL1        0.0356
      4 C          13.3090   83.1909   24.3418 C.ar    1  UNL1        0.1318
      5 N          11.9483   83.2589   24.3072 N.ar    1  UNL1       -0.2279
      6 C          11.1584   82.2063   24.6466 C.ar    1  UNL1        0.1149
      7 N          14.0928   84.3457   23.9708 N.pl3   1  UNL1       -0.2932
      8 C          15.1328   84.2170   22.9385 C.3     1  UNL1        0.0923
      9 C          15.2857   85.5373   22.1796 C.3     1  UNL1        0.0252
     10 C          15.6507   86.7156   23.1188 C.3     1  UNL1        0.0472
     11 C          15.1832   86.4888   24.5787 C.3     1  UNL1        0.0252
     12 C          13.9145   85.6319   24.6670 C.3     1  UNL1        0.0923
     13 C          15.1018   88.0475   22.5658 C.3     1  UNL1        0.2054
     14 O          15.1686   88.0818   21.1388 O.3     1  UNL1       -0.4755
     15 C          14.0807   88.2776   20.2719 C.ar    1  UNL1        0.1388
     16 C          12.7955   88.2806   20.8228 C.ar    1  UNL1        0.0369
     17 C          11.6769   88.4727   20.0112 C.ar    1  UNL1        0.0033
     18 C          11.8298   88.6620   18.6364 C.ar    1  UNL1        0.0066
     19 C          13.1105   88.6586   18.0562 C.ar    1  UNL1        0.0785
     20 C          14.2342   88.4770   18.8849 C.ar    1  UNL1        0.0433
     21 C          13.2904   88.8668   16.5982 C.2     1  UNL1        0.3381
     22 O          14.4511   88.8950   16.1090 O.2     1  UNL1       -0.2451
     23 O          12.2032   89.0190   15.7384 O.3     1  UNL1       -0.4771
     24 H          11.2457   88.9042   16.0443 H       1  UNL1        0.2954
     25 C          10.0337   79.8969   26.5792 C.2     1  UNL1        0.2839
     26 O          10.1844   80.7732   27.4725 O.2     1  UNL1       -0.2665
     27 N          10.8808   79.8936   25.4186 N.am    1  UNL1       -0.2766
     28 H          10.9474   79.0110   24.8626 H       1  UNL1        0.1553
     29 C           5.9963   75.5705   27.5931 C.ar    1  UNL1       -0.0001
     30 C           5.6229   75.9405   26.2772 C.ar    1  UNL1        0.0031
     31 C           6.3115   76.9617   25.5994 C.ar    1  UNL1        0.0375
     32 C           7.3690   77.5831   26.2571 C.ar    1  UNL1        0.1452
     33 O           8.1305   78.5488   25.8043 O.2     1  UNL1       -0.4492
     34 C           9.0118   78.8456   26.7431 C.ar    1  UNL1        0.1946
     35 C           8.8117   78.0308   27.8632 C.ar    1  UNL1        0.0202
     36 C           9.5821   78.0347   29.1490 C.3     1  UNL1        0.0345
     37 C           7.7437   77.2224   27.5250 C.ar    1  UNL1        0.0337
     38 C           7.0824   76.2125   28.2254 C.ar    1  UNL1        0.0028
     39 C           4.4777   74.7347   29.4388 C.ar    1  UNL1       -0.0222
     40 C           3.8345   73.6532   30.0677 C.ar    1  UNL1       -0.0043
     41 C           3.9632   72.3574   29.5638 C.ar    1  UNL1       -0.0003
     42 C           4.7473   72.1203   28.4353 C.ar    1  UNL1       -0.0000
     43 C           5.4045   73.1781   27.8053 C.ar    1  UNL1       -0.0003
     44 C           5.2760   74.4889   28.2924 C.ar    1  UNL1       -0.0040
     45 C           5.2830   76.2194   31.2840 C.3     1  UNL1        0.0050
     46 C           4.3709   76.1068   30.0664 C.3     1  UNL1        0.0264
@<TRIPOS>BOND
     1    45    46    1
     2    46    39    1
     3    39    40   ar
     4    40    41   ar
     5    41    42   ar
     6    42    43   ar
     7    43    44   ar
     8    44    29    1
     9    29    30   ar
    10    30    31   ar
    11    31    32   ar
    12    32    33   ar
    13    33    34   ar
    14    34    25    1
    15    25    26    2
    16    25    27   am
    17    27     1    1
    18     1     2   ar
    19     2     3   ar
    20     3     4   ar
    21     4     7    1
    22     7     8    1
    23     8     9    1
    24     9    10    1
    25    10    13    1
    26    13    14    1
    27    14    15    1
    28    15    16   ar
    29    16    17   ar
    30    17    18   ar
    31    18    19   ar
    32    19    21    1
    33    21    22    2
    34    21    23    1
    35    19    20   ar
    36    10    11    1
    37    11    12    1
    38     4     5   ar
    39     5     6   ar
    40    34    35   ar
    41    35    36    1
    42    35    37   ar
    43    37    38   ar
    44    44    39   ar
    45    38    29   ar
    46    37    32   ar
    47     6     1   ar
    48    12     7    1
    49    20    15   ar
    50    27    28    1
    51    23    24    1
@<TRIPOS>MOLECULE
*****
 46 51 0 0 0
SMALL
GASTEIGER

@<TRIPOS>ATOM
      1 C          10.5922   80.9326   25.0607 C.ar    1  UNL1        0.0702
      2 C          10.3131   80.0878   23.9755 C.ar    1  UNL1        0.0191
      3 C           9.5527   78.9325   24.1635 C.ar    1  UNL1        0.0356
      4 C           9.0591   78.6250   25.4431 C.ar    1  UNL1        0.1318
      5 N           9.3209   79.4774   26.4737 N.ar    1  UNL1       -0.2279
      6 C          10.0579   80.6080   26.3135 C.ar    1  UNL1        0.1149
      7 N           8.2672   77.4403   25.6780 N.pl3   1  UNL1       -0.2932
      8 C           8.8107   76.1206   25.3218 C.3     1  UNL1        0.0923
      9 C           8.2573   75.0521   26.2676 C.3     1  UNL1        0.0252
     10 C           6.7088   74.9849   26.2359 C.3     1  UNL1        0.0472
     11 C           6.0569   76.3220   25.8016 C.3     1  UNL1        0.0252
     12 C           6.8933   77.5443   26.1996 C.3     1  UNL1        0.0923
     13 C           6.1525   74.5183   27.5975 C.3     1  UNL1        0.2054
     14 O           7.1103   74.7097   28.6406 O.3     1  UNL1       -0.4755
     15 C           7.0686   75.7192   29.6165 C.ar    1  UNL1        0.1388
     16 C           6.1166   75.6081   30.6346 C.ar    1  UNL1        0.0369
     17 C           6.0295   76.5792   31.6327 C.ar    1  UNL1        0.0033
     18 C           6.8931   77.6763   31.6235 C.ar    1  UNL1        0.0066
     19 C           7.8562   77.8147   30.6086 C.ar    1  UNL1        0.0785
     20 C           7.9452   76.8231   29.6130 C.ar    1  UNL1        0.0433
     21 C           8.7868   78.9703   30.5894 C.2     1  UNL1        0.3381
     22 O           9.5403   79.1829   31.5765 O.2     1  UNL1       -0.2451
     23 O           8.8666   79.8307   29.4950 O.3     1  UNL1       -0.4771
     24 H           8.3690   79.6614   28.6307 H       1  UNL1        0.2954
     25 C          12.7787   82.1874   24.7612 C.2     1  UNL1        0.2839
     26 O          13.4732   81.1694   25.0259 O.2     1  UNL1       -0.2665
     27 N          11.3494   82.1449   24.9022 N.am    1  UNL1       -0.2766
     28 H          10.8369   83.0527   24.9778 H       1  UNL1        0.1553
     29 C          15.7200   87.0811   22.9046 C.ar    1  UNL1       -0.0001
     30 C          14.5934   87.6949   23.5064 C.ar    1  UNL1        0.0031
     31 C          13.5850   86.9140   24.0977 C.ar    1  UNL1        0.0375
     32 C          13.7365   85.5305   24.0797 C.ar    1  UNL1        0.1452
     33 O          12.9168   84.6339   24.5713 O.2     1  UNL1       -0.4492
     34 C          13.4366   83.4404   24.3443 C.ar    1  UNL1        0.1946
     35 C          14.6563   83.5691   23.6703 C.ar    1  UNL1        0.0202
     36 C          15.5732   82.4734   23.2170 C.3     1  UNL1        0.0345
     37 C          14.8290   84.9303   23.5104 C.ar    1  UNL1        0.0337
     38 C          15.8482   85.6758   22.9160 C.ar    1  UNL1        0.0028
     39 C          17.9354   88.3020   23.0203 C.ar    1  UNL1       -0.0222
     40 C          18.8970   89.1084   22.3849 C.ar    1  UNL1       -0.0043
     41 C          18.7289   89.5043   21.0565 C.ar    1  UNL1       -0.0003
     42 C          17.5926   89.1142   20.3486 C.ar    1  UNL1       -0.0000
     43 C          16.6206   88.3255   20.9657 C.ar    1  UNL1       -0.0003
     44 C          16.7799   87.9091   22.2973 C.ar    1  UNL1       -0.0040
     45 C          17.8563   89.1818   25.3606 C.3     1  UNL1        0.0050
     46 C          18.1240   87.9635   24.4824 C.3     1  UNL1        0.0264
@<TRIPOS>BOND
     1    45    46    1
     2    46    39    1
     3    39    40   ar
     4    40    41   ar
     5    41    42   ar
     6    42    43   ar
     7    43    44   ar
     8    44    29    1
     9    29    30   ar
    10    30    31   ar
    11    31    32   ar
    12    32    33   ar
    13    33    34   ar
    14    34    25    1
    15    25    26    2
    16    25    27   am
    17    27     1    1
    18     1     2   ar
    19     2     3   ar
    20     3     4   ar
    21     4     7    1
    22     7     8    1
    23     8     9    1
    24     9    10    1
    25    10    13    1
    26    13    14    1
    27    14    15    1
    28    15    16   ar
    29    16    17   ar
    30    17    18   ar
    31    18    19   ar
    32    19    21    1
    33    21    22    2
    34    21    23    1
    35    19    20   ar
    36    10    11    1
    37    11    12    1
    38     4     5   ar
    39     5     6   ar
    40    34    35   ar
    41    35    36    1
    42    35    37   ar
    43    37    38   ar
    44    44    39   ar
    45    38    29   ar
    46    37    32   ar
    47     6     1   ar
    48    12     7    1
    49    20    15   ar
    50    27    28    1
    51    23    24    1
@<TRIPOS>MOLECULE
*****
 46 51 0 0 0
SMALL
GASTEIGER

@<TRIPOS>ATOM
      1 C          10.4492   81.0864   25.0774 C.ar    1  UNL1        0.0702
      2 C          10.2043   80.4946   26.3261 C.ar    1  UNL1        0.0191
      3 C           9.4365   79.3322   26.4128 C.ar    1  UNL1        0.0356
      4 C           8.9188   78.7514   25.2422 C.ar    1  UNL1        0.1318
      5 N           9.1957   79.3306   24.0401 N.ar    1  UNL1       -0.2279
      6 C           9.9414   80.4616   23.9320 C.ar    1  UNL1        0.1149
      7 N           8.1217   77.5481   25.2900 N.pl3   1  UNL1       -0.2932
      8 C           8.4930   76.3968   24.4531 C.3     1  UNL1        0.0923
      9 C           8.0865   75.0927   25.1436 C.3     1  UNL1        0.0252
     10 C           6.5654   75.0330   25.4370 C.3     1  UNL1        0.0472
     11 C           5.9219   76.4367   25.5674 C.3     1  UNL1        0.0252
     12 C           6.8989   77.4870   26.1096 C.3     1  UNL1        0.0923
     13 C           6.2821   74.1793   26.6907 C.3     1  UNL1        0.2054
     14 O           7.3872   74.2077   27.5964 O.3     1  UNL1       -0.4755
     15 C           7.6545   75.2212   28.5316 C.ar    1  UNL1        0.1388
     16 C           8.9115   75.8325   28.4948 C.ar    1  UNL1        0.0369
     17 C           9.2332   76.8467   29.3974 C.ar    1  UNL1        0.0033
     18 C           8.3012   77.2610   30.3509 C.ar    1  UNL1        0.0066
     19 C           7.0319   76.6597   30.4127 C.ar    1  UNL1        0.0785
     20 C           6.7116   75.6461   29.4895 C.ar    1  UNL1        0.0433
     21 C           6.0274   77.0944   31.4146 C.2     1  UNL1        0.3381
     22 O           4.9423   76.4640   31.5264 O.2     1  UNL1       -0.2451
     23 O           6.2539   78.1820   32.2574 O.3     1  UNL1       -0.4771
     24 H           7.1403   78.6681   32.2943 H       1  UNL1        0.2954
     25 C          12.6636   82.2531   24.6526 C.2     1  UNL1        0.2839
     26 O          13.3198   81.1813   24.7489 O.2     1  UNL1       -0.2665
     27 N          11.2568   82.2689   24.9446 N.am    1  UNL1       -0.2766
     28 H          10.8101   83.1900   25.1556 H       1  UNL1        0.1553
     29 C          15.7167   87.1434   22.9763 C.ar    1  UNL1       -0.0001
     30 C          14.5758   87.7597   23.5479 C.ar    1  UNL1        0.0031
     31 C          13.5396   86.9805   24.0914 C.ar    1  UNL1        0.0375
     32 C          13.6778   85.5959   24.0571 C.ar    1  UNL1        0.1452
     33 O          12.8326   84.7005   24.5058 O.2     1  UNL1       -0.4492
     34 C          13.3481   83.5053   24.2785 C.ar    1  UNL1        0.1946
     35 C          14.5920   83.6315   23.6495 C.ar    1  UNL1        0.0202
     36 C          15.5133   82.5332   23.2116 C.3     1  UNL1        0.0345
     37 C          14.7836   84.9931   23.5171 C.ar    1  UNL1        0.0337
     38 C          15.8304   85.7368   22.9703 C.ar    1  UNL1        0.0028
     39 C          16.7211   88.5564   21.1308 C.ar    1  UNL1       -0.0222
     40 C          17.8050   89.3160   20.6543 C.ar    1  UNL1       -0.0043
     41 C          18.9421   89.5063   21.4420 C.ar    1  UNL1       -0.0003
     42 C          19.0202   88.9292   22.7090 C.ar    1  UNL1       -0.0000
     43 C          17.9609   88.1608   23.1940 C.ar    1  UNL1       -0.0003
     44 C          16.8054   87.9694   22.4193 C.ar    1  UNL1       -0.0040
     45 C          14.5876   89.5023   20.2303 C.3     1  UNL1        0.0050
     46 C          15.5448   88.3146   20.2112 C.3     1  UNL1        0.0264
@<TRIPOS>BOND
     1    45    46    1
     2    46    39    1
     3    39    40   ar
     4    40    41   ar
     5    41    42   ar
     6    42    43   ar
     7    43    44   ar
     8    44    29    1
     9    29    30   ar
    10    30    31   ar
    11    31    32   ar
    12    32    33   ar
    13    33    34   ar
    14    34    25    1
    15    25    26    2
    16    25    27   am
    17    27     1    1
    18     1     2   ar
    19     2     3   ar
    20     3     4   ar
    21     4     7    1
    22     7     8    1
    23     8     9    1
    24     9    10    1
    25    10    13    1
    26    13    14    1
    27    14    15    1
    28    15    16   ar
    29    16    17   ar
    30    17    18   ar
    31    18    19   ar
    32    19    21    1
    33    21    22    2
    34    21    23    1
    35    19    20   ar
    36    10    11    1
    37    11    12    1
    38     4     5   ar
    39     5     6   ar
    40    34    35   ar
    41    35    36    1
    42    35    37   ar
    43    37    38   ar
    44    44    39   ar
    45    38    29   ar
    46    37    32   ar
    47     6     1   ar
    48    12     7    1
    49    20    15   ar
    50    27    28    1
    51    23    24    1
@<TRIPOS>MOLECULE
*****
 46 51 0 0 0
SMALL
GASTEIGER

@<TRIPOS>ATOM
      1 C           9.9443   79.9082   24.0014 C.ar    1  UNL1        0.0702
      2 C           9.4646   79.7235   22.6956 C.ar    1  UNL1        0.0191
      3 C           8.7320   78.5801   22.3727 C.ar    1  UNL1        0.0356
      4 C           8.4681   77.6197   23.3645 C.ar    1  UNL1        0.1318
      5 N           8.9211   77.8377   24.6312 N.ar    1  UNL1       -0.2279
      6 C           9.6353   78.9438   24.9682 C.ar    1  UNL1        0.1149
      7 N           7.7123   76.4247   23.0707 N.pl3   1  UNL1       -0.2932
      8 C           6.9538   75.7626   24.1431 C.3     1  UNL1        0.0923
      9 C           5.7140   75.0774   23.5634 C.3     1  UNL1        0.0252
     10 C           6.0751   74.0290   22.4800 C.3     1  UNL1        0.0472
     11 C           7.4302   74.3212   21.7874 C.3     1  UNL1        0.0252
     12 C           7.7531   75.8192   21.7281 C.3     1  UNL1        0.0923
     13 C           4.9418   73.9026   21.4404 C.3     1  UNL1        0.2054
     14 O           4.9436   75.0091   20.5361 O.3     1  UNL1       -0.4755
     15 C           4.3651   76.2661   20.7780 C.ar    1  UNL1        0.1388
     16 C           5.0083   77.3945   20.2601 C.ar    1  UNL1        0.0369
     17 C           4.4792   78.6691   20.4662 C.ar    1  UNL1        0.0033
     18 C           3.3000   78.8313   21.1960 C.ar    1  UNL1        0.0066
     19 C           2.6360   77.7138   21.7318 C.ar    1  UNL1        0.0785
     20 C           3.1703   76.4306   21.5076 C.ar    1  UNL1        0.0433
     21 C           1.3775   77.8686   22.5024 C.2     1  UNL1        0.3381
     22 O           1.2924   77.3885   23.6641 O.2     1  UNL1       -0.2451
     23 O           0.2771   78.5496   21.9827 O.3     1  UNL1       -0.4771
     24 H           0.3098   79.0476   21.1027 H       1  UNL1        0.2954
     25 C          12.1115   81.1365   24.4911 C.2     1  UNL1        0.2839
     26 O          12.7856   80.0716   24.5092 O.2     1  UNL1       -0.2665
     27 N          10.6799   81.0847   24.3791 N.am    1  UNL1       -0.2766
     28 H          10.1345   81.9277   24.6696 H       1  UNL1        0.1553
     29 C          14.9303   86.3593   25.3982 C.ar    1  UNL1       -0.0001
     30 C          14.6689   86.4682   24.0097 C.ar    1  UNL1        0.0031
     31 C          14.0029   85.4368   23.3249 C.ar    1  UNL1        0.0375
     32 C          13.6048   84.3204   24.0545 C.ar    1  UNL1        0.1452
     33 O          12.9778   83.2599   23.6076 O.2     1  UNL1       -0.4492
     34 C          12.7889   82.4400   24.6265 C.ar    1  UNL1        0.1946
     35 C          13.3211   82.9970   25.7949 C.ar    1  UNL1        0.0202
     36 C          13.3280   82.4049   27.1720 C.3     1  UNL1        0.0345
     37 C          13.8433   84.2133   25.3997 C.ar    1  UNL1        0.0337
     38 C          14.5007   85.2189   26.1098 C.ar    1  UNL1        0.0028
     39 C          16.7555   88.1059   25.5701 C.ar    1  UNL1       -0.0222
     40 C          17.3746   89.1270   26.3137 C.ar    1  UNL1       -0.0043
     41 C          16.8706   89.5067   27.5592 C.ar    1  UNL1       -0.0003
     42 C          15.7518   88.8630   28.0870 C.ar    1  UNL1       -0.0000
     43 C          15.1317   87.8382   27.3707 C.ar    1  UNL1       -0.0003
     44 C          15.6189   87.4523   26.1115 C.ar    1  UNL1       -0.0040
     45 C          18.3413   88.7465   23.7446 C.3     1  UNL1        0.0050
     46 C          17.3835   87.6779   24.2624 C.3     1  UNL1        0.0264
@<TRIPOS>BOND
     1    45    46    1
     2    46    39    1
     3    39    40   ar
     4    40    41   ar
     5    41    42   ar
     6    42    43   ar
     7    43    44   ar
     8    44    29    1
     9    29    30   ar
    10    30    31   ar
    11    31    32   ar
    12    32    33   ar
    13    33    34   ar
    14    34    25    1
    15    25    26    2
    16    25    27   am
    17    27     1    1
    18     1     2   ar
    19     2     3   ar
    20     3     4   ar
    21     4     7    1
    22     7     8    1
    23     8     9    1
    24     9    10    1
    25    10    13    1
    26    13    14    1
    27    14    15    1
    28    15    16   ar
    29    16    17   ar
    30    17    18   ar
    31    18    19   ar
    32    19    21    1
    33    21    22    2
    34    21    23    1
    35    19    20   ar
    36    10    11    1
    37    11    12    1
    38     4     5   ar
    39     5     6   ar
    40    34    35   ar
    41    35    36    1
    42    35    37   ar
    43    37    38   ar
    44    44    39   ar
    45    38    29   ar
    46    37    32   ar
    47     6     1   ar
    48    12     7    1
    49    20    15   ar
    50    27    28    1
    51    23    24    1
@<TRIPOS>MOLECULE
*****
 46 51 0 0 0
SMALL
GASTEIGER

@<TRIPOS>ATOM
      1 C           9.7616   80.1245   24.0224 C.ar    1  UNL1        0.0702
      2 C           9.5495   79.1669   25.0261 C.ar    1  UNL1        0.0191
      3 C           8.8607   77.9880   24.7363 C.ar    1  UNL1        0.0356
      4 C           8.3898   77.7600   23.4317 C.ar    1  UNL1        0.1318
      5 N           8.6344   78.6935   22.4694 N.ar    1  UNL1       -0.2279
      6 C           9.3035   79.8477   22.7287 C.ar    1  UNL1        0.1149
      7 N           7.6746   76.5523   23.0917 N.pl3   1  UNL1       -0.2932
      8 C           6.5804   76.0875   23.9579 C.3     1  UNL1        0.0923
      9 C           5.5291   75.3494   23.1256 C.3     1  UNL1        0.0252
     10 C           6.1254   74.1339   22.3705 C.3     1  UNL1        0.0472
     11 C           7.6443   74.2793   22.0998 C.3     1  UNL1        0.0252
     12 C           8.0774   75.7406   21.9299 C.3     1  UNL1        0.0923
     13 C           5.3555   73.8718   21.0592 C.3     1  UNL1        0.2054
     14 O           4.3632   74.8749   20.8326 O.3     1  UNL1       -0.4755
     15 C           4.4359   75.8974   19.8721 C.ar    1  UNL1        0.1388
     16 C           3.5201   75.8711   18.8158 C.ar    1  UNL1        0.0369
     17 C           3.5427   76.8615   17.8333 C.ar    1  UNL1        0.0033
     18 C           4.4844   77.8906   17.8938 C.ar    1  UNL1        0.0066
     19 C           5.4195   77.9380   18.9426 C.ar    1  UNL1        0.0785
     20 C           5.3808   76.9415   19.9365 C.ar    1  UNL1        0.0433
     21 C           6.4212   79.0295   19.0257 C.2     1  UNL1        0.3381
     22 O           6.2473   80.0894   18.3672 O.2     1  UNL1       -0.2451
     23 O           7.5553   78.9257   19.8304 O.3     1  UNL1       -0.4771
     24 H           7.7062   78.1508   20.4629 H       1  UNL1        0.2954
     25 C          11.8590   81.3804   24.7070 C.2     1  UNL1        0.2839
     26 O          12.4219   80.3365   25.1339 O.2     1  UNL1       -0.2665
     27 N          10.4892   81.3389   24.2754 N.am    1  UNL1       -0.2766
     28 H           9.9643   82.2412   24.2222 H       1  UNL1        0.1553
     29 C          15.0080   86.4864   24.9514 C.ar    1  UNL1       -0.0001
     30 C          14.3743   86.6576   23.6955 C.ar    1  UNL1        0.0031
     31 C          13.5067   85.6725   23.1926 C.ar    1  UNL1        0.0375
     32 C          13.2870   84.5386   23.9693 C.ar    1  UNL1        0.1452
     33 O          12.5220   83.5138   23.6829 O.2     1  UNL1       -0.4492
     34 C          12.5946   82.6591   24.6880 C.ar    1  UNL1        0.1946
     35 C          13.4512   83.1546   25.6776 C.ar    1  UNL1        0.0202
     36 C          13.8196   82.5079   26.9787 C.3     1  UNL1        0.0345
     37 C          13.8867   84.3715   25.1902 C.ar    1  UNL1        0.0337
     38 C          14.7522   85.3302   25.7190 C.ar    1  UNL1        0.0028
     39 C          15.5420   88.3592   26.5697 C.ar    1  UNL1       -0.0222
     40 C          16.4408   89.3490   27.0069 C.ar    1  UNL1       -0.0043
     41 C          17.6828   89.5064   26.3886 C.ar    1  UNL1       -0.0003
     42 C          18.0391   88.6892   25.3163 C.ar    1  UNL1       -0.0000
     43 C          17.1555   87.7104   24.8591 C.ar    1  UNL1       -0.0003
     44 C          15.9075   87.5314   25.4773 C.ar    1  UNL1       -0.0040
     45 C          14.3064   88.1734   28.7368 C.3     1  UNL1        0.0050
     46 C          14.1789   88.2785   27.2202 C.3     1  UNL1        0.0264
@<TRIPOS>BOND
     1    45    46    1
     2    46    39    1
     3    39    40   ar
     4    40    41   ar
     5    41    42   ar
     6    42    43   ar
     7    43    44   ar
     8    44    29    1
     9    29    30   ar
    10    30    31   ar
    11    31    32   ar
    12    32    33   ar
    13    33    34   ar
    14    34    25    1
    15    25    26    2
    16    25    27   am
    17    27     1    1
    18     1     2   ar
    19     2     3   ar
    20     3     4   ar
    21     4     7    1
    22     7     8    1
    23     8     9    1
    24     9    10    1
    25    10    13    1
    26    13    14    1
    27    14    15    1
    28    15    16   ar
    29    16    17   ar
    30    17    18   ar
    31    18    19   ar
    32    19    21    1
    33    21    22    2
    34    21    23    1
    35    19    20   ar
    36    10    11    1
    37    11    12    1
    38     4     5   ar
    39     5     6   ar
    40    34    35   ar
    41    35    36    1
    42    35    37   ar
    43    37    38   ar
    44    44    39   ar
    45    38    29   ar
    46    37    32   ar
    47     6     1   ar
    48    12     7    1
    49    20    15   ar
    50    27    28    1
    51    23    24    1
@<TRIPOS>MOLECULE
*****
 46 51 0 0 0
SMALL
GASTEIGER

@<TRIPOS>ATOM
      1 C          10.5431   81.1829   24.9673 C.ar    1  UNL1        0.0702
      2 C          10.3846   80.5769   26.2230 C.ar    1  UNL1        0.0191
      3 C           9.6695   79.3840   26.3408 C.ar    1  UNL1        0.0356
      4 C           9.1180   78.7872   25.1939 C.ar    1  UNL1        0.1318
      5 N           9.3112   79.3819   23.9830 N.ar    1  UNL1       -0.2279
      6 C          10.0046   80.5426   23.8447 C.ar    1  UNL1        0.1149
      7 N           8.3733   77.5525   25.2740 N.pl3   1  UNL1       -0.2932
      8 C           6.9101   77.5754   25.1255 C.3     1  UNL1        0.0923
      9 C           6.4254   76.2670   24.4966 C.3     1  UNL1        0.0252
     10 C           6.8275   75.0275   25.3364 C.3     1  UNL1        0.0472
     11 C           8.0851   75.2729   26.2079 C.3     1  UNL1        0.0252
     12 C           9.0535   76.2813   25.5777 C.3     1  UNL1        0.0923
     13 C           7.0170   73.7911   24.4328 C.3     1  UNL1        0.2054
     14 O           7.3377   74.1735   23.0937 O.3     1  UNL1       -0.4755
     15 C           8.6324   74.3704   22.5854 C.ar    1  UNL1        0.1388
     16 C           8.9009   75.5720   21.9226 C.ar    1  UNL1        0.0369
     17 C          10.1692   75.8245   21.3987 C.ar    1  UNL1        0.0033
     18 C          11.1854   74.8759   21.5293 C.ar    1  UNL1        0.0066
     19 C          10.9408   73.6576   22.1869 C.ar    1  UNL1        0.0785
     20 C           9.6615   73.4171   22.7236 C.ar    1  UNL1        0.0433
     21 C          12.0123   72.6429   22.3412 C.2     1  UNL1        0.3381
     22 O          11.8507   71.6785   23.1357 O.2     1  UNL1       -0.2451
     23 O          13.2011   72.7141   21.6158 O.3     1  UNL1       -0.4771
     24 H          13.3555   73.3993   20.8877 H       1  UNL1        0.2954
     25 C          12.7282   82.4718   24.8709 C.2     1  UNL1        0.2839
     26 O          13.3920   81.5070   25.3369 O.2     1  UNL1       -0.2665
     27 N          11.2949   82.3976   24.8016 N.am    1  UNL1       -0.2766
     28 H          10.7615   83.2917   24.7084 H       1  UNL1        0.1553
     29 C          15.7910   87.2499   22.9123 C.ar    1  UNL1       -0.0001
     30 C          14.7214   87.9064   23.5703 C.ar    1  UNL1        0.0031
     31 C          13.7085   87.1647   24.2027 C.ar    1  UNL1        0.0375
     32 C          13.7983   85.7762   24.1682 C.ar    1  UNL1        0.1452
     33 O          12.9640   84.9116   24.6915 O.2     1  UNL1       -0.4492
     34 C          13.4201   83.6988   24.4323 C.ar    1  UNL1        0.1946
     35 C          14.6117   83.7805   23.7028 C.ar    1  UNL1        0.0202
     36 C          15.4579   82.6502   23.1998 C.3     1  UNL1        0.0345
     37 C          14.8360   85.1344   23.5444 C.ar    1  UNL1        0.0337
     38 C          15.8581   85.8403   22.9081 C.ar    1  UNL1        0.0028
     39 C          16.7264   88.5309   20.9386 C.ar    1  UNL1       -0.0222
     40 C          17.7904   89.2571   20.3732 C.ar    1  UNL1       -0.0043
     41 C          18.9526   89.5047   21.1063 C.ar    1  UNL1       -0.0003
     42 C          19.0759   89.0186   22.4075 C.ar    1  UNL1       -0.0000
     43 C          18.0369   88.2844   22.9812 C.ar    1  UNL1       -0.0003
     44 C          16.8568   88.0365   22.2617 C.ar    1  UNL1       -0.0040
     45 C          14.3459   89.1227   20.4484 C.3     1  UNL1        0.0050
     46 C          15.5208   88.2225   20.0789 C.3     1  UNL1        0.0264
@<TRIPOS>BOND
     1    45    46    1
     2    46    39    1
     3    39    40   ar
     4    40    41   ar
     5    41    42   ar
     6    42    43   ar
     7    43    44   ar
     8    44    29    1
     9    29    30   ar
    10    30    31   ar
    11    31    32   ar
    12    32    33   ar
    13    33    34   ar
    14    34    25    1
    15    25    26    2
    16    25    27   am
    17    27     1    1
    18     1     2   ar
    19     2     3   ar
    20     3     4   ar
    21     4     7    1
    22     7     8    1
    23     8     9    1
    24     9    10    1
    25    10    13    1
    26    13    14    1
    27    14    15    1
    28    15    16   ar
    29    16    17   ar
    30    17    18   ar
    31    18    19   ar
    32    19    21    1
    33    21    22    2
    34    21    23    1
    35    19    20   ar
    36    10    11    1
    37    11    12    1
    38     4     5   ar
    39     5     6   ar
    40    34    35   ar
    41    35    36    1
    42    35    37   ar
    43    37    38   ar
    44    44    39   ar
    45    38    29   ar
    46    37    32   ar
    47     6     1   ar
    48    12     7    1
    49    20    15   ar
    50    27    28    1
    51    23    24    1
@<TRIPOS>MOLECULE
*****
 46 51 0 0 0
SMALL
GASTEIGER

@<TRIPOS>ATOM
      1 C          10.4660   80.9903   24.8800 C.ar    1  UNL1        0.0702
      2 C          10.0191   80.2506   23.7743 C.ar    1  UNL1        0.0191
      3 C           9.3048   79.0666   23.9650 C.ar    1  UNL1        0.0356
      4 C           9.0260   78.6246   25.2698 C.ar    1  UNL1        0.1318
      5 N           9.4469   79.3770   26.3253 N.ar    1  UNL1       -0.2279
      6 C          10.1429   80.5330   26.1632 C.ar    1  UNL1        0.1149
      7 N           8.2883   77.4063   25.5086 N.pl3   1  UNL1       -0.2932
      8 C           6.8571   77.4767   25.8410 C.3     1  UNL1        0.0923
      9 C           6.1354   76.2310   25.3216 C.3     1  UNL1        0.0252
     10 C           6.7255   74.9230   25.9084 C.3     1  UNL1        0.0472
     11 C           8.2059   75.0717   26.3418 C.3     1  UNL1        0.0252
     12 C           8.9688   76.0996   25.4973 C.3     1  UNL1        0.0923
     13 C           6.5574   73.7527   24.9168 C.3     1  UNL1        0.2054
     14 O           7.0666   74.0918   23.6253 O.3     1  UNL1       -0.4755
     15 C           6.3504   74.0258   22.4187 C.ar    1  UNL1        0.1388
     16 C           7.0204   73.5603   21.2831 C.ar    1  UNL1        0.0369
     17 C           6.3598   73.4707   20.0573 C.ar    1  UNL1        0.0033
     18 C           5.0197   73.8482   19.9515 C.ar    1  UNL1        0.0066
     19 C           4.3240   74.3240   21.0768 C.ar    1  UNL1        0.0785
     20 C           4.9952   74.3988   22.3123 C.ar    1  UNL1        0.0433
     21 C           2.8975   74.7212   20.9828 C.2     1  UNL1        0.3381
     22 O           2.4968   75.7585   21.5750 O.2     1  UNL1       -0.2451
     23 O           1.9773   73.9834   20.2389 O.3     1  UNL1       -0.4771
     24 H           2.2482   73.2020   19.6563 H       1  UNL1        0.2954
     25 C          12.6059   82.3561   24.8651 C.2     1  UNL1        0.2839
     26 O          13.2785   81.4266   25.3870 O.2     1  UNL1       -0.2665
     27 N          11.1817   82.2279   24.7244 N.am    1  UNL1       -0.2766
     28 H          10.6224   83.0995   24.5832 H       1  UNL1        0.1553
     29 C          15.5929   87.1998   22.9509 C.ar    1  UNL1       -0.0001
     30 C          14.4741   87.8313   23.5491 C.ar    1  UNL1        0.0031
     31 C          13.4593   87.0670   24.1508 C.ar    1  UNL1        0.0375
     32 C          13.5964   85.6820   24.1468 C.ar    1  UNL1        0.1452
     33 O          12.7688   84.7989   24.6496 O.2     1  UNL1       -0.4492
     34 C          13.2756   83.5978   24.4337 C.ar    1  UNL1        0.1946
     35 C          14.4949   83.7070   23.7554 C.ar    1  UNL1        0.0202
     36 C          15.3994   82.5972   23.3114 C.3     1  UNL1        0.0345
     37 C          14.6812   85.0647   23.5811 C.ar    1  UNL1        0.0337
     38 C          15.7065   85.7934   22.9766 C.ar    1  UNL1        0.0028
     39 C          16.4553   88.7306   21.1277 C.ar    1  UNL1       -0.0222
     40 C          17.5227   89.4674   20.5832 C.ar    1  UNL1       -0.0043
     41 C          18.7620   89.5060   21.2252 C.ar    1  UNL1       -0.0003
     42 C          18.9583   88.7983   22.4106 C.ar    1  UNL1       -0.0000
     43 C          17.9156   88.0504   22.9594 C.ar    1  UNL1       -0.0003
     44 C          16.6597   88.0104   22.3325 C.ar    1  UNL1       -0.0040
     45 C          15.0271   87.3171   19.6378 C.3     1  UNL1        0.0050
     46 C          15.1565   88.6568   20.3560 C.3     1  UNL1        0.0264
@<TRIPOS>BOND
     1    45    46    1
     2    46    39    1
     3    39    40   ar
     4    40    41   ar
     5    41    42   ar
     6    42    43   ar
     7    43    44   ar
     8    44    29    1
     9    29    30   ar
    10    30    31   ar
    11    31    32   ar
    12    32    33   ar
    13    33    34   ar
    14    34    25    1
    15    25    26    2
    16    25    27   am
    17    27     1    1
    18     1     2   ar
    19     2     3   ar
    20     3     4   ar
    21     4     7    1
    22     7     8    1
    23     8     9    1
    24     9    10    1
    25    10    13    1
    26    13    14    1
    27    14    15    1
    28    15    16   ar
    29    16    17   ar
    30    17    18   ar
    31    18    19   ar
    32    19    21    1
    33    21    22    2
    34    21    23    1
    35    19    20   ar
    36    10    11    1
    37    11    12    1
    38     4     5   ar
    39     5     6   ar
    40    34    35   ar
    41    35    36    1
    42    35    37   ar
    43    37    38   ar
    44    44    39   ar
    45    38    29   ar
    46    37    32   ar
    47     6     1   ar
    48    12     7    1
    49    20    15   ar
    50    27    28    1
    51    23    24    1
