@<TRIPOS>MOLECULE
*****
 45 50 0 0 0
SMALL
GASTEIGER

@<TRIPOS>ATOM
      1 C          61.3822   88.2021    8.9083 C.ar    1  UNL1        0.0702
      2 C          62.0461   88.8193    9.9796 C.ar    1  UNL1        0.0191
      3 C          62.0341   88.2290   11.2445 C.ar    1  UNL1        0.0356
      4 C          61.3323   87.0293   11.4431 C.ar    1  UNL1        0.1318
      5 N          60.6889   86.4539   10.3894 N.ar    1  UNL1       -0.2279
      6 C          60.6876   87.0106    9.1495 C.ar    1  UNL1        0.1149
      7 N          61.3158   86.3790   12.7279 N.pl3   1  UNL1       -0.2932
      8 C          62.3780   86.6062   13.7179 C.3     1  UNL1        0.0923
      9 C          62.9091   85.2707   14.2664 C.3     1  UNL1        0.0252
     10 C          61.8308   84.1556   14.3271 C.3     1  UNL1        0.0472
     11 C          60.4083   84.7473   14.3714 C.3     1  UNL1        0.0252
     12 C          60.1428   85.5767   13.1057 C.3     1  UNL1        0.0923
     13 C          62.0814   83.2176   15.5239 C.3     1  UNL1        0.2054
     14 O          62.1651   81.8541   15.1052 O.3     1  UNL1       -0.4754
     15 C          61.8951   81.3782   13.8114 C.ar    1  UNL1        0.1392
     16 C          60.8118   80.5264   13.5240 C.ar    1  UNL1        0.0427
     17 C          60.5949   80.0804   12.2181 C.ar    1  UNL1        0.0333
     18 I          58.9733   78.7970   11.8018 I       1  UNL1       -0.0424
     19 C          61.4488   80.4818   11.1876 C.ar    1  UNL1        0.0124
     20 C          62.5314   81.3376   11.4543 C.ar    1  UNL1        0.0789
     21 C          62.7428   81.7803   12.7718 C.ar    1  UNL1        0.0434
     22 C          63.4386   81.7679   10.3673 C.2     1  UNL1        0.3381
     23 O          64.6860   81.6240   10.4819 O.2     1  UNL1       -0.2451
     24 O          62.9224   82.3367    9.2057 O.3     1  UNL1       -0.4771
     25 H          63.5347   82.6347    8.4557 H       1  UNL1        0.2954
     26 C          60.1512   88.9464    6.8147 C.2     1  UNL1        0.2839
     27 O          59.0511   88.4959    7.2323 O.2     1  UNL1       -0.2665
     28 N          61.3481   88.7889    7.5970 N.am    1  UNL1       -0.2766
     29 H          62.2453   89.1692    7.2248 H       1  UNL1        0.1553
     30 C          57.6341   90.0334    5.0920 C.3     1  UNL1        0.0345
     31 C          59.0947   90.1013    4.7637 C.ar    1  UNL1        0.0202
     32 C          60.1805   89.6130    5.5012 C.ar    1  UNL1        0.1946
     33 O          61.3047   89.8128    4.8361 O.2     1  UNL1       -0.4492
     34 C          61.0071   90.4274    3.7173 C.ar    1  UNL1        0.1452
     35 C          61.8833   90.8392    2.7193 C.ar    1  UNL1        0.0375
     36 C          61.3440   91.4862    1.5934 C.ar    1  UNL1        0.0031
     37 C          59.9447   91.7098    1.4820 C.ar    1  UNL1        0.0002
     38 C          59.0878   91.2724    2.5205 C.ar    1  UNL1        0.0028
     39 C          59.6582   90.6363    3.6229 C.ar    1  UNL1        0.0337
     40 C          59.3861   92.3942    0.2884 C.ar    1  UNL1        0.0000
     41 C          60.2057   93.2025   -0.5224 C.ar    1  UNL1        0.0000
     42 C          59.6766   93.8465   -1.6451 C.ar    1  UNL1        0.0000
     43 C          58.3276   93.6913   -1.9717 C.ar    1  UNL1        0.0000
     44 C          57.5043   92.8920   -1.1757 C.ar    1  UNL1        0.0000
     45 C          58.0276   92.2463   -0.0512 C.ar    1  UNL1        0.0000
@<TRIPOS>BOND
     1    30    31    1
     2    31    32   ar
     3    32    26    1
     4    26    27    2
     5    26    28   am
     6    28     1    1
     7     1     2   ar
     8     2     3   ar
     9     3     4   ar
    10     4     7    1
    11     7     8    1
    12     8     9    1
    13     9    10    1
    14    10    13    1
    15    13    14    1
    16    14    15    1
    17    15    16   ar
    18    16    17   ar
    19    17    18    1
    20    17    19   ar
    21    19    20   ar
    22    20    22    1
    23    22    23    2
    24    22    24    1
    25    20    21   ar
    26    10    11    1
    27    11    12    1
    28     4     5   ar
    29     5     6   ar
    30    32    33   ar
    31    33    34   ar
    32    34    35   ar
    33    35    36   ar
    34    36    37   ar
    35    37    40    1
    36    40    41   ar
    37    41    42   ar
    38    42    43   ar
    39    43    44   ar
    40    44    45   ar
    41    37    38   ar
    42    38    39   ar
    43    39    31   ar
    44     6     1   ar
    45    39    34   ar
    46    12     7    1
    47    45    40   ar
    48    21    15   ar
    49    28    29    1
    50    24    25    1
@<TRIPOS>MOLECULE
*****
 45 50 0 0 0
SMALL
GASTEIGER

@<TRIPOS>ATOM
      1 C          61.3368   88.1369    8.9852 C.ar    1  UNL1        0.0702
      2 C          62.1130   88.6710   10.0252 C.ar    1  UNL1        0.0191
      3 C          62.0822   88.0872   11.2929 C.ar    1  UNL1        0.0356
      4 C          61.2507   86.9803   11.5264 C.ar    1  UNL1        0.1318
      5 N          60.5007   86.4853   10.5028 N.ar    1  UNL1       -0.2279
      6 C          60.5152   87.0372    9.2609 C.ar    1  UNL1        0.1149
      7 N          61.2092   86.3375   12.8144 N.pl3   1  UNL1       -0.2932
      8 C          62.1780   86.6670   13.8693 C.3     1  UNL1        0.0923
      9 C          62.7925   85.3891   14.4660 C.3     1  UNL1        0.0252
     10 C          61.8199   84.1792   14.4682 C.3     1  UNL1        0.0472
     11 C          60.3491   84.6367   14.4128 C.3     1  UNL1        0.0252
     12 C          60.0927   85.4318   13.1233 C.3     1  UNL1        0.0923
     13 C          62.0760   83.2743   15.6891 C.3     1  UNL1        0.2054
     14 O          62.4535   81.9562   15.2872 O.3     1  UNL1       -0.4754
     15 C          62.3307   81.4303   13.9905 C.ar    1  UNL1        0.1392
     16 C          63.0085   81.9715   12.8818 C.ar    1  UNL1        0.0427
     17 C          62.8441   81.4093   11.6137 C.ar    1  UNL1        0.0333
     18 I          63.8584   82.2349    9.9586 I       1  UNL1       -0.0424
     19 C          62.0098   80.3021   11.4387 C.ar    1  UNL1        0.0124
     20 C          61.3304   79.7438   12.5351 C.ar    1  UNL1        0.0789
     21 C          61.5009   80.3171   13.8074 C.ar    1  UNL1        0.0434
     22 C          60.4467   78.5703   12.3571 C.2     1  UNL1        0.3381
     23 O          59.5576   78.3049   13.2109 O.2     1  UNL1       -0.2451
     24 O          60.5890   77.7467   11.2433 O.3     1  UNL1       -0.4771
     25 H          59.9893   76.9408   11.1120 H       1  UNL1        0.2954
     26 C          60.1254   88.9309    6.8983 C.2     1  UNL1        0.2839
     27 O          59.0095   88.5292    7.3240 O.2     1  UNL1       -0.2665
     28 N          61.3195   88.7227    7.6730 N.am    1  UNL1       -0.2766
     29 H          62.2298   89.0631    7.2943 H       1  UNL1        0.1553
     30 C          57.6368   90.0342    5.1449 C.3     1  UNL1        0.0345
     31 C          59.1015   90.0890    4.8327 C.ar    1  UNL1        0.0202
     32 C          60.1749   89.5936    5.5836 C.ar    1  UNL1        0.1946
     33 O          61.3080   89.7821    4.9304 O.2     1  UNL1       -0.4492
     34 C          61.0281   90.3961    3.8068 C.ar    1  UNL1        0.1452
     35 C          61.9188   90.7978    2.8175 C.ar    1  UNL1        0.0375
     36 C          61.3975   91.4462    1.6840 C.ar    1  UNL1        0.0031
     37 C          60.0014   91.6812    1.5564 C.ar    1  UNL1        0.0002
     38 C          59.1293   91.2539    2.5864 C.ar    1  UNL1        0.0028
     39 C          59.6822   90.6160    3.6968 C.ar    1  UNL1        0.0337
     40 C          59.4619   92.3670    0.3548 C.ar    1  UNL1        0.0000
     41 C          60.2867   93.2004   -0.4247 C.ar    1  UNL1        0.0000
     42 C          59.7755   93.8456   -1.5550 C.ar    1  UNL1        0.0000
     43 C          58.4395   93.6667   -1.9203 C.ar    1  UNL1        0.0000
     44 C          57.6112   92.8425   -1.1555 C.ar    1  UNL1        0.0000
     45 C          58.1165   92.1955   -0.0236 C.ar    1  UNL1        0.0000
@<TRIPOS>BOND
     1    30    31    1
     2    31    32   ar
     3    32    26    1
     4    26    27    2
     5    26    28   am
     6    28     1    1
     7     1     2   ar
     8     2     3   ar
     9     3     4   ar
    10     4     7    1
    11     7     8    1
    12     8     9    1
    13     9    10    1
    14    10    13    1
    15    13    14    1
    16    14    15    1
    17    15    16   ar
    18    16    17   ar
    19    17    18    1
    20    17    19   ar
    21    19    20   ar
    22    20    22    1
    23    22    23    2
    24    22    24    1
    25    20    21   ar
    26    10    11    1
    27    11    12    1
    28     4     5   ar
    29     5     6   ar
    30    32    33   ar
    31    33    34   ar
    32    34    35   ar
    33    35    36   ar
    34    36    37   ar
    35    37    40    1
    36    40    41   ar
    37    41    42   ar
    38    42    43   ar
    39    43    44   ar
    40    44    45   ar
    41    37    38   ar
    42    38    39   ar
    43    39    31   ar
    44     6     1   ar
    45    39    34   ar
    46    12     7    1
    47    45    40   ar
    48    21    15   ar
    49    28    29    1
    50    24    25    1
