@<TRIPOS>MOLECULE
*****
 31 33 0 0 0
SMALL
GASTEIGER

@<TRIPOS>ATOM
      1 C          47.0863   14.9674  -26.4318 C.2     1  UNL1       -0.0222
      2 C          48.2172   15.2150  -25.7113 C.2     1  UNL1       -0.0039
      3 C          48.7128   14.2533  -24.6946 C.ar    1  UNL1        0.0011
      4 C          49.2956   13.0449  -25.0966 C.ar    1  UNL1        0.0032
      5 C          49.8113   12.1607  -24.1475 C.ar    1  UNL1        0.0382
      6 C          49.7485   12.4696  -22.7752 C.ar    1  UNL1        0.1513
      7 C          49.1173   13.6594  -22.3662 C.ar    1  UNL1        0.0760
      8 N          49.0211   13.9946  -20.9770 N.pl3   1  UNL1       -0.3546
      9 C          48.6024   14.5416  -23.3257 C.ar    1  UNL1        0.0171
     10 H          49.4044   13.3662  -20.2367 H       1  UNL1        0.1424
     11 H          48.5648   14.8841  -20.6744 H       1  UNL1        0.1424
     12 O          50.3010   11.6263  -21.7970 O.3     1  UNL1       -0.4727
     13 C          49.7333   10.3937  -21.3503 C.3     1  UNL1        0.2227
     14 C          49.6803   10.3318  -19.8171 C.3     1  UNL1        0.1201
     15 N          49.1834   11.6065  -19.2536 N.3     1  UNL1       -0.2672
     16 C          47.7880   11.4765  -18.8012 C.3     1  UNL1        0.0898
     17 C          50.0306   12.0355  -18.1296 C.3     1  UNL1        0.0898
     18 C          49.0280   16.4377  -25.9138 C.ar    1  UNL1       -0.0003
     19 C          48.5473   17.6906  -25.4981 C.ar    1  UNL1       -0.0000
     20 C          49.3355   18.8344  -25.6572 C.ar    1  UNL1       -0.0000
     21 C          50.6129   18.7326  -26.2155 C.ar    1  UNL1       -0.0000
     22 C          51.1070   17.4856  -26.6084 C.ar    1  UNL1       -0.0000
     23 C          50.3219   16.3395  -26.4506 C.ar    1  UNL1       -0.0000
     24 C          46.1859   13.8377  -26.0717 C.ar    1  UNL1       -0.0040
     25 C          46.2161   12.6377  -26.8025 C.ar    1  UNL1       -0.0003
     26 C          45.3802   11.5743  -26.4478 C.ar    1  UNL1       -0.0000
     27 C          44.5027   11.7018  -25.3680 C.ar    1  UNL1       -0.0000
     28 C          44.4543   12.8956  -24.6444 C.ar    1  UNL1       -0.0000
     29 C          45.2869   13.9618  -24.9961 C.ar    1  UNL1       -0.0003
     30 C          45.2006   16.1946  -27.5786 C.3     1  UNL1        0.0050
     31 C          46.6827   15.8242  -27.6188 C.3     1  UNL1        0.0264
@<TRIPOS>BOND
     1    30    31    1
     2    31     1    1
     3     1     2    2
     4     2    18    1
     5    18    19   ar
     6    19    20   ar
     7    20    21   ar
     8    21    22   ar
     9    22    23   ar
    10     2     3    1
    11     3     4   ar
    12     4     5   ar
    13     5     6   ar
    14     6    12    1
    15    12    13    1
    16    13    14    1
    17    14    15    1
    18    15    16    1
    19    15    17    1
    20     6     7   ar
    21     7     8    1
    22     7     9   ar
    23     1    24    1
    24    24    25   ar
    25    25    26   ar
    26    26    27   ar
    27    27    28   ar
    28    28    29   ar
    29    23    18   ar
    30     9     3   ar
    31    29    24   ar
    32     8    10    1
    33     8    11    1
@<TRIPOS>MOLECULE
*****
 31 33 0 0 0
SMALL
GASTEIGER

@<TRIPOS>ATOM
      1 C          46.5837   16.1560  -26.2603 C.2     1  UNL1       -0.0222
      2 C          46.9711   15.0084  -25.6341 C.2     1  UNL1       -0.0039
      3 C          48.1973   14.9590  -24.7984 C.ar    1  UNL1        0.0011
      4 C          49.4276   14.6219  -25.3764 C.ar    1  UNL1        0.0032
      5 C          50.5925   14.6255  -24.6074 C.ar    1  UNL1        0.0382
      6 C          50.5453   14.9634  -23.2413 C.ar    1  UNL1        0.1513
      7 C          49.3027   15.2525  -22.6467 C.ar    1  UNL1        0.0760
      8 N          49.2180   15.5827  -21.2556 N.pl3   1  UNL1       -0.3546
      9 C          48.1380   15.2468  -23.4263 C.ar    1  UNL1        0.0171
     10 H          50.0670   15.6079  -20.6486 H       1  UNL1        0.1424
     11 H          48.2975   15.8105  -20.8176 H       1  UNL1        0.1424
     12 O          51.7043   15.0248  -22.4499 O.3     1  UNL1       -0.4727
     13 C          52.3984   13.8988  -21.9097 C.3     1  UNL1        0.2227
     14 C          52.3615   13.9098  -20.3748 C.3     1  UNL1        0.1201
     15 N          51.8799   12.6136  -19.8485 N.3     1  UNL1       -0.2672
     16 C          52.0173   12.5536  -18.3834 C.3     1  UNL1        0.0898
     17 C          50.4734   12.3983  -20.2232 C.3     1  UNL1        0.0898
     18 C          46.1860   13.7561  -25.7287 C.ar    1  UNL1       -0.0003
     19 C          46.5172   12.7753  -26.6784 C.ar    1  UNL1       -0.0000
     20 C          45.7956   11.5791  -26.7349 C.ar    1  UNL1       -0.0000
     21 C          44.7520   11.3474  -25.8344 C.ar    1  UNL1       -0.0000
     22 C          44.4334   12.3086  -24.8710 C.ar    1  UNL1       -0.0000
     23 C          45.1529   13.5059  -24.8111 C.ar    1  UNL1       -0.0000
     24 C          47.4887   17.3370  -26.3143 C.ar    1  UNL1       -0.0040
     25 C          47.3100   18.4163  -25.4321 C.ar    1  UNL1       -0.0003
     26 C          48.1745   19.5145  -25.4765 C.ar    1  UNL1       -0.0000
     27 C          49.2179   19.5488  -26.4052 C.ar    1  UNL1       -0.0000
     28 C          49.3951   18.4878  -27.2963 C.ar    1  UNL1       -0.0000
     29 C          48.5325   17.3887  -27.2567 C.ar    1  UNL1       -0.0003
     30 C          45.3127   16.0152  -28.4378 C.3     1  UNL1        0.0050
     31 C          45.2304   16.2883  -26.9364 C.3     1  UNL1        0.0264
@<TRIPOS>BOND
     1    30    31    1
     2    31     1    1
     3     1     2    2
     4     2    18    1
     5    18    19   ar
     6    19    20   ar
     7    20    21   ar
     8    21    22   ar
     9    22    23   ar
    10     2     3    1
    11     3     4   ar
    12     4     5   ar
    13     5     6   ar
    14     6    12    1
    15    12    13    1
    16    13    14    1
    17    14    15    1
    18    15    16    1
    19    15    17    1
    20     6     7   ar
    21     7     8    1
    22     7     9   ar
    23     1    24    1
    24    24    25   ar
    25    25    26   ar
    26    26    27   ar
    27    27    28   ar
    28    28    29   ar
    29    23    18   ar
    30     9     3   ar
    31    29    24   ar
    32     8    10    1
    33     8    11    1
@<TRIPOS>MOLECULE
*****
 31 33 0 0 0
SMALL
GASTEIGER

@<TRIPOS>ATOM
      1 C          46.6147   15.1787  -26.5777 C.2     1  UNL1       -0.0222
      2 C          47.6283   15.7019  -25.8306 C.2     1  UNL1       -0.0039
      3 C          48.2395   14.9388  -24.7134 C.ar    1  UNL1        0.0011
      4 C          47.8789   15.2218  -23.3899 C.ar    1  UNL1        0.0032
      5 C          48.4099   14.4724  -22.3388 C.ar    1  UNL1        0.0382
      6 C          49.3173   13.4265  -22.5945 C.ar    1  UNL1        0.1513
      7 C          49.7204   13.1740  -23.9193 C.ar    1  UNL1        0.0760
      8 N          50.6552   12.1290  -24.2116 N.pl3   1  UNL1       -0.3546
      9 C          49.1820   13.9311  -24.9687 C.ar    1  UNL1        0.0171
     10 H          51.0665   11.5383  -23.4554 H       1  UNL1        0.1424
     11 H          50.9439   11.9330  -25.1960 H       1  UNL1        0.1424
     12 O          49.8328   12.6210  -21.5656 O.3     1  UNL1       -0.4727
     13 C          49.0552   11.8293  -20.6656 C.3     1  UNL1        0.2227
     14 C          49.6515   10.4233  -20.5081 C.3     1  UNL1        0.1201
     15 N          48.9002    9.4371  -21.3156 N.3     1  UNL1       -0.2672
     16 C          47.5652    9.9491  -21.6680 C.3     1  UNL1        0.0898
     17 C          49.6431    9.1052  -22.5416 C.3     1  UNL1        0.0898
     18 C          48.1939   17.0439  -26.1005 C.ar    1  UNL1       -0.0003
     19 C          47.5608   18.1979  -25.6098 C.ar    1  UNL1       -0.0000
     20 C          48.1226   19.4582  -25.8356 C.ar    1  UNL1       -0.0000
     21 C          49.3264   19.5730  -26.5365 C.ar    1  UNL1       -0.0000
     22 C          49.9742   18.4270  -27.0061 C.ar    1  UNL1       -0.0000
     23 C          49.4158   17.1650  -26.7819 C.ar    1  UNL1       -0.0000
     24 C          45.9333   13.9216  -26.1629 C.ar    1  UNL1       -0.0040
     25 C          46.1837   12.7154  -26.8393 C.ar    1  UNL1       -0.0003
     26 C          45.5538   11.5348  -26.4332 C.ar    1  UNL1       -0.0000
     27 C          44.6640   11.5493  -25.3560 C.ar    1  UNL1       -0.0000
     28 C          44.3969   12.7457  -24.6865 C.ar    1  UNL1       -0.0000
     29 C          45.0231   13.9285  -25.0897 C.ar    1  UNL1       -0.0003
     30 C          44.7499   16.4870  -27.6677 C.3     1  UNL1        0.0050
     31 C          46.1246   15.8451  -27.8512 C.3     1  UNL1        0.0264
@<TRIPOS>BOND
     1    30    31    1
     2    31     1    1
     3     1     2    2
     4     2    18    1
     5    18    19   ar
     6    19    20   ar
     7    20    21   ar
     8    21    22   ar
     9    22    23   ar
    10     2     3    1
    11     3     4   ar
    12     4     5   ar
    13     5     6   ar
    14     6    12    1
    15    12    13    1
    16    13    14    1
    17    14    15    1
    18    15    16    1
    19    15    17    1
    20     6     7   ar
    21     7     8    1
    22     7     9   ar
    23     1    24    1
    24    24    25   ar
    25    25    26   ar
    26    26    27   ar
    27    27    28   ar
    28    28    29   ar
    29    23    18   ar
    30     9     3   ar
    31    29    24   ar
    32     8    10    1
    33     8    11    1
@<TRIPOS>MOLECULE
*****
 31 33 0 0 0
SMALL
GASTEIGER

@<TRIPOS>ATOM
      1 C          47.6640   15.6709  -26.3349 C.2     1  UNL1       -0.0222
      2 C          47.5397   14.6601  -25.4282 C.2     1  UNL1       -0.0039
      3 C          48.4022   14.5926  -24.2216 C.ar    1  UNL1        0.0011
      4 C          48.1811   15.4678  -23.1508 C.ar    1  UNL1        0.0032
      5 C          48.9542   15.3741  -21.9924 C.ar    1  UNL1        0.0382
      6 C          49.9680   14.4027  -21.8871 C.ar    1  UNL1        0.1513
      7 C          50.2259   13.5560  -22.9816 C.ar    1  UNL1        0.0760
      8 N          51.2616   12.5691  -22.9133 N.pl3   1  UNL1       -0.3546
      9 C          49.4447   13.6568  -24.1408 C.ar    1  UNL1        0.0171
     10 H          51.8543   12.4590  -22.0609 H       1  UNL1        0.1424
     11 H          51.4439   11.9319  -23.7206 H       1  UNL1        0.1424
     12 O          50.7316   14.2484  -20.7181 O.3     1  UNL1       -0.4727
     13 C          50.2955   13.5945  -19.5249 C.3     1  UNL1        0.2227
     14 C          51.2938   12.5120  -19.0901 C.3     1  UNL1        0.1201
     15 N          50.5875   11.3046  -18.6079 N.3     1  UNL1       -0.2672
     16 C          49.6374   11.6411  -17.5342 C.3     1  UNL1        0.0898
     17 C          49.8722   10.6518  -19.7157 C.3     1  UNL1        0.0898
     18 C          46.5283   13.5884  -25.5773 C.ar    1  UNL1       -0.0003
     19 C          46.7168   12.5527  -26.5075 C.ar    1  UNL1       -0.0000
     20 C          45.7763   11.5237  -26.6144 C.ar    1  UNL1       -0.0000
     21 C          44.6526   11.5127  -25.7832 C.ar    1  UNL1       -0.0000
     22 C          44.4716   12.5268  -24.8386 C.ar    1  UNL1       -0.0000
     23 C          45.4100   13.5573  -24.7284 C.ar    1  UNL1       -0.0000
     24 C          48.8122   16.6163  -26.2687 C.ar    1  UNL1       -0.0040
     25 C          48.6357   17.9235  -25.7837 C.ar    1  UNL1       -0.0003
     26 C          49.7221   18.8006  -25.7077 C.ar    1  UNL1       -0.0000
     27 C          50.9899   18.3845  -26.1221 C.ar    1  UNL1       -0.0000
     28 C          51.1730   17.0922  -26.6196 C.ar    1  UNL1       -0.0000
     29 C          50.0898   16.2124  -26.6988 C.ar    1  UNL1       -0.0003
     30 C          45.4057   16.6083  -26.9658 C.3     1  UNL1        0.0050
     31 C          46.6577   15.8796  -27.4528 C.3     1  UNL1        0.0264
@<TRIPOS>BOND
     1    30    31    1
     2    31     1    1
     3     1     2    2
     4     2    18    1
     5    18    19   ar
     6    19    20   ar
     7    20    21   ar
     8    21    22   ar
     9    22    23   ar
    10     2     3    1
    11     3     4   ar
    12     4     5   ar
    13     5     6   ar
    14     6    12    1
    15    12    13    1
    16    13    14    1
    17    14    15    1
    18    15    16    1
    19    15    17    1
    20     6     7   ar
    21     7     8    1
    22     7     9   ar
    23     1    24    1
    24    24    25   ar
    25    25    26   ar
    26    26    27   ar
    27    27    28   ar
    28    28    29   ar
    29    23    18   ar
    30     9     3   ar
    31    29    24   ar
    32     8    10    1
    33     8    11    1
@<TRIPOS>MOLECULE
*****
 31 33 0 0 0
SMALL
GASTEIGER

@<TRIPOS>ATOM
      1 C          46.5284   15.2374  -26.6045 C.2     1  UNL1       -0.0222
      2 C          47.5353   15.7790  -25.8613 C.2     1  UNL1       -0.0039
      3 C          48.2267   14.9949  -24.8071 C.ar    1  UNL1        0.0011
      4 C          47.8560   15.1438  -23.4647 C.ar    1  UNL1        0.0032
      5 C          48.4655   14.3708  -22.4750 C.ar    1  UNL1        0.0382
      6 C          49.4627   13.4358  -22.8123 C.ar    1  UNL1        0.1513
      7 C          49.8729   13.3212  -24.1539 C.ar    1  UNL1        0.0760
      8 N          50.8970   12.3923  -24.5276 N.pl3   1  UNL1       -0.3546
      9 C          49.2554   14.1010  -25.1413 C.ar    1  UNL1        0.0171
     10 H          51.3694   11.7878  -23.8196 H       1  UNL1        0.1424
     11 H          51.1918   12.2978  -25.5252 H       1  UNL1        0.1424
     12 O          50.0618   12.6073  -21.8489 O.3     1  UNL1       -0.4727
     13 C          50.3458   12.9791  -20.4989 C.3     1  UNL1        0.2227
     14 C          49.8634   11.9035  -19.5151 C.3     1  UNL1        0.1201
     15 N          50.7963   11.7744  -18.3739 N.3     1  UNL1       -0.2672
     16 C          51.9799   12.6309  -18.5588 C.3     1  UNL1        0.0898
     17 C          50.1202   12.1285  -17.1159 C.3     1  UNL1        0.0898
     18 C          48.0139   17.1643  -26.0744 C.ar    1  UNL1       -0.0003
     19 C          49.0551   17.4291  -26.9795 C.ar    1  UNL1       -0.0000
     20 C          49.4744   18.7439  -27.2040 C.ar    1  UNL1       -0.0000
     21 C          48.8469   19.8021  -26.5406 C.ar    1  UNL1       -0.0000
     22 C          47.7939   19.5477  -25.6574 C.ar    1  UNL1       -0.0000
     23 C          47.3715   18.2343  -25.4306 C.ar    1  UNL1       -0.0000
     24 C          45.9345   13.9222  -26.2387 C.ar    1  UNL1       -0.0040
     25 C          45.0446   13.8152  -25.1562 C.ar    1  UNL1       -0.0003
     26 C          44.4767   12.5799  -24.8291 C.ar    1  UNL1       -0.0000
     27 C          44.7976   11.4414  -25.5727 C.ar    1  UNL1       -0.0000
     28 C          45.6924   11.5341  -26.6412 C.ar    1  UNL1       -0.0000
     29 C          46.2637   12.7664  -26.9710 C.ar    1  UNL1       -0.0003
     30 C          44.6038   16.5847  -27.5305 C.3     1  UNL1        0.0050
     31 C          45.9583   15.9404  -27.8238 C.3     1  UNL1        0.0264
@<TRIPOS>BOND
     1    30    31    1
     2    31     1    1
     3     1     2    2
     4     2    18    1
     5    18    19   ar
     6    19    20   ar
     7    20    21   ar
     8    21    22   ar
     9    22    23   ar
    10     2     3    1
    11     3     4   ar
    12     4     5   ar
    13     5     6   ar
    14     6    12    1
    15    12    13    1
    16    13    14    1
    17    14    15    1
    18    15    16    1
    19    15    17    1
    20     6     7   ar
    21     7     8    1
    22     7     9   ar
    23     1    24    1
    24    24    25   ar
    25    25    26   ar
    26    26    27   ar
    27    27    28   ar
    28    28    29   ar
    29    23    18   ar
    30     9     3   ar
    31    29    24   ar
    32     8    10    1
    33     8    11    1
@<TRIPOS>MOLECULE
*****
 31 33 0 0 0
SMALL
GASTEIGER

@<TRIPOS>ATOM
      1 C          48.4438   13.9014  -24.6583 C.2     1  UNL1       -0.0222
      2 C          49.3405   14.8301  -24.2192 C.2     1  UNL1       -0.0039
      3 C          50.1551   14.6026  -22.9991 C.ar    1  UNL1        0.0011
      4 C          49.6363   14.9243  -21.7385 C.ar    1  UNL1        0.0032
      5 C          50.3762   14.6636  -20.5840 C.ar    1  UNL1        0.0382
      6 C          51.6540   14.0786  -20.6716 C.ar    1  UNL1        0.1513
      7 C          52.1984   13.8019  -21.9399 C.ar    1  UNL1        0.0760
      8 N          53.5027   13.2233  -22.0642 N.pl3   1  UNL1       -0.3546
      9 C          51.4485   14.0667  -23.0939 C.ar    1  UNL1        0.0171
     10 H          54.0833   13.0025  -21.2252 H       1  UNL1        0.1424
     11 H          53.9009   13.0055  -23.0049 H       1  UNL1        0.1424
     12 O          52.4050   13.7578  -19.5287 O.3     1  UNL1       -0.4727
     13 C          52.3645   12.5092  -18.8353 C.3     1  UNL1        0.2227
     14 C          51.4429   12.5860  -17.6096 C.3     1  UNL1        0.1201
     15 N          50.4373   11.5010  -17.6356 N.3     1  UNL1       -0.2672
     16 C          49.2949   11.8176  -16.7618 C.3     1  UNL1        0.0898
     17 C          49.9621   11.2746  -19.0097 C.3     1  UNL1        0.0898
     18 C          49.5727   16.1029  -24.9401 C.ar    1  UNL1       -0.0003
     19 C          50.6058   16.2099  -25.8859 C.ar    1  UNL1       -0.0000
     20 C          50.7934   17.4029  -26.5905 C.ar    1  UNL1       -0.0000
     21 C          49.9419   18.4889  -26.3682 C.ar    1  UNL1       -0.0000
     22 C          48.8968   18.3809  -25.4465 C.ar    1  UNL1       -0.0000
     23 C          48.7058   17.1894  -24.7403 C.ar    1  UNL1       -0.0000
     24 C          48.0855   12.7294  -23.8129 C.ar    1  UNL1       -0.0040
     25 C          48.7593   11.5053  -23.9642 C.ar    1  UNL1       -0.0003
     26 C          48.4298   10.4138  -23.1547 C.ar    1  UNL1       -0.0000
     27 C          47.4215   10.5315  -22.1947 C.ar    1  UNL1       -0.0000
     28 C          46.7356   11.7392  -22.0464 C.ar    1  UNL1       -0.0000
     29 C          47.0605   12.8326  -22.8543 C.ar    1  UNL1       -0.0003
     30 C          46.3091   14.4680  -25.8825 C.3     1  UNL1        0.0050
     31 C          47.7628   14.0144  -26.0108 C.3     1  UNL1        0.0264
@<TRIPOS>BOND
     1    30    31    1
     2    31     1    1
     3     1     2    2
     4     2    18    1
     5    18    19   ar
     6    19    20   ar
     7    20    21   ar
     8    21    22   ar
     9    22    23   ar
    10     2     3    1
    11     3     4   ar
    12     4     5   ar
    13     5     6   ar
    14     6    12    1
    15    12    13    1
    16    13    14    1
    17    14    15    1
    18    15    16    1
    19    15    17    1
    20     6     7   ar
    21     7     8    1
    22     7     9   ar
    23     1    24    1
    24    24    25   ar
    25    25    26   ar
    26    26    27   ar
    27    27    28   ar
    28    28    29   ar
    29    23    18   ar
    30     9     3   ar
    31    29    24   ar
    32     8    10    1
    33     8    11    1
@<TRIPOS>MOLECULE
*****
 31 33 0 0 0
SMALL
GASTEIGER

@<TRIPOS>ATOM
      1 C          48.7692   15.2806  -23.0656 C.2     1  UNL1       -0.0222
      2 C          49.6295   15.1573  -24.1164 C.2     1  UNL1       -0.0039
      3 C          50.2224   13.8460  -24.4811 C.ar    1  UNL1        0.0011
      4 C          49.5218   12.9667  -25.3164 C.ar    1  UNL1        0.0032
      5 C          50.0964   11.7557  -25.7057 C.ar    1  UNL1        0.0382
      6 C          51.3842   11.4004  -25.2608 C.ar    1  UNL1        0.1513
      7 C          52.0688   12.2589  -24.3801 C.ar    1  UNL1        0.0760
      8 N          53.3728   11.9187  -23.8951 N.pl3   1  UNL1       -0.3546
      9 C          51.4846   13.4731  -23.9945 C.ar    1  UNL1        0.0171
     10 H          53.8421   11.0281  -24.1716 H       1  UNL1        0.1424
     11 H          53.8863   12.5623  -23.2523 H       1  UNL1        0.1424
     12 O          52.0119   10.2130  -25.6721 O.3     1  UNL1       -0.4727
     13 C          51.8344    9.5793  -26.9403 C.3     1  UNL1        0.2227
     14 C          52.5563   10.3538  -28.0523 C.3     1  UNL1        0.1201
     15 N          52.5191    9.6049  -29.3278 N.3     1  UNL1       -0.2672
     16 C          53.8341    9.0172  -29.6346 C.3     1  UNL1        0.0898
     17 C          51.5030    8.5422  -29.2695 C.3     1  UNL1        0.0898
     18 C          50.0041   16.3104  -24.9670 C.ar    1  UNL1       -0.0003
     19 C          51.0573   17.1616  -24.5932 C.ar    1  UNL1       -0.0000
     20 C          51.4301   18.2246  -25.4212 C.ar    1  UNL1       -0.0000
     21 C          50.7667   18.4342  -26.6335 C.ar    1  UNL1       -0.0000
     22 C          49.7343   17.5763  -27.0231 C.ar    1  UNL1       -0.0000
     23 C          49.3589   16.5119  -26.1979 C.ar    1  UNL1       -0.0000
     24 C          48.5674   14.1564  -22.1107 C.ar    1  UNL1       -0.0040
     25 C          49.4023   14.0112  -20.9895 C.ar    1  UNL1       -0.0003
     26 C          49.1959   12.9632  -20.0871 C.ar    1  UNL1       -0.0000
     27 C          48.1619   12.0479  -20.2996 C.ar    1  UNL1       -0.0000
     28 C          47.3357   12.1746  -21.4187 C.ar    1  UNL1       -0.0000
     29 C          47.5390   13.2197  -22.3243 C.ar    1  UNL1       -0.0003
     30 C          46.6808   16.5957  -23.6003 C.3     1  UNL1        0.0050
     31 C          47.9877   16.5570  -22.8089 C.3     1  UNL1        0.0264
@<TRIPOS>BOND
     1    30    31    1
     2    31     1    1
     3     1     2    2
     4     2    18    1
     5    18    19   ar
     6    19    20   ar
     7    20    21   ar
     8    21    22   ar
     9    22    23   ar
    10     2     3    1
    11     3     4   ar
    12     4     5   ar
    13     5     6   ar
    14     6    12    1
    15    12    13    1
    16    13    14    1
    17    14    15    1
    18    15    16    1
    19    15    17    1
    20     6     7   ar
    21     7     8    1
    22     7     9   ar
    23     1    24    1
    24    24    25   ar
    25    25    26   ar
    26    26    27   ar
    27    27    28   ar
    28    28    29   ar
    29    23    18   ar
    30     9     3   ar
    31    29    24   ar
    32     8    10    1
    33     8    11    1
@<TRIPOS>MOLECULE
*****
 31 33 0 0 0
SMALL
GASTEIGER

@<TRIPOS>ATOM
      1 C          46.5470   14.6387  -27.0729 C.2     1  UNL1       -0.0222
      2 C          46.7768   13.2946  -27.0755 C.2     1  UNL1       -0.0039
      3 C          47.2446   12.5874  -25.8568 C.ar    1  UNL1        0.0011
      4 C          48.5410   12.0597  -25.8055 C.ar    1  UNL1        0.0032
      5 C          49.0047   11.4405  -24.6436 C.ar    1  UNL1        0.0382
      6 C          48.1749   11.3344  -23.5110 C.ar    1  UNL1        0.1513
      7 C          46.8548   11.8182  -23.5777 C.ar    1  UNL1        0.0760
      8 N          45.9795   11.7100  -22.4492 N.pl3   1  UNL1       -0.3546
      9 C          46.3974   12.4387  -24.7482 C.ar    1  UNL1        0.0171
     10 H          46.2915   11.2644  -21.5581 H       1  UNL1        0.1424
     11 H          45.0043   12.0812  -22.4943 H       1  UNL1        0.1424
     12 O          48.6255   10.7618  -22.3100 O.3     1  UNL1       -0.4727
     13 C          49.8340   11.1072  -21.6306 C.3     1  UNL1        0.2227
     14 C          49.7997   12.5633  -21.1449 C.3     1  UNL1        0.1201
     15 N          50.8765   13.3569  -21.7771 N.3     1  UNL1       -0.2672
     16 C          50.3194   14.4474  -22.5950 C.3     1  UNL1        0.0898
     17 C          51.7724   13.9147  -20.7518 C.3     1  UNL1        0.0898
     18 C          46.5528   12.4597  -28.2781 C.ar    1  UNL1       -0.0003
     19 C          46.1735   13.0483  -29.4959 C.ar    1  UNL1       -0.0000
     20 C          46.0023   12.2575  -30.6361 C.ar    1  UNL1       -0.0000
     21 C          46.2248   10.8790  -30.5722 C.ar    1  UNL1       -0.0000
     22 C          46.6263   10.2905  -29.3698 C.ar    1  UNL1       -0.0000
     23 C          46.7990   11.0780  -28.2276 C.ar    1  UNL1       -0.0000
     24 C          46.9685   15.4812  -25.9201 C.ar    1  UNL1       -0.0040
     25 C          46.1681   15.5700  -24.7683 C.ar    1  UNL1       -0.0003
     26 C          46.5787   16.3491  -23.6821 C.ar    1  UNL1       -0.0000
     27 C          47.7851   17.0516  -23.7390 C.ar    1  UNL1       -0.0000
     28 C          48.5808   16.9819  -24.8848 C.ar    1  UNL1       -0.0000
     29 C          48.1739   16.2055  -25.9736 C.ar    1  UNL1       -0.0003
     30 C          44.8566   16.3855  -27.7569 C.3     1  UNL1        0.0050
     31 C          45.8667   15.3426  -28.2338 C.3     1  UNL1        0.0264
@<TRIPOS>BOND
     1    30    31    1
     2    31     1    1
     3     1     2    2
     4     2    18    1
     5    18    19   ar
     6    19    20   ar
     7    20    21   ar
     8    21    22   ar
     9    22    23   ar
    10     2     3    1
    11     3     4   ar
    12     4     5   ar
    13     5     6   ar
    14     6    12    1
    15    12    13    1
    16    13    14    1
    17    14    15    1
    18    15    16    1
    19    15    17    1
    20     6     7   ar
    21     7     8    1
    22     7     9   ar
    23     1    24    1
    24    24    25   ar
    25    25    26   ar
    26    26    27   ar
    27    27    28   ar
    28    28    29   ar
    29    23    18   ar
    30     9     3   ar
    31    29    24   ar
    32     8    10    1
    33     8    11    1
@<TRIPOS>MOLECULE
*****
 31 33 0 0 0
SMALL
GASTEIGER

@<TRIPOS>ATOM
      1 C          46.1374   15.4668  -26.4707 C.2     1  UNL1       -0.0222
      2 C          47.2933   15.9745  -25.9555 C.2     1  UNL1       -0.0039
      3 C          48.2691   15.1098  -25.2454 C.ar    1  UNL1        0.0011
      4 C          49.3527   14.5571  -25.9397 C.ar    1  UNL1        0.0032
      5 C          50.3026   13.7872  -25.2665 C.ar    1  UNL1        0.0382
      6 C          50.1818   13.5526  -23.8835 C.ar    1  UNL1        0.1513
      7 C          49.0664   14.0641  -23.1939 C.ar    1  UNL1        0.0760
      8 N          48.9047   13.8286  -21.7904 N.pl3   1  UNL1       -0.3546
      9 C          48.1175   14.8364  -23.8774 C.ar    1  UNL1        0.0171
     10 H          49.5986   13.2679  -21.2481 H       1  UNL1        0.1424
     11 H          48.0840   14.2197  -21.2761 H       1  UNL1        0.1424
     12 O          51.1449   12.8240  -23.1658 O.3     1  UNL1       -0.4727
     13 C          51.6180   11.5193  -23.5050 C.3     1  UNL1        0.2227
     14 C          50.4503   10.5487  -23.7329 C.3     1  UNL1        0.1201
     15 N          50.7732    9.5744  -24.7986 N.3     1  UNL1       -0.2672
     16 C          50.3854   10.0904  -26.1223 C.3     1  UNL1        0.0898
     17 C          52.2112    9.2627  -24.7904 C.3     1  UNL1        0.0898
     18 C          47.6553   17.4041  -26.0922 C.ar    1  UNL1       -0.0003
     19 C          47.1774   18.3530  -25.1732 C.ar    1  UNL1       -0.0000
     20 C          47.5557   19.6943  -25.2864 C.ar    1  UNL1       -0.0000
     21 C          48.4253   20.0931  -26.3054 C.ar    1  UNL1       -0.0000
     22 C          48.9240   19.1498  -27.2082 C.ar    1  UNL1       -0.0000
     23 C          48.5483   17.8076  -27.0980 C.ar    1  UNL1       -0.0000
     24 C          45.7043   14.0795  -26.1477 C.ar    1  UNL1       -0.0040
     25 C          46.1403   12.9941  -26.9269 C.ar    1  UNL1       -0.0003
     26 C          45.7439   11.6918  -26.6072 C.ar    1  UNL1       -0.0000
     27 C          44.9040   11.4624  -25.5144 C.ar    1  UNL1       -0.0000
     28 C          44.4532   12.5357  -24.7425 C.ar    1  UNL1       -0.0000
     29 C          44.8455   13.8394  -25.0590 C.ar    1  UNL1       -0.0003
     30 C          45.5798   16.0770  -28.8569 C.3     1  UNL1        0.0050
     31 C          45.2351   16.2802  -27.3819 C.3     1  UNL1        0.0264
@<TRIPOS>BOND
     1    30    31    1
     2    31     1    1
     3     1     2    2
     4     2    18    1
     5    18    19   ar
     6    19    20   ar
     7    20    21   ar
     8    21    22   ar
     9    22    23   ar
    10     2     3    1
    11     3     4   ar
    12     4     5   ar
    13     5     6   ar
    14     6    12    1
    15    12    13    1
    16    13    14    1
    17    14    15    1
    18    15    16    1
    19    15    17    1
    20     6     7   ar
    21     7     8    1
    22     7     9   ar
    23     1    24    1
    24    24    25   ar
    25    25    26   ar
    26    26    27   ar
    27    27    28   ar
    28    28    29   ar
    29    23    18   ar
    30     9     3   ar
    31    29    24   ar
    32     8    10    1
    33     8    11    1
