@<TRIPOS>MOLECULE
*****
 34 38 0 0 0
SMALL
GASTEIGER

@<TRIPOS>ATOM
      1 C           6.5439   73.9044   20.4344 C.2     1  UNL1        0.2491
      2 O           6.5984   72.9109   19.6592 O.2     1  UNL1       -0.2699
      3 N           7.6673   74.1964   21.2851 N.am    1  UNL1       -0.2760
      4 C           8.4302   73.0912   21.8761 C.3     1  UNL1        0.0954
      5 C           9.2948   73.5708   23.0590 C.3     1  UNL1        0.0399
      6 C           8.6795   74.7928   23.7892 C.3     1  UNL1        0.0645
      7 C           8.5199   75.9799   22.7858 C.3     1  UNL1        0.0399
      8 C           8.2316   75.5486   21.3350 C.3     1  UNL1        0.0954
      9 C           9.6378   75.2202   24.9544 C.3     1  UNL1        0.0477
     10 C           8.9418   76.1793   25.8745 C.ar    1  UNL1        0.0220
     11 C           9.4381   77.0814   26.7861 C.ar    1  UNL1        0.0923
     12 N           8.3901   77.5800   27.4900 N.ar    1  UNL1       -0.2534
     13 N           7.2626   77.0016   27.0846 N.ar    1  UNL1       -0.1651
     14 C           7.5994   76.1498   26.1015 C.ar    1  UNL1        0.1515
     15 C           6.7379   75.2319   25.3719 C.2     1  UNL1        0.2650
     16 O           5.5158   75.1128   25.6510 O.2     1  UNL1       -0.2684
     17 N           7.3441   74.4384   24.3388 N.am    1  UNL1       -0.3023
     18 H           6.7945   73.6406   23.9495 H       1  UNL1        0.1497
     19 C           2.0335   77.1691   23.0164 C.ar    1  UNL1        0.2249
     20 C           1.3307   77.5003   21.8534 C.ar    1  UNL1        0.0577
     21 C           1.7953   77.0527   20.6140 C.ar    1  UNL1        0.0063
     22 C           2.9602   76.2777   20.5454 C.ar    1  UNL1        0.0179
     23 C           3.4545   75.8063   19.3217 C.ar    1  UNL1        0.0016
     24 C           4.6210   75.0344   19.2875 C.ar    1  UNL1        0.0046
     25 C           5.3137   74.7312   20.4738 C.ar    1  UNL1        0.0551
     26 C           4.8055   75.1947   21.6997 C.ar    1  UNL1        0.0237
     27 C           3.6419   75.9661   21.7401 C.ar    1  UNL1        0.0845
     28 N           3.1645   76.4144   22.9317 N.ar    1  UNL1       -0.2117
     29 C           2.3981   77.6948   25.4074 C.3     1  UNL1        0.2542
     30 O           1.5663   77.6176   24.2552 O.3     1  UNL1       -0.4561
     31 C           8.4745   78.5576   28.5934 C.3     1  UNL1        0.0867
     32 C           8.7985   77.8462   29.9252 C.3     1  UNL1        0.0244
     33 C           7.1264   79.2893   28.7420 C.3     1  UNL1        0.0244
     34 C           9.5881   79.5760   28.2882 C.3     1  UNL1        0.0244
@<TRIPOS>BOND
     1    29    30    1
     2    30    19    1
     3    19    20   ar
     4    20    21   ar
     5    21    22   ar
     6    22    23   ar
     7    23    24   ar
     8    24    25   ar
     9    25     1    1
    10     1     2    2
    11     1     3   am
    12     3     4    1
    13     4     5    1
    14     5     6    1
    15     6     7    1
    16     7     8    1
    17     6     9    1
    18     9    10    1
    19    10    11   ar
    20    11    12   ar
    21    12    31    1
    22    31    32    1
    23    31    33    1
    24    31    34    1
    25    12    13   ar
    26    13    14   ar
    27    14    15    1
    28    15    16    2
    29    15    17   am
    30    25    26   ar
    31    26    27   ar
    32    27    28   ar
    33    28    19   ar
    34    27    22   ar
    35     8     3    1
    36    14    10   ar
    37    17     6    1
    38    17    18    1
@<TRIPOS>MOLECULE
*****
 34 38 0 0 0
SMALL
GASTEIGER

@<TRIPOS>ATOM
      1 C           9.3887   75.9833   28.2541 C.2     1  UNL1        0.2491
      2 O           9.8792   75.4341   29.2783 O.2     1  UNL1       -0.2699
      3 N           8.0076   76.3875   28.2650 N.am    1  UNL1       -0.2760
      4 C           7.0182   75.5541   28.9573 C.3     1  UNL1        0.0954
      5 C           5.5819   75.8971   28.5145 C.3     1  UNL1        0.0399
      6 C           5.5186   76.4293   27.0591 C.3     1  UNL1        0.0645
      7 C           6.3918   77.7187   26.9319 C.3     1  UNL1        0.0399
      8 C           7.6252   77.7421   27.8551 C.3     1  UNL1        0.0954
      9 C           4.0286   76.7721   26.7109 C.3     1  UNL1        0.0477
     10 C           3.8755   76.9831   25.2335 C.ar    1  UNL1        0.0220
     11 C           2.9031   77.6296   24.5071 C.ar    1  UNL1        0.0923
     12 N           3.1345   77.3841   23.1923 N.ar    1  UNL1       -0.2534
     13 N           4.1876   76.5809   23.0653 N.ar    1  UNL1       -0.1651
     14 C           4.6377   76.3378   24.3077 C.ar    1  UNL1        0.1515
     15 C           5.7304   75.4673   24.7145 C.2     1  UNL1        0.2650
     16 O           6.3690   74.7766   23.8774 O.2     1  UNL1       -0.2684
     17 N           6.0325   75.3996   26.1176 N.am    1  UNL1       -0.3023
     18 H           6.6678   74.6381   26.4445 H       1  UNL1        0.1497
     19 C          14.0543   78.2157   24.9501 C.ar    1  UNL1        0.2249
     20 C          13.7585   77.5924   23.7334 C.ar    1  UNL1        0.0577
     21 C          12.6411   76.7589   23.6376 C.ar    1  UNL1        0.0063
     22 C          11.8273   76.5534   24.7590 C.ar    1  UNL1        0.0179
     23 C          10.6957   75.7288   24.7007 C.ar    1  UNL1        0.0016
     24 C           9.9035   75.5442   25.8392 C.ar    1  UNL1        0.0046
     25 C          10.2365   76.1733   27.0526 C.ar    1  UNL1        0.0551
     26 C          11.3645   77.0105   27.1015 C.ar    1  UNL1        0.0237
     27 C          12.1594   77.1982   25.9686 C.ar    1  UNL1        0.0845
     28 N          13.2522   78.0049   26.0308 N.ar    1  UNL1       -0.2117
     29 C          16.0551   79.2750   23.9498 C.3     1  UNL1        0.2542
     30 O          15.1724   79.0495   25.0432 O.3     1  UNL1       -0.4561
     31 C           2.3104   77.8617   22.0640 C.3     1  UNL1        0.0867
     32 C           0.9170   78.3060   22.5594 C.3     1  UNL1        0.0244
     33 C           2.1285   76.7263   21.0379 C.3     1  UNL1        0.0244
     34 C           3.0076   79.0603   21.3950 C.3     1  UNL1        0.0244
@<TRIPOS>BOND
     1    29    30    1
     2    30    19    1
     3    19    20   ar
     4    20    21   ar
     5    21    22   ar
     6    22    23   ar
     7    23    24   ar
     8    24    25   ar
     9    25     1    1
    10     1     2    2
    11     1     3   am
    12     3     4    1
    13     4     5    1
    14     5     6    1
    15     6     7    1
    16     7     8    1
    17     6     9    1
    18     9    10    1
    19    10    11   ar
    20    11    12   ar
    21    12    31    1
    22    31    32    1
    23    31    33    1
    24    31    34    1
    25    12    13   ar
    26    13    14   ar
    27    14    15    1
    28    15    16    2
    29    15    17   am
    30    25    26   ar
    31    26    27   ar
    32    27    28   ar
    33    28    19   ar
    34    27    22   ar
    35     8     3    1
    36    14    10   ar
    37    17     6    1
    38    17    18    1
@<TRIPOS>MOLECULE
*****
 34 38 0 0 0
SMALL
GASTEIGER

@<TRIPOS>ATOM
      1 C           9.1629   75.8412   28.4647 C.2     1  UNL1        0.2491
      2 O           9.6363   75.2249   29.4583 O.2     1  UNL1       -0.2699
      3 N           7.7542   76.1319   28.4221 N.am    1  UNL1       -0.2760
      4 C           6.7999   75.1534   28.9556 C.3     1  UNL1        0.0954
      5 C           5.3687   75.4281   28.4529 C.3     1  UNL1        0.0399
      6 C           5.3476   76.1076   27.0589 C.3     1  UNL1        0.0645
      7 C           6.1134   77.4680   27.1249 C.3     1  UNL1        0.0399
      8 C           7.2827   77.4886   28.1281 C.3     1  UNL1        0.0954
      9 C           3.8573   76.3677   26.6462 C.3     1  UNL1        0.0477
     10 C           3.7756   76.7243   25.1912 C.ar    1  UNL1        0.0220
     11 C           2.7968   77.3669   24.4700 C.ar    1  UNL1        0.0923
     12 N           3.1267   77.2838   23.1559 N.ar    1  UNL1       -0.2534
     13 N           4.2504   76.5843   23.0198 N.ar    1  UNL1       -0.1651
     14 C           4.6443   76.2448   24.2586 C.ar    1  UNL1        0.1515
     15 C           5.7810   75.4241   24.6480 C.2     1  UNL1        0.2650
     16 O           6.5254   74.8802   23.7903 O.2     1  UNL1       -0.2684
     17 N           6.0031   75.2293   26.0541 N.am    1  UNL1       -0.3023
     18 H           6.6804   74.4894   26.3440 H       1  UNL1        0.1497
     19 C          11.8261   75.3615   22.9560 C.ar    1  UNL1        0.2249
     20 C          12.6554   76.4852   23.0325 C.ar    1  UNL1        0.0577
     21 C          12.6389   77.2794   24.1820 C.ar    1  UNL1        0.0063
     22 C          11.7927   76.9454   25.2472 C.ar    1  UNL1        0.0179
     23 C          11.7519   77.7143   26.4181 C.ar    1  UNL1        0.0016
     24 C          10.8952   77.3536   27.4640 C.ar    1  UNL1        0.0046
     25 C          10.0619   76.2259   27.3501 C.ar    1  UNL1        0.0551
     26 C          10.1175   75.4503   26.1791 C.ar    1  UNL1        0.0237
     27 C          10.9701   75.8056   25.1316 C.ar    1  UNL1        0.0845
     28 N          11.0093   75.0511   24.0012 N.ar    1  UNL1       -0.2117
     29 C          11.7886   73.1470   21.8512 C.3     1  UNL1        0.2542
     30 O          11.8448   74.5684   21.8051 O.3     1  UNL1       -0.4561
     31 C           2.3340   77.8140   22.0287 C.3     1  UNL1        0.0867
     32 C           0.9509   78.2966   22.5173 C.3     1  UNL1        0.0244
     33 C           2.1253   76.7079   20.9761 C.3     1  UNL1        0.0244
     34 C           3.0809   79.0014   21.3942 C.3     1  UNL1        0.0244
@<TRIPOS>BOND
     1    29    30    1
     2    30    19    1
     3    19    20   ar
     4    20    21   ar
     5    21    22   ar
     6    22    23   ar
     7    23    24   ar
     8    24    25   ar
     9    25     1    1
    10     1     2    2
    11     1     3   am
    12     3     4    1
    13     4     5    1
    14     5     6    1
    15     6     7    1
    16     7     8    1
    17     6     9    1
    18     9    10    1
    19    10    11   ar
    20    11    12   ar
    21    12    31    1
    22    31    32    1
    23    31    33    1
    24    31    34    1
    25    12    13   ar
    26    13    14   ar
    27    14    15    1
    28    15    16    2
    29    15    17   am
    30    25    26   ar
    31    26    27   ar
    32    27    28   ar
    33    28    19   ar
    34    27    22   ar
    35     8     3    1
    36    14    10   ar
    37    17     6    1
    38    17    18    1
@<TRIPOS>MOLECULE
*****
 34 38 0 0 0
SMALL
GASTEIGER

@<TRIPOS>ATOM
      1 C          12.3330   76.6446   23.1586 C.2     1  UNL1        0.2491
      2 O          13.4452   76.8876   22.6156 O.2     1  UNL1       -0.2699
      3 N          11.7493   77.6236   24.0370 N.am    1  UNL1       -0.2760
      4 C          12.6192   78.4121   24.9169 C.3     1  UNL1        0.0954
      5 C          11.8186   79.0773   26.0542 C.3     1  UNL1        0.0399
      6 C          10.5592   78.2636   26.4505 C.3     1  UNL1        0.0645
      7 C           9.6186   78.1132   25.2120 C.3     1  UNL1        0.0399
      8 C          10.3562   78.0452   23.8609 C.3     1  UNL1        0.0954
      9 C           9.8018   79.0284   27.5907 C.3     1  UNL1        0.0477
     10 C           8.7708   78.1374   28.2183 C.ar    1  UNL1        0.0220
     11 C           7.6555   78.4309   28.9675 C.ar    1  UNL1        0.0923
     12 N           7.1568   77.2624   29.4456 N.ar    1  UNL1       -0.2534
     13 N           7.9330   76.2530   29.0594 N.ar    1  UNL1       -0.1651
     14 C           8.9143   76.7865   28.3126 C.ar    1  UNL1        0.1515
     15 C          10.0527   76.1117   27.7077 C.2     1  UNL1        0.2650
     16 O          10.2590   74.8820   27.8832 O.2     1  UNL1       -0.2684
     17 N          10.9552   76.9119   26.9269 N.am    1  UNL1       -0.3023
     18 H          11.8732   76.4925   26.6590 H       1  UNL1        0.1497
     19 C           7.7840   72.8837   21.4762 C.ar    1  UNL1        0.2249
     20 C           8.4269   71.6655   21.7191 C.ar    1  UNL1        0.0577
     21 C           9.7361   71.6602   22.2072 C.ar    1  UNL1        0.0063
     22 C          10.3943   72.8730   22.4485 C.ar    1  UNL1        0.0179
     23 C          11.7053   72.9084   22.9426 C.ar    1  UNL1        0.0016
     24 C          12.3346   74.1366   23.1728 C.ar    1  UNL1        0.0046
     25 C          11.6662   75.3450   22.9037 C.ar    1  UNL1        0.0551
     26 C          10.3464   75.3035   22.4217 C.ar    1  UNL1        0.0237
     27 C           9.7132   74.0805   22.1895 C.ar    1  UNL1        0.0845
     28 N           8.4388   74.0539   21.7163 N.ar    1  UNL1       -0.2117
     29 C           6.0346   73.7814   19.9729 C.3     1  UNL1        0.2542
     30 O           6.4741   72.8862   20.9883 O.3     1  UNL1       -0.4561
     31 C           5.9795   77.1185   30.3250 C.3     1  UNL1        0.0867
     32 C           5.6140   75.6288   30.5032 C.3     1  UNL1        0.0244
     33 C           4.7744   77.8494   29.7016 C.3     1  UNL1        0.0244
     34 C           6.2971   77.7227   31.7050 C.3     1  UNL1        0.0244
@<TRIPOS>BOND
     1    29    30    1
     2    30    19    1
     3    19    20   ar
     4    20    21   ar
     5    21    22   ar
     6    22    23   ar
     7    23    24   ar
     8    24    25   ar
     9    25     1    1
    10     1     2    2
    11     1     3   am
    12     3     4    1
    13     4     5    1
    14     5     6    1
    15     6     7    1
    16     7     8    1
    17     6     9    1
    18     9    10    1
    19    10    11   ar
    20    11    12   ar
    21    12    31    1
    22    31    32    1
    23    31    33    1
    24    31    34    1
    25    12    13   ar
    26    13    14   ar
    27    14    15    1
    28    15    16    2
    29    15    17   am
    30    25    26   ar
    31    26    27   ar
    32    27    28   ar
    33    28    19   ar
    34    27    22   ar
    35     8     3    1
    36    14    10   ar
    37    17     6    1
    38    17    18    1
@<TRIPOS>MOLECULE
*****
 34 38 0 0 0
SMALL
GASTEIGER

@<TRIPOS>ATOM
      1 C           7.3900   75.3196   29.1555 C.2     1  UNL1        0.2491
      2 O           7.3852   74.3988   30.0176 O.2     1  UNL1       -0.2699
      3 N           6.6299   75.1545   27.9447 N.am    1  UNL1       -0.2760
      4 C           6.5488   73.8296   27.3197 C.3     1  UNL1        0.0954
      5 C           6.0741   73.9238   25.8559 C.3     1  UNL1        0.0399
      6 C           6.4745   75.2636   25.1852 C.3     1  UNL1        0.0645
      7 C           5.8523   76.4564   25.9799 C.3     1  UNL1        0.0399
      8 C           5.7115   76.2044   27.4934 C.3     1  UNL1        0.0954
      9 C           5.9291   75.2755   23.7151 C.3     1  UNL1        0.0477
     10 C           6.5561   76.3946   22.9372 C.ar    1  UNL1        0.0220
     11 C           6.1624   77.0246   21.7799 C.ar    1  UNL1        0.0923
     12 N           7.1679   77.8506   21.3938 N.ar    1  UNL1       -0.2534
     13 N           8.1898   77.7372   22.2383 N.ar    1  UNL1       -0.1651
     14 C           7.8164   76.8514   23.1769 C.ar    1  UNL1        0.1515
     15 C           8.5998   76.3347   24.2889 C.2     1  UNL1        0.2650
     16 O           9.8042   76.6626   24.4547 O.2     1  UNL1       -0.2684
     17 N           7.9545   75.4059   25.1751 N.am    1  UNL1       -0.3023
     18 H           8.5524   74.8765   25.8479 H       1  UNL1        0.1497
     19 C           8.8072   80.7383   31.6650 C.ar    1  UNL1        0.2249
     20 C          10.0090   80.9682   30.9873 C.ar    1  UNL1        0.0577
     21 C          10.4724   80.0278   30.0636 C.ar    1  UNL1        0.0063
     22 C           9.7316   78.8632   29.8241 C.ar    1  UNL1        0.0179
     23 C          10.1612   77.8995   28.9017 C.ar    1  UNL1        0.0016
     24 C           9.3980   76.7468   28.6857 C.ar    1  UNL1        0.0046
     25 C           8.2011   76.5375   29.3947 C.ar    1  UNL1        0.0551
     26 C           7.7679   77.5142   30.3082 C.ar    1  UNL1        0.0237
     27 C           8.5256   78.6665   30.5284 C.ar    1  UNL1        0.0845
     28 N           8.0994   79.6004   31.4200 N.ar    1  UNL1       -0.2117
     29 C           9.1523   82.7558   33.0565 C.3     1  UNL1        0.2542
     30 O           8.3456   81.6809   32.5882 O.3     1  UNL1       -0.4561
     31 C           7.1779   78.6958   20.1831 C.3     1  UNL1        0.0867
     32 C           6.1185   78.2072   19.1713 C.3     1  UNL1        0.0244
     33 C           8.5647   78.6274   19.5146 C.3     1  UNL1        0.0244
     34 C           6.8603   80.1506   20.5743 C.3     1  UNL1        0.0244
@<TRIPOS>BOND
     1    29    30    1
     2    30    19    1
     3    19    20   ar
     4    20    21   ar
     5    21    22   ar
     6    22    23   ar
     7    23    24   ar
     8    24    25   ar
     9    25     1    1
    10     1     2    2
    11     1     3   am
    12     3     4    1
    13     4     5    1
    14     5     6    1
    15     6     7    1
    16     7     8    1
    17     6     9    1
    18     9    10    1
    19    10    11   ar
    20    11    12   ar
    21    12    31    1
    22    31    32    1
    23    31    33    1
    24    31    34    1
    25    12    13   ar
    26    13    14   ar
    27    14    15    1
    28    15    16    2
    29    15    17   am
    30    25    26   ar
    31    26    27   ar
    32    27    28   ar
    33    28    19   ar
    34    27    22   ar
    35     8     3    1
    36    14    10   ar
    37    17     6    1
    38    17    18    1
@<TRIPOS>MOLECULE
*****
 34 38 0 0 0
SMALL
GASTEIGER

@<TRIPOS>ATOM
      1 C          10.9728   76.6708   26.8574 C.2     1  UNL1        0.2491
      2 O          11.9274   77.3483   27.3273 O.2     1  UNL1       -0.2699
      3 N          10.7991   76.5939   25.4309 N.am    1  UNL1       -0.2760
      4 C          11.0816   77.7738   24.6059 C.3     1  UNL1        0.0954
      5 C          10.4502   77.6479   23.2051 C.3     1  UNL1        0.0399
      6 C           9.1643   76.7807   23.2075 C.3     1  UNL1        0.0645
      7 C           9.4989   75.3449   23.7252 C.3     1  UNL1        0.0399
      8 C          10.6298   75.2960   24.7706 C.3     1  UNL1        0.0954
      9 C           8.6125   76.6914   21.7425 C.3     1  UNL1        0.0477
     10 C           7.2173   76.1399   21.7454 C.ar    1  UNL1        0.0220
     11 C           6.4733   75.5536   20.7484 C.ar    1  UNL1        0.0923
     12 N           5.2091   75.3904   21.2147 N.ar    1  UNL1       -0.2534
     13 N           5.1193   75.8834   22.4473 N.ar    1  UNL1       -0.1651
     14 C           6.3417   76.3389   22.7691 C.ar    1  UNL1        0.1515
     15 C           6.7549   77.0262   23.9833 C.2     1  UNL1        0.2650
     16 O           5.9296   77.3180   24.8884 O.2     1  UNL1       -0.2684
     17 N           8.1400   77.3910   24.0958 N.am    1  UNL1       -0.3023
     18 H           8.4104   78.0544   24.8555 H       1  UNL1        0.1497
     19 C           5.6018   75.5473   29.6067 C.ar    1  UNL1        0.2249
     20 C           6.0205   74.5206   30.4592 C.ar    1  UNL1        0.0577
     21 C           7.3552   74.1073   30.4399 C.ar    1  UNL1        0.0063
     22 C           8.2623   74.7228   29.5677 C.ar    1  UNL1        0.0179
     23 C           9.6095   74.3394   29.5231 C.ar    1  UNL1        0.0016
     24 C          10.4900   74.9743   28.6403 C.ar    1  UNL1        0.0046
     25 C          10.0344   75.9935   27.7843 C.ar    1  UNL1        0.0551
     26 C           8.6853   76.3837   27.8435 C.ar    1  UNL1        0.0237
     27 C           7.8015   75.7534   28.7223 C.ar    1  UNL1        0.0845
     28 N           6.4972   76.1351   28.7648 N.ar    1  UNL1       -0.2117
     29 C           3.8222   77.0859   30.3761 C.3     1  UNL1        0.2542
     30 O           4.2662   75.9592   29.6283 O.3     1  UNL1       -0.4561
     31 C           4.0733   74.8255   20.4590 C.3     1  UNL1        0.0867
     32 C           4.2380   75.0975   18.9478 C.3     1  UNL1        0.0244
     33 C           2.7594   75.4750   20.9352 C.3     1  UNL1        0.0244
     34 C           4.0144   73.3042   20.6885 C.3     1  UNL1        0.0244
@<TRIPOS>BOND
     1    29    30    1
     2    30    19    1
     3    19    20   ar
     4    20    21   ar
     5    21    22   ar
     6    22    23   ar
     7    23    24   ar
     8    24    25   ar
     9    25     1    1
    10     1     2    2
    11     1     3   am
    12     3     4    1
    13     4     5    1
    14     5     6    1
    15     6     7    1
    16     7     8    1
    17     6     9    1
    18     9    10    1
    19    10    11   ar
    20    11    12   ar
    21    12    31    1
    22    31    32    1
    23    31    33    1
    24    31    34    1
    25    12    13   ar
    26    13    14   ar
    27    14    15    1
    28    15    16    2
    29    15    17   am
    30    25    26   ar
    31    26    27   ar
    32    27    28   ar
    33    28    19   ar
    34    27    22   ar
    35     8     3    1
    36    14    10   ar
    37    17     6    1
    38    17    18    1
@<TRIPOS>MOLECULE
*****
 34 38 0 0 0
SMALL
GASTEIGER

@<TRIPOS>ATOM
      1 C          10.0263   76.8653   21.8165 C.2     1  UNL1        0.2491
      2 O          10.9461   76.5589   21.0096 O.2     1  UNL1       -0.2699
      3 N          10.2570   76.7328   23.2307 N.am    1  UNL1       -0.2760
      4 C          11.0598   75.6099   23.7279 C.3     1  UNL1        0.0954
      5 C          10.8485   75.3898   25.2391 C.3     1  UNL1        0.0399
      6 C           9.4382   75.8278   25.7129 C.3     1  UNL1        0.0645
      7 C           9.2269   77.3448   25.4043 C.3     1  UNL1        0.0399
      8 C           9.9560   77.8418   24.1411 C.3     1  UNL1        0.0954
      9 C           9.3282   75.5899   27.2589 C.3     1  UNL1        0.0477
     10 C           7.8983   75.6959   27.7006 C.ar    1  UNL1        0.0220
     11 C           7.3480   75.9222   28.9404 C.ar    1  UNL1        0.0923
     12 N           6.0057   75.7490   28.8371 N.ar    1  UNL1       -0.2534
     13 N           5.6952   75.3871   27.5949 N.ar    1  UNL1       -0.1651
     14 C           6.8474   75.3554   26.9044 C.ar    1  UNL1        0.1515
     15 C           7.0562   74.9579   25.5203 C.2     1  UNL1        0.2650
     16 O           6.1097   74.5318   24.8074 O.2     1  UNL1       -0.2684
     17 N           8.3953   75.0383   25.0058 N.am    1  UNL1       -0.3023
     18 H           8.5971   74.5719   24.0936 H       1  UNL1        0.1497
     19 C           4.0458   76.5006   20.4867 C.ar    1  UNL1        0.2249
     20 C           3.8959   77.7513   19.8787 C.ar    1  UNL1        0.0577
     21 C           4.9989   78.6016   19.7661 C.ar    1  UNL1        0.0063
     22 C           6.2444   78.1961   20.2628 C.ar    1  UNL1        0.0179
     23 C           7.3746   79.0188   20.1638 C.ar    1  UNL1        0.0016
     24 C           8.6044   78.5842   20.6703 C.ar    1  UNL1        0.0046
     25 C           8.7191   77.3265   21.2902 C.ar    1  UNL1        0.0551
     26 C           7.5853   76.4997   21.3739 C.ar    1  UNL1        0.0237
     27 C           6.3550   76.9283   20.8706 C.ar    1  UNL1        0.0845
     28 N           5.2642   76.1221   20.9643 N.ar    1  UNL1       -0.2117
     29 C           2.1194   75.3113   19.4863 C.3     1  UNL1        0.2542
     30 O           2.9408   75.6516   20.5976 O.3     1  UNL1       -0.4561
     31 C           5.0302   75.8636   29.9395 C.3     1  UNL1        0.0867
     32 C           4.0286   77.0056   29.6614 C.3     1  UNL1        0.0244
     33 C           5.7700   76.1682   31.2567 C.3     1  UNL1        0.0244
     34 C           4.2539   74.5408   30.0730 C.3     1  UNL1        0.0244
@<TRIPOS>BOND
     1    29    30    1
     2    30    19    1
     3    19    20   ar
     4    20    21   ar
     5    21    22   ar
     6    22    23   ar
     7    23    24   ar
     8    24    25   ar
     9    25     1    1
    10     1     2    2
    11     1     3   am
    12     3     4    1
    13     4     5    1
    14     5     6    1
    15     6     7    1
    16     7     8    1
    17     6     9    1
    18     9    10    1
    19    10    11   ar
    20    11    12   ar
    21    12    31    1
    22    31    32    1
    23    31    33    1
    24    31    34    1
    25    12    13   ar
    26    13    14   ar
    27    14    15    1
    28    15    16    2
    29    15    17   am
    30    25    26   ar
    31    26    27   ar
    32    27    28   ar
    33    28    19   ar
    34    27    22   ar
    35     8     3    1
    36    14    10   ar
    37    17     6    1
    38    17    18    1
@<TRIPOS>MOLECULE
*****
 34 38 0 0 0
SMALL
GASTEIGER

@<TRIPOS>ATOM
      1 C           2.6446   76.8212   23.0237 C.2     1  UNL1        0.2491
      2 O           1.4453   76.9232   22.6465 O.2     1  UNL1       -0.2699
      3 N           3.6593   76.4825   22.0610 N.am    1  UNL1       -0.2760
      4 C           3.3470   75.5297   20.9899 C.3     1  UNL1        0.0954
      5 C           4.6283   74.9755   20.3356 C.3     1  UNL1        0.0399
      6 C           5.8286   74.9362   21.3169 C.3     1  UNL1        0.0645
      7 C           6.1290   76.3780   21.8389 C.3     1  UNL1        0.0399
      8 C           4.8855   77.2796   21.9602 C.3     1  UNL1        0.0954
      9 C           7.0845   74.3846   20.5570 C.3     1  UNL1        0.0477
     10 C           8.1687   74.0320   21.5322 C.ar    1  UNL1        0.0220
     11 C           9.5228   73.8657   21.3596 C.ar    1  UNL1        0.0923
     12 N          10.0324   73.3765   22.5186 N.ar    1  UNL1       -0.2534
     13 N           9.0504   73.1936   23.3976 N.ar    1  UNL1       -0.1651
     14 C           7.9171   73.5930   22.7964 C.ar    1  UNL1        0.1515
     15 C           6.5574   73.5371   23.3116 C.2     1  UNL1        0.2650
     16 O           6.2986   73.0277   24.4337 O.2     1  UNL1       -0.2684
     17 N           5.5125   74.0568   22.4734 N.am    1  UNL1       -0.3023
     18 H           4.5245   73.8429   22.7348 H       1  UNL1        0.1497
     19 C           5.5029   75.7410   28.3464 C.ar    1  UNL1        0.2249
     20 C           4.8771   76.7263   29.1170 C.ar    1  UNL1        0.0577
     21 C           3.9159   77.5546   28.5318 C.ar    1  UNL1        0.0063
     22 C           3.5873   77.3928   27.1797 C.ar    1  UNL1        0.0179
     23 C           2.6250   78.2006   26.5588 C.ar    1  UNL1        0.0016
     24 C           2.3198   78.0134   25.2062 C.ar    1  UNL1        0.0046
     25 C           2.9782   77.0233   24.4542 C.ar    1  UNL1        0.0551
     26 C           3.9322   76.2066   25.0858 C.ar    1  UNL1        0.0237
     27 C           4.2414   76.3891   26.4355 C.ar    1  UNL1        0.0845
     28 N           5.1714   75.5973   27.0329 N.ar    1  UNL1       -0.2117
     29 C           6.5912   74.7663   30.3443 C.3     1  UNL1        0.2542
     30 O           6.4638   74.9134   28.9345 O.3     1  UNL1       -0.4561
     31 C          11.4448   73.0217   22.7622 C.3     1  UNL1        0.0867
     32 C          12.0701   72.3863   21.5012 C.3     1  UNL1        0.0244
     33 C          11.5324   72.0072   23.9190 C.3     1  UNL1        0.0244
     34 C          12.2347   74.2926   23.1243 C.3     1  UNL1        0.0244
@<TRIPOS>BOND
     1    29    30    1
     2    30    19    1
     3    19    20   ar
     4    20    21   ar
     5    21    22   ar
     6    22    23   ar
     7    23    24   ar
     8    24    25   ar
     9    25     1    1
    10     1     2    2
    11     1     3   am
    12     3     4    1
    13     4     5    1
    14     5     6    1
    15     6     7    1
    16     7     8    1
    17     6     9    1
    18     9    10    1
    19    10    11   ar
    20    11    12   ar
    21    12    31    1
    22    31    32    1
    23    31    33    1
    24    31    34    1
    25    12    13   ar
    26    13    14   ar
    27    14    15    1
    28    15    16    2
    29    15    17   am
    30    25    26   ar
    31    26    27   ar
    32    27    28   ar
    33    28    19   ar
    34    27    22   ar
    35     8     3    1
    36    14    10   ar
    37    17     6    1
    38    17    18    1
@<TRIPOS>MOLECULE
*****
 34 38 0 0 0
SMALL
GASTEIGER

@<TRIPOS>ATOM
      1 C           8.6074   79.4355   29.0317 C.2     1  UNL1        0.2491
      2 O           8.4176   80.6320   29.3830 O.2     1  UNL1       -0.2699
      3 N           9.6132   79.1424   28.0451 N.am    1  UNL1       -0.2760
      4 C           9.8211   80.0724   26.9296 C.3     1  UNL1        0.0954
      5 C          10.6056   79.4092   25.7800 C.3     1  UNL1        0.0399
      6 C          10.3701   77.8782   25.7042 C.3     1  UNL1        0.0645
      7 C          10.8103   77.2110   27.0468 C.3     1  UNL1        0.0399
      8 C          10.6146   78.1000   28.2899 C.3     1  UNL1        0.0954
      9 C          11.2244   77.2933   24.5265 C.3     1  UNL1        0.0477
     10 C          10.7899   75.8914   24.2156 C.ar    1  UNL1        0.0220
     11 C          11.4314   74.8700   23.5549 C.ar    1  UNL1        0.0923
     12 N          10.5400   73.8606   23.3849 N.ar    1  UNL1       -0.2534
     13 N           9.3572   74.2202   23.8770 N.ar    1  UNL1       -0.1651
     14 C           9.5105   75.4556   24.3823 C.ar    1  UNL1        0.1515
     15 C           8.4993   76.3161   24.9775 C.2     1  UNL1        0.2650
     16 O           7.2899   75.9701   25.0335 O.2     1  UNL1       -0.2684
     17 N           8.9291   77.5954   25.4708 N.am    1  UNL1       -0.3023
     18 H           8.1952   78.2980   25.7115 H       1  UNL1        0.1497
     19 C           5.2303   74.3109   29.0711 C.ar    1  UNL1        0.2249
     20 C           4.8936   74.2996   30.4285 C.ar    1  UNL1        0.0577
     21 C           5.3590   75.3178   31.2646 C.ar    1  UNL1        0.0063
     22 C           6.1589   76.3402   30.7380 C.ar    1  UNL1        0.0179
     23 C           6.6403   77.3810   31.5436 C.ar    1  UNL1        0.0016
     24 C           7.4373   78.3872   30.9866 C.ar    1  UNL1        0.0046
     25 C           7.7711   78.3619   29.6202 C.ar    1  UNL1        0.0551
     26 C           7.2736   77.3233   28.8141 C.ar    1  UNL1        0.0237
     27 C           6.4781   76.3158   29.3645 C.ar    1  UNL1        0.0845
     28 N           6.0091   75.3127   28.5755 N.ar    1  UNL1       -0.2117
     29 C           3.9205   72.2432   28.7031 C.3     1  UNL1        0.2542
     30 O           4.7630   73.2913   28.2368 O.3     1  UNL1       -0.4561
     31 C          10.8007   72.5822   22.6938 C.3     1  UNL1        0.0867
     32 C          11.8392   72.7759   21.5674 C.3     1  UNL1        0.0244
     33 C           9.4937   72.0532   22.0718 C.3     1  UNL1        0.0244
     34 C          11.3471   71.5580   23.7051 C.3     1  UNL1        0.0244
@<TRIPOS>BOND
     1    29    30    1
     2    30    19    1
     3    19    20   ar
     4    20    21   ar
     5    21    22   ar
     6    22    23   ar
     7    23    24   ar
     8    24    25   ar
     9    25     1    1
    10     1     2    2
    11     1     3   am
    12     3     4    1
    13     4     5    1
    14     5     6    1
    15     6     7    1
    16     7     8    1
    17     6     9    1
    18     9    10    1
    19    10    11   ar
    20    11    12   ar
    21    12    31    1
    22    31    32    1
    23    31    33    1
    24    31    34    1
    25    12    13   ar
    26    13    14   ar
    27    14    15    1
    28    15    16    2
    29    15    17   am
    30    25    26   ar
    31    26    27   ar
    32    27    28   ar
    33    28    19   ar
    34    27    22   ar
    35     8     3    1
    36    14    10   ar
    37    17     6    1
    38    17    18    1
