@<TRIPOS>MOLECULE
*****
 42 46 0 0 0
SMALL
GASTEIGER

@<TRIPOS>ATOM
      1 C          -5.9398  -16.3118   22.1908 C.ar    1  UNL1        0.2019
      2 N          -5.8113  -15.4408   23.2263 N.ar    1  UNL1       -0.2134
      3 C          -6.7543  -15.8587   24.0890 C.ar    1  UNL1        0.1033
      4 C          -7.0590  -15.3096   25.3319 C.ar    1  UNL1        0.0284
      5 C          -8.1190  -15.8766   26.0752 C.ar    1  UNL1        0.0922
      6 C          -8.8201  -16.9976   25.5501 C.ar    1  UNL1        0.1782
      7 C          -8.4655  -17.5406   24.2967 C.ar    1  UNL1        0.1897
      8 C          -7.4276  -16.9339   23.5846 C.ar    1  UNL1        0.1173
      9 N          -6.9095  -17.2468   22.3821 N.ar    1  UNL1       -0.2950
     10 C          -7.3225  -18.3209   21.4789 C.3     1  UNL1        0.1333
     11 O          -9.1518  -18.6591   23.8144 O.3     1  UNL1       -0.4669
     12 C          -9.9871  -19.4383   24.6727 C.3     1  UNL1        0.2527
     13 C         -10.7545  -18.5260   25.6363 C.3     1  UNL1        0.2526
     14 O          -9.8586  -17.6070   26.2649 O.3     1  UNL1       -0.4682
     15 C          -8.4698  -15.2922   27.3863 C.2     1  UNL1        0.2526
     16 O          -8.8074  -16.0628   28.3256 O.2     1  UNL1       -0.2697
     17 N          -8.4232  -13.8689   27.5935 N.am    1  UNL1       -0.2803
     18 H          -8.1785  -13.2527   26.7866 H       1  UNL1        0.1552
     19 C          -8.7724  -13.2238   28.8296 C.ar    1  UNL1        0.0506
     20 C         -10.0172  -13.4413   29.4426 C.ar    1  UNL1        0.0170
     21 C         -10.3203  -12.8243   30.6575 C.ar    1  UNL1        0.0309
     22 C          -9.3839  -11.9958   31.2806 C.ar    1  UNL1        0.1441
     23 F          -9.7024  -11.4121   32.4641 F       1  UNL1       -0.2042
     24 C          -8.1234  -11.7817   30.6936 C.ar    1  UNL1        0.1000
     25 C          -7.8240  -12.4123   29.4706 C.ar    1  UNL1        0.0208
     26 C          -7.1147  -10.8983   31.3882 C.3     1  UNL1        0.4207
     27 F          -6.9866  -11.2197   32.7287 F       1  UNL1       -0.1658
     28 F          -5.8789  -11.0431   30.7839 F       1  UNL1       -0.1658
     29 F          -7.5139   -9.5779   31.2885 F       1  UNL1       -0.1658
     30 N          -5.1562  -16.2087   20.9924 N.pl3   1  UNL1       -0.2814
     31 H          -5.3905  -15.4607   20.3033 H       1  UNL1        0.1551
     32 C          -1.3951  -18.1613   20.5904 C.ar    1  UNL1       -0.0194
     33 C          -1.5041  -16.9362   21.2680 C.ar    1  UNL1        0.0267
     34 C          -2.7415  -16.2989   21.3899 C.ar    1  UNL1        0.1540
     35 F          -2.8198  -15.1203   22.0577 F       1  UNL1       -0.2028
     36 C          -3.8969  -16.8811   20.8482 C.ar    1  UNL1        0.0889
     37 C          -3.7922  -18.0970   20.1430 C.ar    1  UNL1        0.0730
     38 CL         -5.1794  -18.8152   19.3321 Cl      1  UNL1       -0.0809
     39 C          -2.5501  -18.7305   20.0236 C.ar    1  UNL1        0.0085
     40 C           1.0970  -17.8183   20.5155 C.3     1  UNL1        0.0047
     41 C          -0.0442  -18.8412   20.4652 C.3     1  UNL1        0.0225
     42 C           0.1330  -19.9191   21.5410 C.3     1  UNL1        0.0047
@<TRIPOS>BOND
     1    40    41    1
     2    41    42    1
     3    41    32    1
     4    32    33   ar
     5    33    34   ar
     6    34    35    1
     7    34    36   ar
     8    36    30    1
     9    30     1    1
    10     1     2   ar
    11     2     3   ar
    12     3     4   ar
    13     4     5   ar
    14     5    15    1
    15    15    16    2
    16    15    17   am
    17    17    19    1
    18    19    20   ar
    19    20    21   ar
    20    21    22   ar
    21    22    23    1
    22    22    24   ar
    23    24    26    1
    24    26    27    1
    25    26    28    1
    26    26    29    1
    27    24    25   ar
    28     5     6   ar
    29     6     7   ar
    30     7     8   ar
    31     8     9   ar
    32     9    10    1
    33     7    11    1
    34    11    12    1
    35    12    13    1
    36    13    14    1
    37    36    37   ar
    38    37    38    1
    39    37    39   ar
    40    39    32   ar
    41     9     1   ar
    42     8     3   ar
    43    25    19   ar
    44    14     6    1
    45    30    31    1
    46    17    18    1
@<TRIPOS>MOLECULE
*****
 42 46 0 0 0
SMALL
GASTEIGER

@<TRIPOS>ATOM
      1 C          -6.0511  -16.2003   22.2886 C.ar    1  UNL1        0.2019
      2 N          -5.9049  -15.3472   23.3365 N.ar    1  UNL1       -0.2134
      3 C          -6.8329  -15.7800   24.2079 C.ar    1  UNL1        0.1033
      4 C          -7.1162  -15.2524   25.4651 C.ar    1  UNL1        0.0284
      5 C          -8.1632  -15.8322   26.2167 C.ar    1  UNL1        0.0922
      6 C          -8.8733  -16.9443   25.6846 C.ar    1  UNL1        0.1782
      7 C          -8.5404  -17.4656   24.4162 C.ar    1  UNL1        0.1897
      8 C          -7.5148  -16.8466   23.6968 C.ar    1  UNL1        0.1173
      9 N          -7.0175  -17.1387   22.4804 N.ar    1  UNL1       -0.2950
     10 C          -7.4460  -18.1973   21.5662 C.3     1  UNL1        0.1333
     11 O          -9.2349  -18.5759   23.9267 O.3     1  UNL1       -0.4669
     12 C         -10.0554  -19.3699   24.7857 C.3     1  UNL1        0.2527
     13 C         -10.8061  -18.4745   25.7778 C.3     1  UNL1        0.2526
     14 O          -9.8994  -17.5661   26.4066 O.3     1  UNL1       -0.4682
     15 C          -8.4915  -15.2705   27.5435 C.2     1  UNL1        0.2526
     16 O          -8.7396  -16.0603   28.4945 O.2     1  UNL1       -0.2697
     17 N          -8.5233  -13.8470   27.7522 N.am    1  UNL1       -0.2803
     18 H          -8.3524  -13.2169   26.9370 H       1  UNL1        0.1552
     19 C          -8.8569  -13.2246   29.0041 C.ar    1  UNL1        0.0506
     20 C          -8.0847  -12.1750   29.5284 C.ar    1  UNL1        0.0170
     21 C          -8.4469  -11.5690   30.7326 C.ar    1  UNL1        0.0309
     22 C          -9.5869  -11.9919   31.4202 C.ar    1  UNL1        0.1441
     23 F          -9.9192  -11.3822   32.5866 F       1  UNL1       -0.2042
     24 C         -10.3856  -13.0275   30.9013 C.ar    1  UNL1        0.1000
     25 C         -10.0160  -13.6297   29.6832 C.ar    1  UNL1        0.0208
     26 C         -11.6253  -13.4614   31.6465 C.3     1  UNL1        0.4207
     27 F         -12.0145  -14.7426   31.2949 F       1  UNL1       -0.1658
     28 F         -11.3795  -13.4371   33.0074 F       1  UNL1       -0.1658
     29 F         -12.6622  -12.5923   31.3596 F       1  UNL1       -0.1658
     30 N          -5.2882  -16.0765   21.0788 N.pl3   1  UNL1       -0.2814
     31 H          -5.5244  -15.3073   20.4140 H       1  UNL1        0.1551
     32 C          -1.5638  -18.0702   20.5560 C.ar    1  UNL1       -0.0194
     33 C          -1.6442  -16.8671   21.2757 C.ar    1  UNL1        0.0267
     34 C          -2.8698  -16.2159   21.4371 C.ar    1  UNL1        0.1540
     35 F          -2.9204  -15.0594   22.1450 F       1  UNL1       -0.2028
     36 C          -4.0416  -16.7623   20.8935 C.ar    1  UNL1        0.0889
     37 C          -3.9658  -17.9552   20.1466 C.ar    1  UNL1        0.0730
     38 CL         -5.3754  -18.6251   19.3329 Cl      1  UNL1       -0.0809
     39 C          -2.7354  -18.6028   19.9877 C.ar    1  UNL1        0.0085
     40 C           0.9128  -17.7481   20.2451 C.3     1  UNL1        0.0047
     41 C          -0.2255  -18.7655   20.3881 C.3     1  UNL1        0.0225
     42 C           0.0424  -19.7342   21.5459 C.3     1  UNL1        0.0047
@<TRIPOS>BOND
     1    40    41    1
     2    41    42    1
     3    41    32    1
     4    32    33   ar
     5    33    34   ar
     6    34    35    1
     7    34    36   ar
     8    36    30    1
     9    30     1    1
    10     1     2   ar
    11     2     3   ar
    12     3     4   ar
    13     4     5   ar
    14     5    15    1
    15    15    16    2
    16    15    17   am
    17    17    19    1
    18    19    20   ar
    19    20    21   ar
    20    21    22   ar
    21    22    23    1
    22    22    24   ar
    23    24    26    1
    24    26    27    1
    25    26    28    1
    26    26    29    1
    27    24    25   ar
    28     5     6   ar
    29     6     7   ar
    30     7     8   ar
    31     8     9   ar
    32     9    10    1
    33     7    11    1
    34    11    12    1
    35    12    13    1
    36    13    14    1
    37    36    37   ar
    38    37    38    1
    39    37    39   ar
    40    39    32   ar
    41     9     1   ar
    42     8     3   ar
    43    25    19   ar
    44    14     6    1
    45    30    31    1
    46    17    18    1
@<TRIPOS>MOLECULE
*****
 42 46 0 0 0
SMALL
GASTEIGER

@<TRIPOS>ATOM
      1 C          -6.9050  -14.0230   27.9335 C.ar    1  UNL1        0.2019
      2 N          -5.7085  -13.9193   27.2972 N.ar    1  UNL1       -0.2134
      3 C          -5.9054  -14.6259   26.1703 C.ar    1  UNL1        0.1033
      4 C          -4.9878  -14.8486   25.1468 C.ar    1  UNL1        0.0284
      5 C          -5.3810  -15.6566   24.0559 C.ar    1  UNL1        0.0922
      6 C          -6.6987  -16.1920   24.0215 C.ar    1  UNL1        0.1782
      7 C          -7.6079  -15.9237   25.0668 C.ar    1  UNL1        0.1897
      8 C          -7.1696  -15.1404   26.1377 C.ar    1  UNL1        0.1173
      9 N          -7.8264  -14.7514   27.2465 N.ar    1  UNL1       -0.2950
     10 C          -9.1999  -15.0716   27.6348 C.3     1  UNL1        0.1333
     11 O          -8.9056  -16.4390   24.9969 O.3     1  UNL1       -0.4669
     12 C          -9.4230  -16.9706   23.7757 C.3     1  UNL1        0.2527
     13 C          -8.3334  -17.7542   23.0351 C.3     1  UNL1        0.2526
     14 O          -7.1385  -16.9750   22.9471 O.3     1  UNL1       -0.4682
     15 C          -4.4122  -15.9211   22.9720 C.2     1  UNL1        0.2526
     16 O          -4.5847  -15.3668   21.8526 O.2     1  UNL1       -0.2697
     17 N          -3.2867  -16.7916   23.1875 N.am    1  UNL1       -0.2803
     18 H          -3.1912  -17.2678   24.1121 H       1  UNL1        0.1552
     19 C          -2.3163  -17.1170   22.1784 C.ar    1  UNL1        0.0506
     20 C          -2.0067  -16.2188   21.1439 C.ar    1  UNL1        0.0170
     21 C          -1.0398  -16.5481   20.1925 C.ar    1  UNL1        0.0309
     22 C          -0.3626  -17.7676   20.2680 C.ar    1  UNL1        0.1441
     23 F           0.5766  -18.0607   19.3327 F       1  UNL1       -0.2042
     24 C          -0.6429  -18.6722   21.3085 C.ar    1  UNL1        0.1000
     25 C          -1.6160  -18.3297   22.2671 C.ar    1  UNL1        0.0208
     26 C           0.1105  -19.9785   21.3876 C.3     1  UNL1        0.4207
     27 F           0.8476  -20.2172   20.2404 F       1  UNL1       -0.1658
     28 F           0.9767  -19.9486   22.4656 F       1  UNL1       -0.1658
     29 F          -0.7866  -21.0172   21.5582 F       1  UNL1       -0.1658
     30 N          -7.1416  -13.4579   29.2318 N.pl3   1  UNL1       -0.2814
     31 H          -6.8571  -14.0032   30.0751 H       1  UNL1        0.1551
     32 C          -8.0490   -9.3316   29.7511 C.ar    1  UNL1       -0.0194
     33 C          -6.7401   -9.7530   29.4661 C.ar    1  UNL1        0.0267
     34 C          -6.4498  -11.1099   29.3034 C.ar    1  UNL1        0.1540
     35 F          -5.1781  -11.4887   29.0196 F       1  UNL1       -0.2028
     36 C          -7.4655  -12.0714   29.4090 C.ar    1  UNL1        0.0889
     37 C          -8.7767  -11.6596   29.7217 C.ar    1  UNL1        0.0730
     38 CL        -10.0690  -12.8234   29.9925 Cl      1  UNL1       -0.0809
     39 C          -9.0615  -10.2992   29.8841 C.ar    1  UNL1        0.0085
     40 C          -9.8145   -7.5446   29.5985 C.3     1  UNL1        0.0047
     41 C          -8.3490   -7.8543   29.9261 C.3     1  UNL1        0.0225
     42 C          -7.9874   -7.3813   31.3390 C.3     1  UNL1        0.0047
@<TRIPOS>BOND
     1    40    41    1
     2    41    42    1
     3    41    32    1
     4    32    33   ar
     5    33    34   ar
     6    34    35    1
     7    34    36   ar
     8    36    30    1
     9    30     1    1
    10     1     2   ar
    11     2     3   ar
    12     3     4   ar
    13     4     5   ar
    14     5    15    1
    15    15    16    2
    16    15    17   am
    17    17    19    1
    18    19    20   ar
    19    20    21   ar
    20    21    22   ar
    21    22    23    1
    22    22    24   ar
    23    24    26    1
    24    26    27    1
    25    26    28    1
    26    26    29    1
    27    24    25   ar
    28     5     6   ar
    29     6     7   ar
    30     7     8   ar
    31     8     9   ar
    32     9    10    1
    33     7    11    1
    34    11    12    1
    35    12    13    1
    36    13    14    1
    37    36    37   ar
    38    37    38    1
    39    37    39   ar
    40    39    32   ar
    41     9     1   ar
    42     8     3   ar
    43    25    19   ar
    44    14     6    1
    45    30    31    1
    46    17    18    1
@<TRIPOS>MOLECULE
*****
 42 46 0 0 0
SMALL
GASTEIGER

@<TRIPOS>ATOM
      1 C          -3.0319  -17.1814   21.0690 C.ar    1  UNL1        0.2019
      2 N          -3.1004  -16.2843   22.0877 N.ar    1  UNL1       -0.2134
      3 C          -4.3906  -16.3513   22.4605 C.ar    1  UNL1        0.1033
      4 C          -5.0109  -15.6272   23.4755 C.ar    1  UNL1        0.0284
      5 C          -6.3954  -15.8168   23.6864 C.ar    1  UNL1        0.0922
      6 C          -7.1037  -16.7523   22.8819 C.ar    1  UNL1        0.1782
      7 C          -6.4343  -17.4849   21.8786 C.ar    1  UNL1        0.1897
      8 C          -5.0705  -17.2484   21.6879 C.ar    1  UNL1        0.1173
      9 N          -4.2152  -17.7996   20.8064 N.ar    1  UNL1       -0.2950
     10 C          -4.5050  -18.8027   19.7818 C.3     1  UNL1        0.1333
     11 O          -7.1466  -18.4180   21.1193 O.3     1  UNL1       -0.4669
     12 C          -8.4439  -18.8607   21.5227 C.3     1  UNL1        0.2527
     13 C          -9.2474  -17.6901   22.1005 C.3     1  UNL1        0.2526
     14 O          -8.4700  -16.9910   23.0748 O.3     1  UNL1       -0.4682
     15 C          -7.0737  -15.0402   24.7449 C.2     1  UNL1        0.2526
     16 O          -7.9881  -14.2356   24.4185 O.2     1  UNL1       -0.2697
     17 N          -6.7037  -15.2001   26.1264 N.am    1  UNL1       -0.2803
     18 H          -5.9163  -15.8441   26.3630 H       1  UNL1        0.1552
     19 C          -7.2982  -14.4648   27.2089 C.ar    1  UNL1        0.0506
     20 C          -8.5532  -14.8181   27.7315 C.ar    1  UNL1        0.0170
     21 C          -9.0954  -14.1047   28.8018 C.ar    1  UNL1        0.0309
     22 C          -8.3896  -13.0420   29.3709 C.ar    1  UNL1        0.1441
     23 F          -8.9377  -12.3681   30.4140 F       1  UNL1       -0.2042
     24 C          -7.1218  -12.6856   28.8758 C.ar    1  UNL1        0.1000
     25 C          -6.5799  -13.4140   27.7993 C.ar    1  UNL1        0.0208
     26 C          -6.3626  -11.5464   29.5132 C.3     1  UNL1        0.4207
     27 F          -5.7518  -11.9326   30.6940 F       1  UNL1       -0.1658
     28 F          -5.3864  -11.0964   28.6427 F       1  UNL1       -0.1658
     29 F          -7.2352  -10.5091   29.7880 F       1  UNL1       -0.1658
     30 N          -1.8306  -17.4047   20.3153 N.pl3   1  UNL1       -0.2814
     31 H          -1.5244  -16.6765   19.6331 H       1  UNL1        0.1551
     32 C           0.9272  -20.4584   21.4055 C.ar    1  UNL1       -0.0194
     33 C          -0.4362  -20.5698   21.7226 C.ar    1  UNL1        0.0267
     34 C          -1.3336  -19.5598   21.3665 C.ar    1  UNL1        0.1540
     35 F          -2.6473  -19.6973   21.6774 F       1  UNL1       -0.2028
     36 C          -0.8874  -18.4246   20.6742 C.ar    1  UNL1        0.0889
     37 C           0.4838  -18.2919   20.3759 C.ar    1  UNL1        0.0730
     38 CL          1.1273  -16.8371   19.6228 Cl      1  UNL1       -0.0809
     39 C           1.3781  -19.3064   20.7355 C.ar    1  UNL1        0.0085
     40 C           1.1363  -22.8265   22.2315 C.3     1  UNL1        0.0047
     41 C           1.8902  -21.5630   21.7995 C.3     1  UNL1        0.0225
     42 C           2.8742  -21.8686   20.6641 C.3     1  UNL1        0.0047
@<TRIPOS>BOND
     1    40    41    1
     2    41    42    1
     3    41    32    1
     4    32    33   ar
     5    33    34   ar
     6    34    35    1
     7    34    36   ar
     8    36    30    1
     9    30     1    1
    10     1     2   ar
    11     2     3   ar
    12     3     4   ar
    13     4     5   ar
    14     5    15    1
    15    15    16    2
    16    15    17   am
    17    17    19    1
    18    19    20   ar
    19    20    21   ar
    20    21    22   ar
    21    22    23    1
    22    22    24   ar
    23    24    26    1
    24    26    27    1
    25    26    28    1
    26    26    29    1
    27    24    25   ar
    28     5     6   ar
    29     6     7   ar
    30     7     8   ar
    31     8     9   ar
    32     9    10    1
    33     7    11    1
    34    11    12    1
    35    12    13    1
    36    13    14    1
    37    36    37   ar
    38    37    38    1
    39    37    39   ar
    40    39    32   ar
    41     9     1   ar
    42     8     3   ar
    43    25    19   ar
    44    14     6    1
    45    30    31    1
    46    17    18    1
@<TRIPOS>MOLECULE
*****
 42 46 0 0 0
SMALL
GASTEIGER

@<TRIPOS>ATOM
      1 C          -9.2826  -11.3878   31.7335 C.ar    1  UNL1        0.2019
      2 N          -9.1414  -12.4413   30.8865 N.ar    1  UNL1       -0.2134
      3 C          -8.0567  -12.1046   30.1668 C.ar    1  UNL1        0.1033
      4 C          -7.4668  -12.8399   29.1418 C.ar    1  UNL1        0.0284
      5 C          -6.3458  -12.2899   28.4797 C.ar    1  UNL1        0.0922
      6 C          -5.8404  -11.0257   28.8926 C.ar    1  UNL1        0.1782
      7 C          -6.4517  -10.3218   29.9520 C.ar    1  UNL1        0.1897
      8 C          -7.5723  -10.8911   30.5625 C.ar    1  UNL1        0.1173
      9 N          -8.3322  -10.4275   31.5724 N.ar    1  UNL1       -0.2950
     10 C          -8.1870   -9.1662   32.2990 C.3     1  UNL1        0.1333
     11 O          -5.9201   -9.0939   30.3571 O.3     1  UNL1       -0.4669
     12 C          -4.6194   -8.6787   29.9362 C.3     1  UNL1        0.2527
     13 C          -4.3812   -9.0807   28.4763 C.3     1  UNL1        0.2526
     14 O          -4.7160  -10.4565   28.2823 O.3     1  UNL1       -0.4682
     15 C          -5.7212  -13.0471   27.3751 C.2     1  UNL1        0.2526
     16 O          -4.6181  -12.6491   26.9115 O.2     1  UNL1       -0.2697
     17 N          -6.3550  -14.2223   26.8382 N.am    1  UNL1       -0.2803
     18 H          -7.2869  -14.5056   27.2149 H       1  UNL1        0.1552
     19 C          -5.8237  -14.9971   25.7503 C.ar    1  UNL1        0.0506
     20 C          -4.7945  -15.9315   25.9513 C.ar    1  UNL1        0.0170
     21 C          -4.3159  -16.6914   24.8826 C.ar    1  UNL1        0.0309
     22 C          -4.8647  -16.5387   23.6071 C.ar    1  UNL1        0.1441
     23 F          -4.3841  -17.2938   22.5865 F       1  UNL1       -0.2042
     24 C          -5.9106  -15.6233   23.3890 C.ar    1  UNL1        0.1000
     25 C          -6.3910  -14.8646   24.4738 C.ar    1  UNL1        0.0208
     26 C          -6.5063  -15.4826   22.0085 C.3     1  UNL1        0.4207
     27 F          -5.6116  -14.9142   21.1180 F       1  UNL1       -0.1658
     28 F          -6.8662  -16.7297   21.5306 F       1  UNL1       -0.1658
     29 F          -7.6320  -14.6818   22.0728 F       1  UNL1       -0.1658
     30 N         -10.3685  -11.2868   32.6671 N.pl3   1  UNL1       -0.2814
     31 H         -10.6546  -10.3407   33.0026 H       1  UNL1        0.1551
     32 C         -13.0441  -14.5218   33.3709 C.ar    1  UNL1       -0.0194
     33 C         -13.2858  -13.5948   32.3441 C.ar    1  UNL1        0.0267
     34 C         -12.4058  -12.5322   32.1240 C.ar    1  UNL1        0.1540
     35 F         -12.6588  -11.6562   31.1191 F       1  UNL1       -0.2028
     36 C         -11.2591  -12.3835   32.9179 C.ar    1  UNL1        0.0889
     37 C         -11.0230  -13.2935   33.9680 C.ar    1  UNL1        0.0730
     38 CL         -9.6727  -13.0901   35.0786 Cl      1  UNL1       -0.0809
     39 C         -11.9082  -14.3556   34.1841 C.ar    1  UNL1        0.0085
     40 C         -15.4598  -15.2273   33.3723 C.3     1  UNL1        0.0047
     41 C         -14.0094  -15.6703   33.5986 C.3     1  UNL1        0.0225
     42 C         -13.6553  -16.8724   32.7153 C.3     1  UNL1        0.0047
@<TRIPOS>BOND
     1    40    41    1
     2    41    42    1
     3    41    32    1
     4    32    33   ar
     5    33    34   ar
     6    34    35    1
     7    34    36   ar
     8    36    30    1
     9    30     1    1
    10     1     2   ar
    11     2     3   ar
    12     3     4   ar
    13     4     5   ar
    14     5    15    1
    15    15    16    2
    16    15    17   am
    17    17    19    1
    18    19    20   ar
    19    20    21   ar
    20    21    22   ar
    21    22    23    1
    22    22    24   ar
    23    24    26    1
    24    26    27    1
    25    26    28    1
    26    26    29    1
    27    24    25   ar
    28     5     6   ar
    29     6     7   ar
    30     7     8   ar
    31     8     9   ar
    32     9    10    1
    33     7    11    1
    34    11    12    1
    35    12    13    1
    36    13    14    1
    37    36    37   ar
    38    37    38    1
    39    37    39   ar
    40    39    32   ar
    41     9     1   ar
    42     8     3   ar
    43    25    19   ar
    44    14     6    1
    45    30    31    1
    46    17    18    1
@<TRIPOS>MOLECULE
*****
 42 46 0 0 0
SMALL
GASTEIGER

@<TRIPOS>ATOM
      1 C          -8.2803  -15.8224   27.1153 C.ar    1  UNL1        0.2019
      2 N          -9.3780  -15.2837   27.7089 N.ar    1  UNL1       -0.2134
      3 C          -8.8976  -14.1556   28.2609 C.ar    1  UNL1        0.1033
      4 C          -9.6078  -13.2135   29.0007 C.ar    1  UNL1        0.0284
      5 C          -8.9057  -12.1070   29.5301 C.ar    1  UNL1        0.0922
      6 C          -7.5129  -11.9742   29.2724 C.ar    1  UNL1        0.1782
      7 C          -6.8332  -12.9381   28.4976 C.ar    1  UNL1        0.1897
      8 C          -7.5609  -14.0287   28.0143 C.ar    1  UNL1        0.1173
      9 N          -7.1544  -15.0744   27.2704 N.ar    1  UNL1       -0.2950
     10 C          -5.8059  -15.3550   26.7776 C.3     1  UNL1        0.1333
     11 O          -5.4701  -12.7711   28.2357 O.3     1  UNL1       -0.4669
     12 C          -4.8213  -11.5205   28.4734 C.3     1  UNL1        0.2527
     13 C          -5.3551  -10.8829   29.7611 C.3     1  UNL1        0.2526
     14 O          -6.7843  -10.8799   29.7548 O.3     1  UNL1       -0.4682
     15 C          -9.6398  -11.1094   30.3360 C.2     1  UNL1        0.2526
     16 O          -9.6261  -11.2127   31.5927 O.2     1  UNL1       -0.2697
     17 N         -10.3552  -10.0338   29.7018 N.am    1  UNL1       -0.2803
     18 H         -10.3819   -9.9962   28.6584 H       1  UNL1        0.1552
     19 C         -11.1114   -9.0404   30.4138 C.ar    1  UNL1        0.0506
     20 C         -12.1569   -9.3985   31.2807 C.ar    1  UNL1        0.0170
     21 C         -12.8572   -8.4154   31.9819 C.ar    1  UNL1        0.0309
     22 C         -12.5163   -7.0684   31.8378 C.ar    1  UNL1        0.1441
     23 F         -13.2103   -6.1330   32.5351 F       1  UNL1       -0.2042
     24 C         -11.4585   -6.6904   30.9907 C.ar    1  UNL1        0.1000
     25 C         -10.7539   -7.6891   30.2912 C.ar    1  UNL1        0.0208
     26 C         -11.0895   -5.2320   30.8593 C.3     1  UNL1        0.4207
     27 F         -11.5705   -4.6839   29.6825 F       1  UNL1       -0.1658
     28 F         -11.6211   -4.5227   31.9212 F       1  UNL1       -0.1658
     29 F          -9.7126   -5.1028   30.8743 F       1  UNL1       -0.1658
     30 N          -8.3103  -17.0883   26.4390 N.pl3   1  UNL1       -0.2814
     31 H          -7.8959  -17.9202   26.9140 H       1  UNL1        0.1551
     32 C         -10.7920  -17.8182   23.0584 C.ar    1  UNL1       -0.0194
     33 C         -10.6952  -18.7558   24.0992 C.ar    1  UNL1        0.0267
     34 C          -9.8733  -18.5111   25.2023 C.ar    1  UNL1        0.1540
     35 F          -9.8054  -19.4303   26.1981 F       1  UNL1       -0.2028
     36 C          -9.1423  -17.3175   25.2927 C.ar    1  UNL1        0.0889
     37 C          -9.2125  -16.3830   24.2398 C.ar    1  UNL1        0.0730
     38 CL         -8.2249  -14.9262   24.2324 Cl      1  UNL1       -0.0809
     39 C         -10.0369  -16.6337   23.1372 C.ar    1  UNL1        0.0085
     40 C         -11.9802  -16.8147   21.0798 C.3     1  UNL1        0.0047
     41 C         -11.6880  -18.0982   21.8661 C.3     1  UNL1        0.0225
     42 C         -11.0799  -19.1746   20.9594 C.3     1  UNL1        0.0047
@<TRIPOS>BOND
     1    40    41    1
     2    41    42    1
     3    41    32    1
     4    32    33   ar
     5    33    34   ar
     6    34    35    1
     7    34    36   ar
     8    36    30    1
     9    30     1    1
    10     1     2   ar
    11     2     3   ar
    12     3     4   ar
    13     4     5   ar
    14     5    15    1
    15    15    16    2
    16    15    17   am
    17    17    19    1
    18    19    20   ar
    19    20    21   ar
    20    21    22   ar
    21    22    23    1
    22    22    24   ar
    23    24    26    1
    24    26    27    1
    25    26    28    1
    26    26    29    1
    27    24    25   ar
    28     5     6   ar
    29     6     7   ar
    30     7     8   ar
    31     8     9   ar
    32     9    10    1
    33     7    11    1
    34    11    12    1
    35    12    13    1
    36    13    14    1
    37    36    37   ar
    38    37    38    1
    39    37    39   ar
    40    39    32   ar
    41     9     1   ar
    42     8     3   ar
    43    25    19   ar
    44    14     6    1
    45    30    31    1
    46    17    18    1
@<TRIPOS>MOLECULE
*****
 42 46 0 0 0
SMALL
GASTEIGER

@<TRIPOS>ATOM
      1 C          -9.3120  -11.4191   31.9155 C.ar    1  UNL1        0.2019
      2 N          -9.1838  -12.4533   31.0430 N.ar    1  UNL1       -0.2134
      3 C          -8.1063  -12.1034   30.3187 C.ar    1  UNL1        0.1033
      4 C          -7.5305  -12.8166   29.2704 C.ar    1  UNL1        0.0284
      5 C          -6.4155  -12.2548   28.6081 C.ar    1  UNL1        0.0922
      6 C          -5.9015  -11.0019   29.0440 C.ar    1  UNL1        0.1782
      7 C          -6.4984  -10.3207   30.1262 C.ar    1  UNL1        0.1897
      8 C          -7.6137  -10.9006   30.7364 C.ar    1  UNL1        0.1173
      9 N          -8.3604  -10.4582   31.7654 N.ar    1  UNL1       -0.2950
     10 C          -8.2030   -9.2143   32.5190 C.3     1  UNL1        0.1333
     11 O          -5.9584   -9.1039   30.5531 O.3     1  UNL1       -0.4669
     12 C          -4.6613   -8.6829   30.1268 C.3     1  UNL1        0.2527
     13 C          -4.4412   -9.0520   28.6554 C.3     1  UNL1        0.2526
     14 O          -4.7824  -10.4221   28.4339 O.3     1  UNL1       -0.4682
     15 C          -5.8060  -12.9883   27.4794 C.2     1  UNL1        0.2526
     16 O          -4.7544  -12.5322   26.9539 O.2     1  UNL1       -0.2697
     17 N          -6.3963  -14.2055   26.9885 N.am    1  UNL1       -0.2803
     18 H          -7.2887  -14.5381   27.4170 H       1  UNL1        0.1552
     19 C          -5.8780  -14.9618   25.8816 C.ar    1  UNL1        0.0506
     20 C          -4.8373  -15.8895   26.0523 C.ar    1  UNL1        0.0170
     21 C          -4.3713  -16.6316   24.9657 C.ar    1  UNL1        0.0309
     22 C          -4.9442  -16.4678   23.7022 C.ar    1  UNL1        0.1441
     23 F          -4.4754  -17.2056   22.6636 F       1  UNL1       -0.2042
     24 C          -6.0017  -15.5591   23.5145 C.ar    1  UNL1        0.1000
     25 C          -6.4692  -14.8184   24.6172 C.ar    1  UNL1        0.0208
     26 C          -6.6233  -15.4064   22.1467 C.3     1  UNL1        0.4207
     27 F          -6.9341  -16.6322   21.5835 F       1  UNL1       -0.1658
     28 F          -7.7859  -14.6638   22.2470 F       1  UNL1       -0.1658
     29 F          -5.7390  -14.7495   21.3104 F       1  UNL1       -0.1658
     30 N         -10.3867  -11.3364   32.8637 N.pl3   1  UNL1       -0.2814
     31 H         -10.6263  -10.4052   33.2696 H       1  UNL1        0.1551
     32 C         -13.1404  -14.5326   33.4303 C.ar    1  UNL1       -0.0194
     33 C         -11.9635  -14.4497   34.1918 C.ar    1  UNL1        0.0267
     34 C         -11.0619  -13.4007   33.9950 C.ar    1  UNL1        0.1540
     35 F          -9.9367  -13.3400   34.7509 F       1  UNL1       -0.2028
     36 C         -11.3262  -12.4061   33.0419 C.ar    1  UNL1        0.0889
     37 C         -12.4917  -12.4963   32.2544 C.ar    1  UNL1        0.0730
     38 CL        -12.8188  -11.3528   30.9570 Cl      1  UNL1       -0.0809
     39 C         -13.3908  -13.5496   32.4556 C.ar    1  UNL1        0.0085
     40 C         -15.5571  -15.2348   33.4105 C.3     1  UNL1        0.0047
     41 C         -14.1098  -15.6784   33.6547 C.3     1  UNL1        0.0225
     42 C         -13.7481  -16.8863   32.7823 C.3     1  UNL1        0.0047
@<TRIPOS>BOND
     1    40    41    1
     2    41    42    1
     3    41    32    1
     4    32    33   ar
     5    33    34   ar
     6    34    35    1
     7    34    36   ar
     8    36    30    1
     9    30     1    1
    10     1     2   ar
    11     2     3   ar
    12     3     4   ar
    13     4     5   ar
    14     5    15    1
    15    15    16    2
    16    15    17   am
    17    17    19    1
    18    19    20   ar
    19    20    21   ar
    20    21    22   ar
    21    22    23    1
    22    22    24   ar
    23    24    26    1
    24    26    27    1
    25    26    28    1
    26    26    29    1
    27    24    25   ar
    28     5     6   ar
    29     6     7   ar
    30     7     8   ar
    31     8     9   ar
    32     9    10    1
    33     7    11    1
    34    11    12    1
    35    12    13    1
    36    13    14    1
    37    36    37   ar
    38    37    38    1
    39    37    39   ar
    40    39    32   ar
    41     9     1   ar
    42     8     3   ar
    43    25    19   ar
    44    14     6    1
    45    30    31    1
    46    17    18    1
@<TRIPOS>MOLECULE
*****
 42 46 0 0 0
SMALL
GASTEIGER

@<TRIPOS>ATOM
      1 C          -4.0933  -16.5423   22.0815 C.ar    1  UNL1        0.2019
      2 N          -3.7333  -15.9382   23.2446 N.ar    1  UNL1       -0.2134
      3 C          -4.8971  -15.8561   23.9130 C.ar    1  UNL1        0.1033
      4 C          -5.1030  -15.3122   25.1783 C.ar    1  UNL1        0.0284
      5 C          -6.4190  -15.2876   25.6930 C.ar    1  UNL1        0.0922
      6 C          -7.4814  -15.8379   24.9232 C.ar    1  UNL1        0.1782
      7 C          -7.2285  -16.4020   23.6546 C.ar    1  UNL1        0.1897
      8 C          -5.9167  -16.3834   23.1739 C.ar    1  UNL1        0.1173
      9 N          -5.4188  -16.8411   22.0099 N.ar    1  UNL1       -0.2950
     10 C          -6.1455  -17.4775   20.9113 C.3     1  UNL1        0.1333
     11 O          -8.2849  -16.9607   22.9290 O.3     1  UNL1       -0.4669
     12 C          -9.5398  -17.2416   23.5517 C.3     1  UNL1        0.2527
     13 C          -9.9013  -16.1285   24.5416 C.3     1  UNL1        0.2526
     14 O          -8.7957  -15.8586   25.4061 O.3     1  UNL1       -0.4682
     15 C          -6.6584  -14.6940   27.0249 C.2     1  UNL1        0.2526
     16 O          -7.0834  -15.4336   27.9536 O.2     1  UNL1       -0.2697
     17 N          -6.4071  -13.2973   27.2638 N.am    1  UNL1       -0.2803
     18 H          -6.0933  -12.7009   26.4660 H       1  UNL1        0.1552
     19 C          -6.6377  -12.6420   28.5221 C.ar    1  UNL1        0.0506
     20 C          -5.6271  -11.9028   29.1584 C.ar    1  UNL1        0.0170
     21 C          -5.8857  -11.2526   30.3663 C.ar    1  UNL1        0.0309
     22 C          -7.1548  -11.3205   30.9461 C.ar    1  UNL1        0.1441
     23 F          -7.3808  -10.6749   32.1187 F       1  UNL1       -0.2042
     24 C          -8.1867  -12.0383   30.3142 C.ar    1  UNL1        0.1000
     25 C          -7.9186  -12.6868   29.0932 C.ar    1  UNL1        0.0208
     26 C          -9.5584  -12.0873   30.9437 C.3     1  UNL1        0.4207
     27 F         -10.3843  -12.9975   30.3065 F       1  UNL1       -0.1658
     28 F          -9.4450  -12.4553   32.2722 F       1  UNL1       -0.1658
     29 F         -10.1431  -10.8361   30.8703 F       1  UNL1       -0.1658
     30 N          -3.1619  -16.7861   21.0166 N.pl3   1  UNL1       -0.2814
     31 H          -3.1286  -16.1163   20.2168 H       1  UNL1        0.1551
     32 C           0.0714  -19.5299   21.3874 C.ar    1  UNL1       -0.0194
     33 C           0.2571  -18.2707   20.7943 C.ar    1  UNL1        0.0267
     34 C          -0.8111  -17.3786   20.6708 C.ar    1  UNL1        0.1540
     35 F          -0.6016  -16.1647   20.1017 F       1  UNL1       -0.2028
     36 C          -2.0833  -17.7229   21.1506 C.ar    1  UNL1        0.0889
     37 C          -2.2849  -18.9952   21.7226 C.ar    1  UNL1        0.0730
     38 CL         -3.8815  -19.5366   22.2282 Cl      1  UNL1       -0.0809
     39 C          -1.2114  -19.8848   21.8431 C.ar    1  UNL1        0.0085
     40 C           1.0190  -21.7468   20.6656 C.3     1  UNL1        0.0047
     41 C           1.2408  -20.4887   21.5136 C.3     1  UNL1        0.0225
     42 C           2.5608  -19.8008   21.1459 C.3     1  UNL1        0.0047
@<TRIPOS>BOND
     1    40    41    1
     2    41    42    1
     3    41    32    1
     4    32    33   ar
     5    33    34   ar
     6    34    35    1
     7    34    36   ar
     8    36    30    1
     9    30     1    1
    10     1     2   ar
    11     2     3   ar
    12     3     4   ar
    13     4     5   ar
    14     5    15    1
    15    15    16    2
    16    15    17   am
    17    17    19    1
    18    19    20   ar
    19    20    21   ar
    20    21    22   ar
    21    22    23    1
    22    22    24   ar
    23    24    26    1
    24    26    27    1
    25    26    28    1
    26    26    29    1
    27    24    25   ar
    28     5     6   ar
    29     6     7   ar
    30     7     8   ar
    31     8     9   ar
    32     9    10    1
    33     7    11    1
    34    11    12    1
    35    12    13    1
    36    13    14    1
    37    36    37   ar
    38    37    38    1
    39    37    39   ar
    40    39    32   ar
    41     9     1   ar
    42     8     3   ar
    43    25    19   ar
    44    14     6    1
    45    30    31    1
    46    17    18    1
@<TRIPOS>MOLECULE
*****
 42 46 0 0 0
SMALL
GASTEIGER

@<TRIPOS>ATOM
      1 C          -7.8904  -12.6548   29.5373 C.ar    1  UNL1        0.2019
      2 N          -8.9005  -13.5320   29.2968 N.ar    1  UNL1       -0.2134
      3 C          -8.4353  -14.2481   28.2581 C.ar    1  UNL1        0.1033
      4 C          -9.0800  -15.2940   27.6025 C.ar    1  UNL1        0.0284
      5 C          -8.4323  -15.8970   26.5006 C.ar    1  UNL1        0.0922
      6 C          -7.1416  -15.4411   26.1128 C.ar    1  UNL1        0.1782
      7 C          -6.5107  -14.3940   26.8177 C.ar    1  UNL1        0.1897
      8 C          -7.1972  -13.8100   27.8855 C.ar    1  UNL1        0.1173
      9 N          -6.8272  -12.8054   28.7017 N.ar    1  UNL1       -0.2950
     10 C          -5.5847  -12.0339   28.6692 C.3     1  UNL1        0.1333
     11 O          -5.2310  -13.9820   26.4342 O.3     1  UNL1       -0.4669
     12 C          -4.4332  -14.7766   25.5546 C.3     1  UNL1        0.2527
     13 C          -5.3092  -15.3992   24.4617 C.3     1  UNL1        0.2526
     14 O          -6.4528  -16.0281   25.0442 O.3     1  UNL1       -0.4682
     15 C          -9.1119  -16.9935   25.7800 C.2     1  UNL1        0.2526
     16 O          -9.7124  -17.8797   26.4464 O.2     1  UNL1       -0.2697
     17 N          -9.0956  -17.0501   24.3421 N.am    1  UNL1       -0.2803
     18 H          -8.5572  -16.3247   23.8181 H       1  UNL1        0.1552
     19 C          -9.7112  -18.0952   23.5709 C.ar    1  UNL1        0.0506
     20 C         -10.4885  -19.0938   24.1803 C.ar    1  UNL1        0.0170
     21 C         -11.0985  -20.0813   23.4050 C.ar    1  UNL1        0.0309
     22 C         -10.9523  -20.0779   22.0158 C.ar    1  UNL1        0.1441
     23 F         -11.5602  -21.0471   21.2851 F       1  UNL1       -0.2042
     24 C         -10.1952  -19.0743   21.3840 C.ar    1  UNL1        0.1000
     25 C          -9.5876  -18.0788   22.1733 C.ar    1  UNL1        0.0208
     26 C         -10.0614  -19.0731   19.8799 C.3     1  UNL1        0.4207
     27 F         -10.2729  -20.3318   19.3438 F       1  UNL1       -0.1658
     28 F         -10.9882  -18.2037   19.3335 F       1  UNL1       -0.1658
     29 F          -8.7900  -18.6545   19.5316 F       1  UNL1       -0.1658
     30 N          -7.9748  -11.6364   30.5455 N.pl3   1  UNL1       -0.2814
     31 H          -7.1854  -11.5327   31.2204 H       1  UNL1        0.1551
     32 C         -10.7971   -8.4583   30.3122 C.ar    1  UNL1       -0.0194
     33 C          -9.5079   -8.3204   29.7730 C.ar    1  UNL1        0.0267
     34 C          -8.5855   -9.3663   29.8595 C.ar    1  UNL1        0.1540
     35 F          -7.3496   -9.2094   29.3219 F       1  UNL1       -0.2028
     36 C          -8.9389  -10.5760   30.4751 C.ar    1  UNL1        0.0889
     37 C         -10.2216  -10.7133   31.0429 C.ar    1  UNL1        0.0730
     38 CL        -10.6840  -12.1561   31.9388 Cl      1  UNL1       -0.0809
     39 C         -11.1411   -9.6622   30.9538 C.ar    1  UNL1        0.0085
     40 C         -12.8375   -7.3899   31.3266 C.3     1  UNL1        0.0047
     41 C         -11.7879   -7.3133   30.2114 C.3     1  UNL1        0.0225
     42 C         -11.0692   -5.9590   30.2220 C.3     1  UNL1        0.0047
@<TRIPOS>BOND
     1    40    41    1
     2    41    42    1
     3    41    32    1
     4    32    33   ar
     5    33    34   ar
     6    34    35    1
     7    34    36   ar
     8    36    30    1
     9    30     1    1
    10     1     2   ar
    11     2     3   ar
    12     3     4   ar
    13     4     5   ar
    14     5    15    1
    15    15    16    2
    16    15    17   am
    17    17    19    1
    18    19    20   ar
    19    20    21   ar
    20    21    22   ar
    21    22    23    1
    22    22    24   ar
    23    24    26    1
    24    26    27    1
    25    26    28    1
    26    26    29    1
    27    24    25   ar
    28     5     6   ar
    29     6     7   ar
    30     7     8   ar
    31     8     9   ar
    32     9    10    1
    33     7    11    1
    34    11    12    1
    35    12    13    1
    36    13    14    1
    37    36    37   ar
    38    37    38    1
    39    37    39   ar
    40    39    32   ar
    41     9     1   ar
    42     8     3   ar
    43    25    19   ar
    44    14     6    1
    45    30    31    1
    46    17    18    1
