@<TRIPOS>MOLECULE
*****
 40 44 0 0 0
SMALL
GASTEIGER

@<TRIPOS>ATOM
      1 C         -29.7706   47.3287   -8.2390 C.3     1  UNL1        0.1332
      2 N         -28.3976   47.6759   -7.8715 N.ar    1  UNL1       -0.2977
      3 C         -27.5756   47.0544   -6.9771 C.ar    1  UNL1        0.2018
      4 N         -26.3683   47.6587   -6.8310 N.ar    1  UNL1       -0.2135
      5 C         -26.4346   48.6808   -7.7011 C.ar    1  UNL1        0.0999
      6 C         -25.4300   49.6143   -7.9879 C.ar    1  UNL1        0.0282
      7 C         -25.6770   50.5844   -8.9918 C.ar    1  UNL1        0.0888
      8 C         -26.9413   50.5739   -9.6303 C.ar    1  UNL1        0.1401
      9 C         -27.9153   49.6534   -9.3175 C.ar    1  UNL1        0.0327
     10 C         -27.6470   48.6921   -8.3384 C.ar    1  UNL1        0.0789
     11 C         -29.1317   49.8999  -10.1403 C.3     1  UNL1        0.0709
     12 C         -28.6978   51.1018  -11.0421 C.3     1  UNL1        0.1375
     13 C         -28.6431   50.6953  -12.5210 C.3     1  UNL1        0.0439
     14 C         -29.6234   52.3113  -10.8537 C.3     1  UNL1        0.0439
     15 O         -27.3818   51.4451  -10.6049 O.3     1  UNL1       -0.4824
     16 C         -24.6367   51.5773   -9.3329 C.2     1  UNL1        0.2525
     17 O         -24.9872   52.7599   -9.5947 O.2     1  UNL1       -0.2697
     18 N         -23.2459   51.2081   -9.3676 N.am    1  UNL1       -0.2803
     19 H         -22.9827   50.2157   -9.1789 H       1  UNL1        0.1552
     20 C         -22.1844   52.1080   -9.7268 C.ar    1  UNL1        0.0513
     21 C         -22.0656   52.6171  -11.0309 C.ar    1  UNL1        0.0261
     22 C         -21.0480   53.5227  -11.3437 C.ar    1  UNL1        0.0589
     23 CL        -20.9181   54.1653  -12.9711 Cl      1  UNL1       -0.0822
     24 C         -20.1452   53.9318  -10.3580 C.ar    1  UNL1        0.0153
     25 C         -20.2472   53.4317   -9.0488 C.ar    1  UNL1        0.0735
     26 C         -21.2912   52.5432   -8.7364 C.ar    1  UNL1        0.0186
     27 C         -19.3128   53.9196   -7.9700 C.3     1  UNL1        0.4186
     28 F         -18.0985   53.2589   -8.0400 F       1  UNL1       -0.1659
     29 F         -19.8833   53.6838   -6.7332 F       1  UNL1       -0.1659
     30 F         -19.0747   55.2765   -8.1055 F       1  UNL1       -0.1659
     31 N         -27.9061   45.8566   -6.2596 N.pl3   1  UNL1       -0.2814
     32 H         -28.2472   45.0400   -6.8148 H       1  UNL1        0.1551
     33 C         -27.8528   45.7248   -4.8297 C.ar    1  UNL1        0.0889
     34 C         -26.6123   45.4762   -4.2182 C.ar    1  UNL1        0.1543
     35 F         -25.4874   45.3783   -4.9706 F       1  UNL1       -0.2028
     36 C         -26.5198   45.3551   -2.8291 C.ar    1  UNL1        0.0310
     37 C         -27.6644   45.4643   -2.0387 C.ar    1  UNL1        0.0033
     38 C         -28.9078   45.6816   -2.6354 C.ar    1  UNL1        0.0128
     39 C         -29.0147   45.8041   -4.0263 C.ar    1  UNL1        0.0733
     40 CL        -30.6241   45.9784   -4.7175 Cl      1  UNL1       -0.0809
@<TRIPOS>BOND
     1     1     2    1
     2     2     3   ar
     3     3    31    1
     4    31    33    1
     5    33    34   ar
     6    34    35    1
     7    34    36   ar
     8    36    37   ar
     9    37    38   ar
    10    38    39   ar
    11    39    40    1
    12     3     4   ar
    13     4     5   ar
    14     5     6   ar
    15     6     7   ar
    16     7    16    1
    17    16    17    2
    18    16    18   am
    19    18    20    1
    20    20    21   ar
    21    21    22   ar
    22    22    23    1
    23    22    24   ar
    24    24    25   ar
    25    25    27    1
    26    27    28    1
    27    27    29    1
    28    27    30    1
    29    25    26   ar
    30     7     8   ar
    31     8     9   ar
    32     9    10   ar
    33     9    11    1
    34    11    12    1
    35    12    13    1
    36    12    14    1
    37    12    15    1
    38    10     2   ar
    39    39    33   ar
    40    10     5   ar
    41    26    20   ar
    42    15     8    1
    43    31    32    1
    44    18    19    1
@<TRIPOS>MOLECULE
*****
 40 44 0 0 0
SMALL
GASTEIGER

@<TRIPOS>ATOM
      1 C         -25.8484   51.2975  -12.2213 C.3     1  UNL1        0.1332
      2 N         -25.2599   51.2192  -10.8841 N.ar    1  UNL1       -0.2977
      3 C         -24.0208   51.6207  -10.4773 C.ar    1  UNL1        0.2018
      4 N         -23.7635   51.3633   -9.1691 N.ar    1  UNL1       -0.2135
      5 C         -24.9096   50.8086   -8.7390 C.ar    1  UNL1        0.0999
      6 C         -25.2084   50.3853   -7.4374 C.ar    1  UNL1        0.0282
      7 C         -26.5069   49.8813   -7.1732 C.ar    1  UNL1        0.0888
      8 C         -27.4233   49.8060   -8.2505 C.ar    1  UNL1        0.1401
      9 C         -27.0970   50.2157   -9.5232 C.ar    1  UNL1        0.0327
     10 C         -25.8181   50.7281   -9.7610 C.ar    1  UNL1        0.0789
     11 C         -28.2529   50.0045  -10.4379 C.3     1  UNL1        0.0709
     12 C         -29.3518   49.4423   -9.4776 C.3     1  UNL1        0.1375
     13 C         -30.5337   50.4139   -9.3564 C.3     1  UNL1        0.0439
     14 C         -29.8405   48.0591   -9.9280 C.3     1  UNL1        0.0439
     15 O         -28.7147   49.3235   -8.2045 O.3     1  UNL1       -0.4824
     16 C         -26.8650   49.4380   -5.8094 C.2     1  UNL1        0.2525
     17 O         -26.4605   50.1135   -4.8246 O.2     1  UNL1       -0.2697
     18 N         -27.6612   48.2569   -5.6015 N.am    1  UNL1       -0.2803
     19 H         -27.9572   47.6959   -6.4305 H       1  UNL1        0.1552
     20 C         -28.0162   47.7450   -4.3064 C.ar    1  UNL1        0.0513
     21 C         -27.3095   46.6815   -3.7203 C.ar    1  UNL1        0.0261
     22 C         -27.6491   46.2294   -2.4421 C.ar    1  UNL1        0.0589
     23 CL        -26.7498   44.9115   -1.7122 Cl      1  UNL1       -0.0822
     24 C         -28.6914   46.8375   -1.7366 C.ar    1  UNL1        0.0153
     25 C         -29.4108   47.9010   -2.3075 C.ar    1  UNL1        0.0735
     26 C         -29.0435   48.3677   -3.5820 C.ar    1  UNL1        0.0186
     27 C         -30.4939   48.5984   -1.5231 C.3     1  UNL1        0.4186
     28 F         -30.9258   49.7327   -2.1886 F       1  UNL1       -0.1659
     29 F         -29.9964   48.9638   -0.2863 F       1  UNL1       -0.1659
     30 F         -31.5827   47.7630   -1.3424 F       1  UNL1       -0.1659
     31 N         -23.0613   52.2826  -11.3140 N.pl3   1  UNL1       -0.2814
     32 H         -23.2800   52.3584  -12.3327 H       1  UNL1        0.1551
     33 C         -21.7999   52.7958  -10.8553 C.ar    1  UNL1        0.0889
     34 C         -20.7033   51.9213  -10.7705 C.ar    1  UNL1        0.1543
     35 F         -20.8380   50.6201  -11.1310 F       1  UNL1       -0.2028
     36 C         -19.4579   52.3876  -10.3412 C.ar    1  UNL1        0.0310
     37 C         -19.2983   53.7251   -9.9772 C.ar    1  UNL1        0.0033
     38 C         -20.3865   54.5981  -10.0284 C.ar    1  UNL1        0.0128
     39 C         -21.6402   54.1437  -10.4559 C.ar    1  UNL1        0.0733
     40 CL        -22.9892   55.2731  -10.4019 Cl      1  UNL1       -0.0809
@<TRIPOS>BOND
     1     1     2    1
     2     2     3   ar
     3     3    31    1
     4    31    33    1
     5    33    34   ar
     6    34    35    1
     7    34    36   ar
     8    36    37   ar
     9    37    38   ar
    10    38    39   ar
    11    39    40    1
    12     3     4   ar
    13     4     5   ar
    14     5     6   ar
    15     6     7   ar
    16     7    16    1
    17    16    17    2
    18    16    18   am
    19    18    20    1
    20    20    21   ar
    21    21    22   ar
    22    22    23    1
    23    22    24   ar
    24    24    25   ar
    25    25    27    1
    26    27    28    1
    27    27    29    1
    28    27    30    1
    29    25    26   ar
    30     7     8   ar
    31     8     9   ar
    32     9    10   ar
    33     9    11    1
    34    11    12    1
    35    12    13    1
    36    12    14    1
    37    12    15    1
    38    10     2   ar
    39    39    33   ar
    40    10     5   ar
    41    26    20   ar
    42    15     8    1
    43    31    32    1
    44    18    19    1
@<TRIPOS>MOLECULE
*****
 40 44 0 0 0
SMALL
GASTEIGER

@<TRIPOS>ATOM
      1 C         -25.7569   51.2246  -12.3124 C.3     1  UNL1        0.1332
      2 N         -25.2444   51.2058  -10.9421 N.ar    1  UNL1       -0.2977
      3 C         -24.0131   51.5833  -10.4913 C.ar    1  UNL1        0.2018
      4 N         -23.8369   51.3969   -9.1579 N.ar    1  UNL1       -0.2135
      5 C         -25.0265   50.9140   -8.7603 C.ar    1  UNL1        0.0999
      6 C         -25.4117   50.5831   -7.4547 C.ar    1  UNL1        0.0282
      7 C         -26.7424   50.1465   -7.2340 C.ar    1  UNL1        0.0888
      8 C         -27.6024   50.0408   -8.3544 C.ar    1  UNL1        0.1401
      9 C         -27.1919   50.3589   -9.6289 C.ar    1  UNL1        0.0327
     10 C         -25.8818   50.8061   -9.8248 C.ar    1  UNL1        0.0789
     11 C         -28.3052   50.1368  -10.5926 C.3     1  UNL1        0.0709
     12 C         -29.4762   49.6772   -9.6635 C.3     1  UNL1        0.1375
     13 C         -30.6212   50.6992   -9.6659 C.3     1  UNL1        0.0439
     14 C         -29.9976   48.2889  -10.0580 C.3     1  UNL1        0.0439
     15 O         -28.9135   49.6121   -8.3521 O.3     1  UNL1       -0.4824
     16 C         -27.1909   49.8017   -5.8685 C.2     1  UNL1        0.2525
     17 O         -26.4856   50.1622   -4.8876 O.2     1  UNL1       -0.2697
     18 N         -28.4104   49.0674   -5.6547 N.am    1  UNL1       -0.2803
     19 H         -28.9608   48.7516   -6.4835 H       1  UNL1        0.1552
     20 C         -28.8894   48.6645   -4.3609 C.ar    1  UNL1        0.0513
     21 C         -29.8644   49.4093   -3.6764 C.ar    1  UNL1        0.0261
     22 C         -30.3428   48.9735   -2.4376 C.ar    1  UNL1        0.0589
     23 CL        -31.5723   49.9019   -1.5983 Cl      1  UNL1       -0.0822
     24 C         -29.8573   47.7895   -1.8749 C.ar    1  UNL1        0.0153
     25 C         -28.8805   47.0326   -2.5439 C.ar    1  UNL1        0.0735
     26 C         -28.4261   47.4638   -3.8027 C.ar    1  UNL1        0.0186
     27 C         -28.4016   45.7237   -1.9677 C.3     1  UNL1        0.4186
     28 F         -28.9041   45.5388   -0.6912 F       1  UNL1       -0.1659
     29 F         -27.0205   45.7296   -1.9116 F       1  UNL1       -0.1659
     30 F         -28.8164   44.6620   -2.7531 F       1  UNL1       -0.1659
     31 N         -22.9835   52.1553  -11.3108 N.pl3   1  UNL1       -0.2814
     32 H         -23.1194   52.1275  -12.3463 H       1  UNL1        0.1551
     33 C         -21.7579   52.7106  -10.8064 C.ar    1  UNL1        0.0889
     34 C         -20.6379   51.8721  -10.6751 C.ar    1  UNL1        0.1543
     35 F         -20.7168   50.5659  -11.0341 F       1  UNL1       -0.2028
     36 C         -19.4256   52.3799  -10.2005 C.ar    1  UNL1        0.0310
     37 C         -19.3230   53.7232   -9.8374 C.ar    1  UNL1        0.0033
     38 C         -20.4358   54.5606   -9.9348 C.ar    1  UNL1        0.0128
     39 C         -21.6569   54.0644  -10.4080 C.ar    1  UNL1        0.0733
     40 CL        -23.0424   55.1501  -10.4116 Cl      1  UNL1       -0.0809
@<TRIPOS>BOND
     1     1     2    1
     2     2     3   ar
     3     3    31    1
     4    31    33    1
     5    33    34   ar
     6    34    35    1
     7    34    36   ar
     8    36    37   ar
     9    37    38   ar
    10    38    39   ar
    11    39    40    1
    12     3     4   ar
    13     4     5   ar
    14     5     6   ar
    15     6     7   ar
    16     7    16    1
    17    16    17    2
    18    16    18   am
    19    18    20    1
    20    20    21   ar
    21    21    22   ar
    22    22    23    1
    23    22    24   ar
    24    24    25   ar
    25    25    27    1
    26    27    28    1
    27    27    29    1
    28    27    30    1
    29    25    26   ar
    30     7     8   ar
    31     8     9   ar
    32     9    10   ar
    33     9    11    1
    34    11    12    1
    35    12    13    1
    36    12    14    1
    37    12    15    1
    38    10     2   ar
    39    39    33   ar
    40    10     5   ar
    41    26    20   ar
    42    15     8    1
    43    31    32    1
    44    18    19    1
@<TRIPOS>MOLECULE
*****
 40 44 0 0 0
SMALL
GASTEIGER

@<TRIPOS>ATOM
      1 C         -30.6743   50.0785   -6.5822 C.3     1  UNL1        0.1332
      2 N         -29.2227   50.1887   -6.4355 N.ar    1  UNL1       -0.2977
      3 C         -28.4623   49.9614   -5.3256 C.ar    1  UNL1        0.2018
      4 N         -27.1383   50.1999   -5.5102 N.ar    1  UNL1       -0.2135
      5 C         -27.0732   50.5578   -6.8040 C.ar    1  UNL1        0.0999
      6 C         -25.9225   50.8769   -7.5367 C.ar    1  UNL1        0.0282
      7 C         -26.0610   51.1688   -8.9172 C.ar    1  UNL1        0.0888
      8 C         -27.3633   51.1502   -9.4738 C.ar    1  UNL1        0.1401
      9 C         -28.4782   50.8475   -8.7259 C.ar    1  UNL1        0.0327
     10 C         -28.3203   50.5433   -7.3704 C.ar    1  UNL1        0.0789
     11 C         -29.6976   50.9204   -9.5775 C.3     1  UNL1        0.0709
     12 C         -29.1124   51.2708  -10.9848 C.3     1  UNL1        0.1375
     13 C         -29.3447   50.1285  -11.9832 C.3     1  UNL1        0.0439
     14 C         -29.6956   52.5824  -11.5276 C.3     1  UNL1        0.0439
     15 O         -27.7077   51.4309  -10.7796 O.3     1  UNL1       -0.4824
     16 C         -24.8689   51.4962   -9.7272 C.2     1  UNL1        0.2525
     17 O         -24.8681   51.2040  -10.9538 O.2     1  UNL1       -0.2697
     18 N         -23.7252   52.1373   -9.1331 N.am    1  UNL1       -0.2803
     19 H         -23.7360   52.3402   -8.1092 H       1  UNL1        0.1552
     20 C         -22.5186   52.4513   -9.8480 C.ar    1  UNL1        0.0513
     21 C         -22.5544   53.0639  -11.1119 C.ar    1  UNL1        0.0261
     22 C         -21.3658   53.3959  -11.7680 C.ar    1  UNL1        0.0589
     23 CL        -21.4213   54.1755  -13.3387 Cl      1  UNL1       -0.0822
     24 C         -20.1332   53.1251  -11.1668 C.ar    1  UNL1        0.0153
     25 C         -20.0776   52.5109   -9.9041 C.ar    1  UNL1        0.0735
     26 C         -21.2786   52.2066   -9.2392 C.ar    1  UNL1        0.0186
     27 C         -18.7506   52.2750   -9.2274 C.3     1  UNL1        0.4186
     28 F         -18.4206   53.3444   -8.4129 F       1  UNL1       -0.1659
     29 F         -17.7700   52.1224  -10.1897 F       1  UNL1       -0.1659
     30 F         -18.7960   51.1341   -8.4449 F       1  UNL1       -0.1659
     31 N         -28.9705   49.4865   -4.0706 N.pl3   1  UNL1       -0.2814
     32 H         -29.4905   50.1666   -3.4718 H       1  UNL1        0.1551
     33 C         -28.7642   48.1592   -3.5600 C.ar    1  UNL1        0.0889
     34 C         -29.7957   47.2143   -3.6933 C.ar    1  UNL1        0.1543
     35 F         -30.9572   47.5532   -4.3075 F       1  UNL1       -0.2028
     36 C         -29.6262   45.9103   -3.2205 C.ar    1  UNL1        0.0310
     37 C         -28.4342   45.5409   -2.5965 C.ar    1  UNL1        0.0033
     38 C         -27.4124   46.4778   -2.4308 C.ar    1  UNL1        0.0128
     39 C         -27.5696   47.7881   -2.8992 C.ar    1  UNL1        0.0733
     40 CL        -26.2817   48.9418   -2.5693 Cl      1  UNL1       -0.0809
@<TRIPOS>BOND
     1     1     2    1
     2     2     3   ar
     3     3    31    1
     4    31    33    1
     5    33    34   ar
     6    34    35    1
     7    34    36   ar
     8    36    37   ar
     9    37    38   ar
    10    38    39   ar
    11    39    40    1
    12     3     4   ar
    13     4     5   ar
    14     5     6   ar
    15     6     7   ar
    16     7    16    1
    17    16    17    2
    18    16    18   am
    19    18    20    1
    20    20    21   ar
    21    21    22   ar
    22    22    23    1
    23    22    24   ar
    24    24    25   ar
    25    25    27    1
    26    27    28    1
    27    27    29    1
    28    27    30    1
    29    25    26   ar
    30     7     8   ar
    31     8     9   ar
    32     9    10   ar
    33     9    11    1
    34    11    12    1
    35    12    13    1
    36    12    14    1
    37    12    15    1
    38    10     2   ar
    39    39    33   ar
    40    10     5   ar
    41    26    20   ar
    42    15     8    1
    43    31    32    1
    44    18    19    1
@<TRIPOS>MOLECULE
*****
 40 44 0 0 0
SMALL
GASTEIGER

@<TRIPOS>ATOM
      1 C         -23.8951   52.7960  -11.3958 C.3     1  UNL1        0.1332
      2 N         -23.6438   52.1408  -10.1120 N.ar    1  UNL1       -0.2977
      3 C         -22.5064   52.1587   -9.3584 C.ar    1  UNL1        0.2018
      4 N         -22.5834   51.4039   -8.2322 N.ar    1  UNL1       -0.2135
      5 C         -23.8385   50.9251   -8.2743 C.ar    1  UNL1        0.0999
      6 C         -24.4659   50.1112   -7.3223 C.ar    1  UNL1        0.0282
      7 C         -25.8259   49.7642   -7.5223 C.ar    1  UNL1        0.0888
      8 C         -26.4680   50.2373   -8.6929 C.ar    1  UNL1        0.1401
      9 C         -25.8218   51.0237   -9.6190 C.ar    1  UNL1        0.0327
     10 C         -24.4862   51.3719   -9.3955 C.ar    1  UNL1        0.0789
     11 C         -26.7447   51.3520  -10.7406 C.3     1  UNL1        0.0709
     12 C         -28.0786   50.6654  -10.2990 C.3     1  UNL1        0.1375
     13 C         -29.1753   51.7045  -10.0287 C.3     1  UNL1        0.0439
     14 C         -28.5564   49.6411  -11.3370 C.3     1  UNL1        0.0439
     15 O         -27.7684   49.9885   -9.0798 O.3     1  UNL1       -0.4824
     16 C         -26.5269   48.9189   -6.5331 C.2     1  UNL1        0.2525
     17 O         -27.2253   47.9532   -6.9446 O.2     1  UNL1       -0.2697
     18 N         -26.4188   49.1874   -5.1230 N.am    1  UNL1       -0.2803
     19 H         -25.8613   50.0117   -4.8080 H       1  UNL1        0.1552
     20 C         -27.1005   48.4335   -4.1069 C.ar    1  UNL1        0.0513
     21 C         -28.3359   48.8548   -3.5871 C.ar    1  UNL1        0.0261
     22 C         -28.9976   48.0819   -2.6289 C.ar    1  UNL1        0.0589
     23 CL        -30.5477   48.6085   -1.9980 Cl      1  UNL1       -0.0822
     24 C         -28.4359   46.8809   -2.1862 C.ar    1  UNL1        0.0153
     25 C         -27.2001   46.4445   -2.6932 C.ar    1  UNL1        0.0735
     26 C         -26.5556   47.2142   -3.6776 C.ar    1  UNL1        0.0186
     27 C         -26.6232   45.1191   -2.2628 C.3     1  UNL1        0.4186
     28 F         -26.9808   44.1192   -3.1508 F       1  UNL1       -0.1659
     29 F         -27.1047   44.7996   -1.0071 F       1  UNL1       -0.1659
     30 F         -25.2412   45.1793   -2.2140 F       1  UNL1       -0.1659
     31 N         -21.3285   52.9143   -9.6753 N.pl3   1  UNL1       -0.2814
     32 H         -21.4493   53.7779  -10.2507 H       1  UNL1        0.1551
     33 C         -19.9939   52.5334   -9.3032 C.ar    1  UNL1        0.0889
     34 C         -19.5622   52.7756   -7.9881 C.ar    1  UNL1        0.1543
     35 F         -20.4019   53.3464   -7.0879 F       1  UNL1       -0.2028
     36 C         -18.2755   52.4069   -7.5864 C.ar    1  UNL1        0.0310
     37 C         -17.4025   51.8086   -8.4957 C.ar    1  UNL1        0.0033
     38 C         -17.8081   51.5890   -9.8134 C.ar    1  UNL1        0.0128
     39 C         -19.0944   51.9545  -10.2292 C.ar    1  UNL1        0.0733
     40 CL        -19.5044   51.7390  -11.9274 Cl      1  UNL1       -0.0809
@<TRIPOS>BOND
     1     1     2    1
     2     2     3   ar
     3     3    31    1
     4    31    33    1
     5    33    34   ar
     6    34    35    1
     7    34    36   ar
     8    36    37   ar
     9    37    38   ar
    10    38    39   ar
    11    39    40    1
    12     3     4   ar
    13     4     5   ar
    14     5     6   ar
    15     6     7   ar
    16     7    16    1
    17    16    17    2
    18    16    18   am
    19    18    20    1
    20    20    21   ar
    21    21    22   ar
    22    22    23    1
    23    22    24   ar
    24    24    25   ar
    25    25    27    1
    26    27    28    1
    27    27    29    1
    28    27    30    1
    29    25    26   ar
    30     7     8   ar
    31     8     9   ar
    32     9    10   ar
    33     9    11    1
    34    11    12    1
    35    12    13    1
    36    12    14    1
    37    12    15    1
    38    10     2   ar
    39    39    33   ar
    40    10     5   ar
    41    26    20   ar
    42    15     8    1
    43    31    32    1
    44    18    19    1
@<TRIPOS>MOLECULE
*****
 40 44 0 0 0
SMALL
GASTEIGER

@<TRIPOS>ATOM
      1 C         -23.8563   52.8446  -11.4393 C.3     1  UNL1        0.1332
      2 N         -23.5935   52.1893  -10.1578 N.ar    1  UNL1       -0.2977
      3 C         -22.4526   52.2148   -9.4098 C.ar    1  UNL1        0.2018
      4 N         -22.5180   51.4575   -8.2846 N.ar    1  UNL1       -0.2135
      5 C         -23.7696   50.9690   -8.3214 C.ar    1  UNL1        0.0999
      6 C         -24.3860   50.1486   -7.3676 C.ar    1  UNL1        0.0282
      7 C         -25.7442   49.7914   -7.5615 C.ar    1  UNL1        0.0888
      8 C         -26.3957   50.2615   -8.7281 C.ar    1  UNL1        0.1401
      9 C         -25.7602   51.0545   -9.6561 C.ar    1  UNL1        0.0327
     10 C         -24.4264   51.4126   -9.4386 C.ar    1  UNL1        0.0789
     11 C         -26.6912   51.3774  -10.7725 C.3     1  UNL1        0.0709
     12 C         -28.0176   50.6796  -10.3254 C.3     1  UNL1        0.1375
     13 C         -29.1210   51.7097  -10.0480 C.3     1  UNL1        0.0439
     14 C         -28.4925   49.6534  -11.3629 C.3     1  UNL1        0.0439
     15 O         -27.6960   50.0032   -9.1090 O.3     1  UNL1       -0.4824
     16 C         -26.4337   48.9390   -6.5703 C.2     1  UNL1        0.2525
     17 O         -27.1188   47.9628   -6.9795 O.2     1  UNL1       -0.2697
     18 N         -26.3293   49.2124   -5.1609 N.am    1  UNL1       -0.2803
     19 H         -25.7831   50.0450   -4.8478 H       1  UNL1        0.1552
     20 C         -27.0008   48.4517   -4.1430 C.ar    1  UNL1        0.0513
     21 C         -28.2346   48.8655   -3.6134 C.ar    1  UNL1        0.0261
     22 C         -28.8863   48.0861   -2.6536 C.ar    1  UNL1        0.0589
     23 CL        -30.4346   48.6032   -2.0105 Cl      1  UNL1       -0.0822
     24 C         -28.3162   46.8860   -2.2191 C.ar    1  UNL1        0.0153
     25 C         -27.0818   46.4571   -2.7359 C.ar    1  UNL1        0.0735
     26 C         -26.4474   47.2333   -3.7218 C.ar    1  UNL1        0.0186
     27 C         -26.4961   45.1328   -2.3142 C.3     1  UNL1        0.4186
     28 F         -26.8952   44.8092   -1.0289 F       1  UNL1       -0.1659
     29 F         -25.1166   45.2133   -2.3507 F       1  UNL1       -0.1659
     30 F         -26.9114   44.1213   -3.1630 F       1  UNL1       -0.1659
     31 N         -21.2822   52.9801   -9.7313 N.pl3   1  UNL1       -0.2814
     32 H         -21.4220   53.8974  -10.2113 H       1  UNL1        0.1551
     33 C         -19.9344   52.5448   -9.4886 C.ar    1  UNL1        0.0889
     34 C         -19.2629   51.8278  -10.4933 C.ar    1  UNL1        0.1543
     35 F         -19.8784   51.5678  -11.6743 F       1  UNL1       -0.2028
     36 C         -17.9470   51.3997  -10.2980 C.ar    1  UNL1        0.0310
     37 C         -17.2946   51.6680   -9.0942 C.ar    1  UNL1        0.0033
     38 C         -17.9600   52.3536   -8.0762 C.ar    1  UNL1        0.0128
     39 C         -19.2789   52.7875   -8.2585 C.ar    1  UNL1        0.0733
     40 CL        -20.0889   53.5581   -6.8989 Cl      1  UNL1       -0.0809
@<TRIPOS>BOND
     1     1     2    1
     2     2     3   ar
     3     3    31    1
     4    31    33    1
     5    33    34   ar
     6    34    35    1
     7    34    36   ar
     8    36    37   ar
     9    37    38   ar
    10    38    39   ar
    11    39    40    1
    12     3     4   ar
    13     4     5   ar
    14     5     6   ar
    15     6     7   ar
    16     7    16    1
    17    16    17    2
    18    16    18   am
    19    18    20    1
    20    20    21   ar
    21    21    22   ar
    22    22    23    1
    23    22    24   ar
    24    24    25   ar
    25    25    27    1
    26    27    28    1
    27    27    29    1
    28    27    30    1
    29    25    26   ar
    30     7     8   ar
    31     8     9   ar
    32     9    10   ar
    33     9    11    1
    34    11    12    1
    35    12    13    1
    36    12    14    1
    37    12    15    1
    38    10     2   ar
    39    39    33   ar
    40    10     5   ar
    41    26    20   ar
    42    15     8    1
    43    31    32    1
    44    18    19    1
@<TRIPOS>MOLECULE
*****
 40 44 0 0 0
SMALL
GASTEIGER

@<TRIPOS>ATOM
      1 C         -24.0481   52.6768  -11.3113 C.3     1  UNL1        0.1332
      2 N         -23.8095   52.0267  -10.0225 N.ar    1  UNL1       -0.2977
      3 C         -22.6797   52.0480   -9.2576 C.ar    1  UNL1        0.2018
      4 N         -22.7677   51.2975   -8.1293 N.ar    1  UNL1       -0.2135
      5 C         -24.0222   50.8182   -8.1821 C.ar    1  UNL1        0.0999
      6 C         -24.6589   50.0078   -7.2332 C.ar    1  UNL1        0.0282
      7 C         -26.0168   49.6597   -7.4455 C.ar    1  UNL1        0.0888
      8 C         -26.6472   50.1280   -8.6242 C.ar    1  UNL1        0.1401
      9 C         -25.9920   50.9110   -9.5470 C.ar    1  UNL1        0.0327
     10 C         -24.6589   51.2604   -9.3115 C.ar    1  UNL1        0.0789
     11 C         -26.9037   51.2345  -10.6790 C.3     1  UNL1        0.0709
     12 C         -28.2419   50.5492  -10.2480 C.3     1  UNL1        0.1375
     13 C         -29.3415   51.5890   -9.9928 C.3     1  UNL1        0.0439
     14 C         -28.7089   49.5207  -11.2868 C.3     1  UNL1        0.0439
     15 O         -27.9436   49.8772   -9.0232 O.3     1  UNL1       -0.4824
     16 C         -26.7274   48.8181   -6.4600 C.2     1  UNL1        0.2525
     17 O         -27.4699   47.8884   -6.8773 O.2     1  UNL1       -0.2697
     18 N         -26.5792   49.0498   -5.0470 N.am    1  UNL1       -0.2803
     19 H         -25.9848   49.8456   -4.7261 H       1  UNL1        0.1552
     20 C         -27.2666   48.2981   -4.0331 C.ar    1  UNL1        0.0513
     21 C         -26.7245   47.1143   -3.5050 C.ar    1  UNL1        0.0261
     22 C         -27.3938   46.4241   -2.4906 C.ar    1  UNL1        0.0589
     23 CL        -26.7005   44.9557   -1.8264 Cl      1  UNL1       -0.0822
     24 C         -28.6049   46.9117   -1.9911 C.ar    1  UNL1        0.0153
     25 C         -29.1634   48.0928   -2.5084 C.ar    1  UNL1        0.0735
     26 C         -28.4689   48.7956   -3.5087 C.ar    1  UNL1        0.0186
     27 C         -30.4377   48.6531   -1.9278 C.3     1  UNL1        0.4186
     28 F         -30.8627   49.7528   -2.6530 F       1  UNL1       -0.1659
     29 F         -30.2113   49.0365   -0.6192 F       1  UNL1       -0.1659
     30 F         -31.4453   47.7042   -1.9519 F       1  UNL1       -0.1659
     31 N         -21.4989   52.8027   -9.5657 N.pl3   1  UNL1       -0.2814
     32 H         -21.6172   53.6771  -10.1251 H       1  UNL1        0.1551
     33 C         -20.1650   52.4079   -9.2058 C.ar    1  UNL1        0.0889
     34 C         -19.7113   52.6651   -7.9010 C.ar    1  UNL1        0.1543
     35 F         -20.5297   53.2631   -6.9988 F       1  UNL1       -0.2028
     36 C         -18.4247   52.2838   -7.5111 C.ar    1  UNL1        0.0310
     37 C         -17.5735   51.6576   -8.4222 C.ar    1  UNL1        0.0033
     38 C         -18.0007   51.4226   -9.7304 C.ar    1  UNL1        0.0128
     39 C         -19.2872   51.8005  -10.1344 C.ar    1  UNL1        0.0733
     40 CL        -19.7242   51.5635  -11.8230 Cl      1  UNL1       -0.0809
@<TRIPOS>BOND
     1     1     2    1
     2     2     3   ar
     3     3    31    1
     4    31    33    1
     5    33    34   ar
     6    34    35    1
     7    34    36   ar
     8    36    37   ar
     9    37    38   ar
    10    38    39   ar
    11    39    40    1
    12     3     4   ar
    13     4     5   ar
    14     5     6   ar
    15     6     7   ar
    16     7    16    1
    17    16    17    2
    18    16    18   am
    19    18    20    1
    20    20    21   ar
    21    21    22   ar
    22    22    23    1
    23    22    24   ar
    24    24    25   ar
    25    25    27    1
    26    27    28    1
    27    27    29    1
    28    27    30    1
    29    25    26   ar
    30     7     8   ar
    31     8     9   ar
    32     9    10   ar
    33     9    11    1
    34    11    12    1
    35    12    13    1
    36    12    14    1
    37    12    15    1
    38    10     2   ar
    39    39    33   ar
    40    10     5   ar
    41    26    20   ar
    42    15     8    1
    43    31    32    1
    44    18    19    1
@<TRIPOS>MOLECULE
*****
 40 44 0 0 0
SMALL
GASTEIGER

@<TRIPOS>ATOM
      1 C         -24.3073   52.4182  -11.2460 C.3     1  UNL1        0.1332
      2 N         -24.0059   51.8309   -9.9403 N.ar    1  UNL1       -0.2977
      3 C         -22.8543   51.9225   -9.2140 C.ar    1  UNL1        0.2018
      4 N         -22.8807   51.2172   -8.0539 N.ar    1  UNL1       -0.2135
      5 C         -24.1184   50.6936   -8.0465 C.ar    1  UNL1        0.0999
      6 C         -24.6963   49.9022   -7.0452 C.ar    1  UNL1        0.0282
      7 C         -26.0469   49.4994   -7.1991 C.ar    1  UNL1        0.0888
      8 C         -26.7298   49.8964   -8.3747 C.ar    1  UNL1        0.1401
      9 C         -26.1316   50.6621   -9.3493 C.ar    1  UNL1        0.0327
     10 C         -24.8051   51.0664   -9.1716 C.ar    1  UNL1        0.0789
     11 C         -27.0890   50.9069  -10.4633 C.3     1  UNL1        0.0709
     12 C         -28.3880   50.1950   -9.9616 C.3     1  UNL1        0.1375
     13 C         -29.5153   51.2064   -9.7133 C.3     1  UNL1        0.0439
     14 C         -28.8503   49.1088  -10.9421 C.3     1  UNL1        0.0439
     15 O         -28.0283   49.5852   -8.7209 O.3     1  UNL1       -0.4824
     16 C         -26.6963   48.6759   -6.1576 C.2     1  UNL1        0.2525
     17 O         -27.4758   49.2344   -5.3389 O.2     1  UNL1       -0.2697
     18 N         -26.4481   47.2604   -6.0734 N.am    1  UNL1       -0.2803
     19 H         -25.7741   46.8261   -6.7417 H       1  UNL1        0.1552
     20 C         -27.0130   46.4041   -5.0669 C.ar    1  UNL1        0.0513
     21 C         -26.2280   45.8807   -4.0259 C.ar    1  UNL1        0.0261
     22 C         -26.8104   45.0835   -3.0366 C.ar    1  UNL1        0.0589
     23 CL        -25.8247   44.4481   -1.7317 Cl      1  UNL1       -0.0822
     24 C         -28.1802   44.8071   -3.0743 C.ar    1  UNL1        0.0153
     25 C         -28.9808   45.3202   -4.1090 C.ar    1  UNL1        0.0735
     26 C         -28.3915   46.1445   -5.0837 C.ar    1  UNL1        0.0186
     27 C         -30.4688   45.0745   -4.1165 C.3     1  UNL1        0.4186
     28 F         -30.8112   44.1203   -3.1741 F       1  UNL1       -0.1659
     29 F         -30.8498   44.6284   -5.3681 F       1  UNL1       -0.1659
     30 F         -31.1587   46.2382   -3.8232 F       1  UNL1       -0.1659
     31 N         -21.7111   52.7035   -9.5907 N.pl3   1  UNL1       -0.2814
     32 H         -21.8776   53.5492  -10.1812 H       1  UNL1        0.1551
     33 C         -20.3535   52.3700   -9.2583 C.ar    1  UNL1        0.0889
     34 C         -19.8817   52.6597   -7.9667 C.ar    1  UNL1        0.1543
     35 F         -20.7043   53.2312   -7.0513 F       1  UNL1       -0.2028
     36 C         -18.5713   52.3378   -7.6033 C.ar    1  UNL1        0.0310
     37 C         -17.7149   51.7395   -8.5282 C.ar    1  UNL1        0.0033
     38 C         -18.1614   51.4731   -9.8239 C.ar    1  UNL1        0.0128
     39 C         -19.4718   51.7913  -10.2014 C.ar    1  UNL1        0.0733
     40 CL        -19.9366   51.5187  -11.8771 Cl      1  UNL1       -0.0809
@<TRIPOS>BOND
     1     1     2    1
     2     2     3   ar
     3     3    31    1
     4    31    33    1
     5    33    34   ar
     6    34    35    1
     7    34    36   ar
     8    36    37   ar
     9    37    38   ar
    10    38    39   ar
    11    39    40    1
    12     3     4   ar
    13     4     5   ar
    14     5     6   ar
    15     6     7   ar
    16     7    16    1
    17    16    17    2
    18    16    18   am
    19    18    20    1
    20    20    21   ar
    21    21    22   ar
    22    22    23    1
    23    22    24   ar
    24    24    25   ar
    25    25    27    1
    26    27    28    1
    27    27    29    1
    28    27    30    1
    29    25    26   ar
    30     7     8   ar
    31     8     9   ar
    32     9    10   ar
    33     9    11    1
    34    11    12    1
    35    12    13    1
    36    12    14    1
    37    12    15    1
    38    10     2   ar
    39    39    33   ar
    40    10     5   ar
    41    26    20   ar
    42    15     8    1
    43    31    32    1
    44    18    19    1
@<TRIPOS>MOLECULE
*****
 40 44 0 0 0
SMALL
GASTEIGER

@<TRIPOS>ATOM
      1 C         -24.0845   52.7089  -11.3373 C.3     1  UNL1        0.1332
      2 N         -23.8226   52.0578  -10.0535 N.ar    1  UNL1       -0.2977
      3 C         -22.6847   52.0921   -9.3012 C.ar    1  UNL1        0.2018
      4 N         -22.7497   51.3367   -8.1746 N.ar    1  UNL1       -0.2135
      5 C         -23.9980   50.8403   -8.2152 C.ar    1  UNL1        0.0999
      6 C         -24.6129   50.0179   -7.2621 C.ar    1  UNL1        0.0282
      7 C         -25.9681   49.6517   -7.4606 C.ar    1  UNL1        0.0888
      8 C         -26.6180   50.1153   -8.6305 C.ar    1  UNL1        0.1401
      9 C         -25.9840   50.9104   -9.5577 C.ar    1  UNL1        0.0327
     10 C         -24.6533   51.2774   -9.3358 C.ar    1  UNL1        0.0789
     11 C         -26.9127   51.2251  -10.6784 C.3     1  UNL1        0.0709
     12 C         -28.2363   50.5199  -10.2350 C.3     1  UNL1        0.1375
     13 C         -29.3473   51.5436   -9.9639 C.3     1  UNL1        0.0439
     14 C         -28.7007   49.4886  -11.2721 C.3     1  UNL1        0.0439
     15 O         -27.9152   49.8480   -9.0159 O.3     1  UNL1       -0.4824
     16 C         -26.6559   48.7970   -6.4702 C.2     1  UNL1        0.2525
     17 O         -27.2782   47.7776   -6.8746 O.2     1  UNL1       -0.2697
     18 N         -26.6205   49.1165   -5.0671 N.am    1  UNL1       -0.2803
     19 H         -26.1265   49.9831   -4.7595 H       1  UNL1        0.1552
     20 C         -27.2957   48.3549   -4.0523 C.ar    1  UNL1        0.0513
     21 C         -26.7415   47.1726   -3.5336 C.ar    1  UNL1        0.0261
     22 C         -27.3991   46.4727   -2.5182 C.ar    1  UNL1        0.0589
     23 CL        -26.6908   45.0062   -1.8657 Cl      1  UNL1       -0.0822
     24 C         -28.6104   46.9490   -2.0084 C.ar    1  UNL1        0.0153
     25 C         -29.1809   48.1285   -2.5163 C.ar    1  UNL1        0.0735
     26 C         -28.4981   48.8411   -3.5177 C.ar    1  UNL1        0.0186
     27 C         -30.4553   48.6766   -1.9247 C.3     1  UNL1        0.4186
     28 F         -30.2545   49.0725   -0.6136 F       1  UNL1       -0.1659
     29 F         -31.4294   47.6963   -1.9550 F       1  UNL1       -0.1659
     30 F         -30.8969   49.7736   -2.6442 F       1  UNL1       -0.1659
     31 N         -21.5179   52.8641   -9.6198 N.pl3   1  UNL1       -0.2814
     32 H         -21.6646   53.8124  -10.0329 H       1  UNL1        0.1551
     33 C         -20.1675   52.3993   -9.4612 C.ar    1  UNL1        0.0889
     34 C         -19.5806   51.6563  -10.4995 C.ar    1  UNL1        0.1543
     35 F         -20.2786   51.3991  -11.6343 F       1  UNL1       -0.2028
     36 C         -18.2650   51.1989  -10.3862 C.ar    1  UNL1        0.0310
     37 C         -17.5284   51.4638   -9.2312 C.ar    1  UNL1        0.0033
     38 C         -18.1090   52.1754   -8.1796 C.ar    1  UNL1        0.0128
     39 C         -19.4267   52.6387   -8.2798 C.ar    1  UNL1        0.0733
     40 CL        -20.1270   53.4423   -6.8790 Cl      1  UNL1       -0.0809
@<TRIPOS>BOND
     1     1     2    1
     2     2     3   ar
     3     3    31    1
     4    31    33    1
     5    33    34   ar
     6    34    35    1
     7    34    36   ar
     8    36    37   ar
     9    37    38   ar
    10    38    39   ar
    11    39    40    1
    12     3     4   ar
    13     4     5   ar
    14     5     6   ar
    15     6     7   ar
    16     7    16    1
    17    16    17    2
    18    16    18   am
    19    18    20    1
    20    20    21   ar
    21    21    22   ar
    22    22    23    1
    23    22    24   ar
    24    24    25   ar
    25    25    27    1
    26    27    28    1
    27    27    29    1
    28    27    30    1
    29    25    26   ar
    30     7     8   ar
    31     8     9   ar
    32     9    10   ar
    33     9    11    1
    34    11    12    1
    35    12    13    1
    36    12    14    1
    37    12    15    1
    38    10     2   ar
    39    39    33   ar
    40    10     5   ar
    41    26    20   ar
    42    15     8    1
    43    31    32    1
    44    18    19    1
