@<TRIPOS>MOLECULE
*****
 42 45 0 0 0
SMALL
GASTEIGER

@<TRIPOS>ATOM
      1 C          -8.1185  -10.8676   32.6574 C.ar    1  UNL1        0.0131
      2 C          -7.4668   -9.6910   32.2664 C.ar    1  UNL1       -0.0011
      3 C          -8.0984   -8.7832   31.4116 C.ar    1  UNL1        0.0049
      4 C          -9.4005   -9.0356   30.9653 C.ar    1  UNL1        0.0181
      5 C         -10.0848  -10.2042   31.3586 C.ar    1  UNL1        0.0878
      6 C          -9.4280  -11.1190   32.2056 C.ar    1  UNL1        0.1488
      7 O         -10.0869  -12.2782   32.6279 O.3     1  UNL1       -0.4689
      8 C         -11.2814  -12.7879   32.0281 C.3     1  UNL1        0.2197
      9 C         -10.8498  -13.7106   30.8728 C.3     1  UNL1        0.0579
     10 C         -12.1067  -11.6532   31.4616 C.2     1  UNL1        0.2698
     11 O         -13.3582  -11.7851   31.3530 O.2     1  UNL1       -0.2704
     12 N         -11.4570  -10.4639   30.9655 N.am    1  UNL1       -0.2512
     13 C          -7.4101   -7.5383   31.0101 C.ar    1  UNL1        0.0449
     14 C          -7.6199   -6.3375   31.7213 C.ar    1  UNL1        0.1293
     15 N          -8.4721   -6.2837   32.8710 N.pl3   1  UNL1       -0.3425
     16 N          -6.9944   -5.2012   31.3180 N.ar    1  UNL1       -0.1995
     17 C          -6.1705   -5.1897   30.2407 C.ar    1  UNL1        0.2145
     18 N          -5.5339   -3.9781   29.8421 N.pl3   1  UNL1       -0.3274
     19 N          -5.9573   -6.3310   29.5395 N.ar    1  UNL1       -0.2183
     20 C          -6.5429   -7.5056   29.8938 C.ar    1  UNL1        0.0645
     21 H          -8.9458   -7.1306   33.2548 H       1  UNL1        0.1437
     22 H          -8.6196   -5.3760   33.3656 H       1  UNL1        0.1437
     23 H          -5.6955   -3.0955   30.3762 H       1  UNL1        0.1452
     24 H          -4.9003   -3.9620   29.0123 H       1  UNL1        0.1452
     25 C          -6.2975   -8.7113   29.0224 C.3     1  UNL1        0.0460
     26 C          -4.9560   -9.3577   29.3531 C.3     1  UNL1        0.0067
     27 C         -12.0789  -13.5278   33.1054 C.ar    1  UNL1        0.0228
     28 C         -11.6822  -13.5343   34.4612 C.ar    1  UNL1       -0.0004
     29 C         -12.4056  -14.2599   35.4119 C.ar    1  UNL1        0.0007
     30 C         -13.5188  -15.0077   35.0274 C.ar    1  UNL1        0.0114
     31 C         -13.9057  -15.0429   33.6864 C.ar    1  UNL1        0.0575
     32 CL        -15.2889  -16.0051   33.1982 Cl      1  UNL1       -0.0823
     33 C         -13.1855  -14.3192   32.7305 C.ar    1  UNL1        0.0109
     34 C          -8.2703  -12.0369   34.8577 C.3     1  UNL1        0.0051
     35 C          -7.4316  -11.8218   33.6021 C.3     1  UNL1        0.0295
     36 C         -12.2364   -9.5070   30.1603 C.3     1  UNL1        0.1196
     37 C         -12.4693   -8.2125   30.9448 C.3     1  UNL1        0.1113
     38 N         -12.0121   -7.0580   30.1748 N.am    1  UNL1       -0.3026
     39 C         -11.2730   -5.9804   30.7658 C.2     1  UNL1        0.2230
     40 C         -10.8301   -4.8299   29.9224 C.3     1  UNL1        0.0946
     41 O         -11.0267   -5.9766   32.0022 O.2     1  UNL1       -0.2751
     42 H         -12.2830   -6.9922   29.1675 H       1  UNL1        0.1495
@<TRIPOS>BOND
     1    34    35    1
     2    35     1    1
     3     1     2   ar
     4     2     3   ar
     5     3    13    1
     6    13    14   ar
     7    14    15    1
     8    14    16   ar
     9    16    17   ar
    10    17    18    1
    11    17    19   ar
    12    19    20   ar
    13    20    25    1
    14    25    26    1
    15     3     4   ar
    16     4     5   ar
    17     5     6   ar
    18     6     7    1
    19     7     8    1
    20     8     9    1
    21     8    27    1
    22    27    28   ar
    23    28    29   ar
    24    29    30   ar
    25    30    31   ar
    26    31    32    1
    27    31    33   ar
    28     8    10    1
    29    10    11    2
    30    10    12   am
    31    12    36    1
    32    36    37    1
    33    37    38    1
    34    38    39   am
    35    39    40    1
    36    39    41    2
    37     6     1   ar
    38    33    27   ar
    39    20    13   ar
    40    12     5    1
    41    15    21    1
    42    15    22    1
    43    18    23    1
    44    18    24    1
    45    38    42    1
@<TRIPOS>MOLECULE
*****
 42 45 0 0 0
SMALL
GASTEIGER

@<TRIPOS>ATOM
      1 C          -8.6994  -11.2548   30.4988 C.ar    1  UNL1        0.0131
      2 C          -7.9032  -10.1307   30.2448 C.ar    1  UNL1       -0.0011
      3 C          -8.3549   -8.8525   30.5850 C.ar    1  UNL1        0.0049
      4 C          -9.5976   -8.6951   31.2091 C.ar    1  UNL1        0.0181
      5 C         -10.4103   -9.8123   31.4917 C.ar    1  UNL1        0.0878
      6 C          -9.9495  -11.0927   31.1258 C.ar    1  UNL1        0.1488
      7 O         -10.7245  -12.2221   31.4091 O.3     1  UNL1       -0.4689
      8 C         -12.1078  -12.1779   31.7709 C.3     1  UNL1        0.2197
      9 C         -12.9195  -12.2124   30.4624 C.3     1  UNL1        0.0579
     10 C         -12.4160  -10.8885   32.5002 C.2     1  UNL1        0.2698
     11 O         -13.3769  -10.8487   33.3192 O.2     1  UNL1       -0.2704
     12 N         -11.6736   -9.6894   32.1944 N.am    1  UNL1       -0.2512
     13 C          -7.5064   -7.6706   30.3240 C.ar    1  UNL1        0.0449
     14 C          -7.7871   -6.4320   30.9395 C.ar    1  UNL1        0.1293
     15 N          -8.8732   -6.2791   31.8604 N.pl3   1  UNL1       -0.3425
     16 N          -7.0069   -5.3546   30.6647 N.ar    1  UNL1       -0.1995
     17 C          -5.9602   -5.4378   29.8061 C.ar    1  UNL1        0.2145
     18 N          -5.1650   -4.2858   29.5367 N.pl3   1  UNL1       -0.3274
     19 N          -5.6744   -6.6169   29.1998 N.ar    1  UNL1       -0.2183
     20 C          -6.4073   -7.7370   29.4369 C.ar    1  UNL1        0.0645
     21 H          -9.4809   -7.0784   32.1444 H       1  UNL1        0.1437
     22 H          -9.0647   -5.3453   32.2864 H       1  UNL1        0.1437
     23 H          -5.3810   -3.3745   29.9985 H       1  UNL1        0.1452
     24 H          -4.3593   -4.3426   28.8751 H       1  UNL1        0.1452
     25 C          -6.0559   -8.9890   28.6739 C.3     1  UNL1        0.0460
     26 C          -4.6329   -9.4377   28.9905 C.3     1  UNL1        0.0067
     27 C         -12.4029  -13.3755   32.6780 C.ar    1  UNL1        0.0228
     28 C         -12.3760  -13.2745   34.0869 C.ar    1  UNL1       -0.0004
     29 C         -12.6024  -14.3984   34.8863 C.ar    1  UNL1        0.0007
     30 C         -12.8357  -15.6426   34.2999 C.ar    1  UNL1        0.0114
     31 C         -12.8309  -15.7700   32.9095 C.ar    1  UNL1        0.0575
     32 CL        -13.0969  -17.3394   32.1723 Cl      1  UNL1       -0.0823
     33 C         -12.6045  -14.6490   32.1044 C.ar    1  UNL1        0.0109
     34 C          -9.0542  -13.2766   29.0783 C.3     1  UNL1        0.0051
     35 C          -8.1834  -12.6283   30.1497 C.3     1  UNL1        0.0295
     36 C         -12.1720   -8.3943   32.6904 C.3     1  UNL1        0.1196
     37 C         -12.9157   -7.6463   31.5800 C.3     1  UNL1        0.1113
     38 N         -12.3226   -6.3286   31.3646 N.am    1  UNL1       -0.3026
     39 C         -11.5137   -6.0246   30.2200 C.2     1  UNL1        0.2230
     40 C         -10.9397   -4.6554   30.0557 C.3     1  UNL1        0.0946
     41 O         -11.2497   -6.9162   29.3687 O.2     1  UNL1       -0.2751
     42 H         -12.4495   -5.5987   32.1018 H       1  UNL1        0.1495
@<TRIPOS>BOND
     1    34    35    1
     2    35     1    1
     3     1     2   ar
     4     2     3   ar
     5     3    13    1
     6    13    14   ar
     7    14    15    1
     8    14    16   ar
     9    16    17   ar
    10    17    18    1
    11    17    19   ar
    12    19    20   ar
    13    20    25    1
    14    25    26    1
    15     3     4   ar
    16     4     5   ar
    17     5     6   ar
    18     6     7    1
    19     7     8    1
    20     8     9    1
    21     8    27    1
    22    27    28   ar
    23    28    29   ar
    24    29    30   ar
    25    30    31   ar
    26    31    32    1
    27    31    33   ar
    28     8    10    1
    29    10    11    2
    30    10    12   am
    31    12    36    1
    32    36    37    1
    33    37    38    1
    34    38    39   am
    35    39    40    1
    36    39    41    2
    37     6     1   ar
    38    33    27   ar
    39    20    13   ar
    40    12     5    1
    41    15    21    1
    42    15    22    1
    43    18    23    1
    44    18    24    1
    45    38    42    1
@<TRIPOS>MOLECULE
*****
 42 45 0 0 0
SMALL
GASTEIGER

@<TRIPOS>ATOM
      1 C         -11.8779   -9.3294   32.0460 C.ar    1  UNL1        0.0131
      2 C         -12.4248  -10.5518   32.4570 C.ar    1  UNL1       -0.0011
      3 C         -11.8871  -11.7573   31.9975 C.ar    1  UNL1        0.0049
      4 C         -10.7779  -11.7460   31.1443 C.ar    1  UNL1        0.0181
      5 C         -10.1979  -10.5292   30.7301 C.ar    1  UNL1        0.0878
      6 C         -10.7628   -9.3216   31.1867 C.ar    1  UNL1        0.1488
      7 O         -10.1990   -8.0988   30.8083 O.3     1  UNL1       -0.4689
      8 C          -9.2669   -7.9412   29.7346 C.3     1  UNL1        0.2197
      9 C         -10.0883   -7.7167   28.4511 C.3     1  UNL1        0.0579
     10 C          -8.4421   -9.1990   29.5700 C.2     1  UNL1        0.2698
     11 O          -7.2843   -9.1255   29.0703 O.2     1  UNL1       -0.2704
     12 N          -9.0100  -10.4844   29.8986 N.am    1  UNL1       -0.2512
     13 C         -12.4617  -13.0445   32.4422 C.ar    1  UNL1        0.0449
     14 C         -13.7206  -13.4732   31.9698 C.ar    1  UNL1        0.1293
     15 N         -14.4701  -12.7037   31.0226 N.pl3   1  UNL1       -0.3425
     16 N         -14.2380  -14.6487   32.4120 N.ar    1  UNL1       -0.1995
     17 C         -13.5735  -15.4248   33.3040 C.ar    1  UNL1        0.2145
     18 N         -14.1482  -16.6505   33.7508 N.pl3   1  UNL1       -0.3274
     19 N         -12.3641  -15.0307   33.7749 N.ar    1  UNL1       -0.2183
     20 C         -11.7832  -13.8713   33.3670 C.ar    1  UNL1        0.0645
     21 H         -14.1071  -11.8148   30.6136 H       1  UNL1        0.1437
     22 H         -15.4060  -13.0403   30.7051 H       1  UNL1        0.1437
     23 H         -15.0799  -16.9585   33.3939 H       1  UNL1        0.1452
     24 H         -13.6429  -17.2514   34.4390 H       1  UNL1        0.1452
     25 C         -10.4653  -13.4821   33.9875 C.3     1  UNL1        0.0460
     26 C         -10.4833  -13.7160   35.4947 C.3     1  UNL1        0.0067
     27 C          -8.3545   -6.7566   30.0639 C.ar    1  UNL1        0.0228
     28 C          -8.7786   -5.4177   29.9114 C.ar    1  UNL1       -0.0004
     29 C          -7.9046   -4.3591   30.1747 C.ar    1  UNL1        0.0007
     30 C          -6.5912   -4.6138   30.5703 C.ar    1  UNL1        0.0114
     31 C          -6.1426   -5.9303   30.6922 C.ar    1  UNL1        0.0575
     32 CL         -4.4834   -6.2508   31.1630 Cl      1  UNL1       -0.0823
     33 C          -7.0124   -6.9937   30.4297 C.ar    1  UNL1        0.0109
     34 C         -12.9141   -7.1439   31.4283 C.3     1  UNL1        0.0051
     35 C         -12.4544   -8.0395   32.5740 C.3     1  UNL1        0.0295
     36 C          -8.3114  -11.7066   29.4629 C.3     1  UNL1        0.1196
     37 C          -6.9641  -11.8372   30.1794 C.3     1  UNL1        0.1113
     38 N          -5.8851  -11.3251   29.3379 N.am    1  UNL1       -0.3026
     39 C          -4.9131  -10.3856   29.8168 C.2     1  UNL1        0.2230
     40 C          -3.8310   -9.9037   28.9068 C.3     1  UNL1        0.0946
     41 O          -4.9870   -9.9316   30.9906 O.2     1  UNL1       -0.2751
     42 H          -5.8561  -11.6146   28.3340 H       1  UNL1        0.1495
@<TRIPOS>BOND
     1    34    35    1
     2    35     1    1
     3     1     2   ar
     4     2     3   ar
     5     3    13    1
     6    13    14   ar
     7    14    15    1
     8    14    16   ar
     9    16    17   ar
    10    17    18    1
    11    17    19   ar
    12    19    20   ar
    13    20    25    1
    14    25    26    1
    15     3     4   ar
    16     4     5   ar
    17     5     6   ar
    18     6     7    1
    19     7     8    1
    20     8     9    1
    21     8    27    1
    22    27    28   ar
    23    28    29   ar
    24    29    30   ar
    25    30    31   ar
    26    31    32    1
    27    31    33   ar
    28     8    10    1
    29    10    11    2
    30    10    12   am
    31    12    36    1
    32    36    37    1
    33    37    38    1
    34    38    39   am
    35    39    40    1
    36    39    41    2
    37     6     1   ar
    38    33    27   ar
    39    20    13   ar
    40    12     5    1
    41    15    21    1
    42    15    22    1
    43    18    23    1
    44    18    24    1
    45    38    42    1
@<TRIPOS>MOLECULE
*****
 42 45 0 0 0
SMALL
GASTEIGER

@<TRIPOS>ATOM
      1 C          -8.3271  -11.0208   30.6147 C.ar    1  UNL1        0.0131
      2 C          -7.6087   -9.8417   30.3785 C.ar    1  UNL1       -0.0011
      3 C          -8.1729   -8.5980   30.6763 C.ar    1  UNL1        0.0049
      4 C          -9.4517   -8.5294   31.2404 C.ar    1  UNL1        0.0181
      5 C         -10.1884   -9.7026   31.5043 C.ar    1  UNL1        0.0878
      6 C          -9.6139  -10.9480   31.1812 C.ar    1  UNL1        0.1488
      7 O         -10.3121  -12.1303   31.4477 O.3     1  UNL1       -0.4689
      8 C         -11.7101  -12.1889   31.7453 C.3     1  UNL1        0.2197
      9 C         -12.4547  -12.3035   30.4019 C.3     1  UNL1        0.0579
     10 C         -12.1503  -10.9178   32.4381 C.2     1  UNL1        0.2698
     11 O         -13.1487  -10.9420   33.2116 O.2     1  UNL1       -0.2704
     12 N         -11.4889   -9.6688   32.1465 N.am    1  UNL1       -0.2512
     13 C          -7.4065   -7.3574   30.4345 C.ar    1  UNL1        0.0449
     14 C          -7.9436   -6.3222   29.6397 C.ar    1  UNL1        0.1293
     15 N          -9.2540   -6.4148   29.0694 N.pl3   1  UNL1       -0.3425
     16 N          -7.2097   -5.2020   29.4124 N.ar    1  UNL1       -0.1995
     17 C          -5.9650   -5.0526   29.9301 C.ar    1  UNL1        0.2145
     18 N          -5.2206   -3.8657   29.6673 N.pl3   1  UNL1       -0.3274
     19 N          -5.4271   -6.0363   30.6934 N.ar    1  UNL1       -0.2183
     20 C          -6.1099   -7.1790   30.9693 C.ar    1  UNL1        0.0645
     21 H          -9.8819   -7.2300   29.2430 H       1  UNL1        0.1437
     22 H          -9.6160   -5.6386   28.4722 H       1  UNL1        0.1437
     23 H          -5.6280   -3.1055   29.0787 H       1  UNL1        0.1452
     24 H          -4.2610   -3.7455   30.0610 H       1  UNL1        0.1452
     25 C          -5.4120   -8.2447   31.7760 C.3     1  UNL1        0.0460
     26 C          -4.9313   -7.6881   33.1123 C.3     1  UNL1        0.0067
     27 C         -11.9543  -13.3938   32.6579 C.ar    1  UNL1        0.0228
     28 C         -11.6596  -13.3610   34.0391 C.ar    1  UNL1       -0.0004
     29 C         -11.8489  -14.4942   34.8352 C.ar    1  UNL1        0.0007
     30 C         -12.3110  -15.6822   34.2683 C.ar    1  UNL1        0.0114
     31 C         -12.5739  -15.7450   32.8985 C.ar    1  UNL1        0.0575
     32 CL        -13.1287  -17.2464   32.1806 Cl      1  UNL1       -0.0823
     33 C         -12.3860  -14.6145   32.0968 C.ar    1  UNL1        0.0109
     34 C          -6.4683  -12.1800   29.4178 C.3     1  UNL1        0.0051
     35 C          -7.6912  -12.3546   30.3124 C.3     1  UNL1        0.0295
     36 C         -12.1081   -8.4100   32.5975 C.3     1  UNL1        0.1196
     37 C         -13.0021   -7.8293   31.4980 C.3     1  UNL1        0.1113
     38 N         -12.2566   -6.8714   30.6848 N.am    1  UNL1       -0.3026
     39 C         -11.7348   -5.6472   31.2193 C.2     1  UNL1        0.2230
     40 C         -10.9767   -4.7115   30.3356 C.3     1  UNL1        0.0946
     41 O         -11.9445   -5.3343   32.4225 O.2     1  UNL1       -0.2751
     42 H         -12.1487   -7.0631   29.6630 H       1  UNL1        0.1495
@<TRIPOS>BOND
     1    34    35    1
     2    35     1    1
     3     1     2   ar
     4     2     3   ar
     5     3    13    1
     6    13    14   ar
     7    14    15    1
     8    14    16   ar
     9    16    17   ar
    10    17    18    1
    11    17    19   ar
    12    19    20   ar
    13    20    25    1
    14    25    26    1
    15     3     4   ar
    16     4     5   ar
    17     5     6   ar
    18     6     7    1
    19     7     8    1
    20     8     9    1
    21     8    27    1
    22    27    28   ar
    23    28    29   ar
    24    29    30   ar
    25    30    31   ar
    26    31    32    1
    27    31    33   ar
    28     8    10    1
    29    10    11    2
    30    10    12   am
    31    12    36    1
    32    36    37    1
    33    37    38    1
    34    38    39   am
    35    39    40    1
    36    39    41    2
    37     6     1   ar
    38    33    27   ar
    39    20    13   ar
    40    12     5    1
    41    15    21    1
    42    15    22    1
    43    18    23    1
    44    18    24    1
    45    38    42    1
@<TRIPOS>MOLECULE
*****
 42 45 0 0 0
SMALL
GASTEIGER

@<TRIPOS>ATOM
      1 C          -8.8275  -12.8066   29.4266 C.ar    1  UNL1        0.0131
      2 C          -7.6125  -12.2060   29.0730 C.ar    1  UNL1       -0.0011
      3 C          -7.0326  -11.2416   29.9021 C.ar    1  UNL1        0.0049
      4 C          -7.6535  -10.8933   31.1070 C.ar    1  UNL1        0.0181
      5 C          -8.8680  -11.4963   31.4941 C.ar    1  UNL1        0.0878
      6 C          -9.4500  -12.4530   30.6388 C.ar    1  UNL1        0.1488
      7 O         -10.6448  -13.0821   31.0035 O.3     1  UNL1       -0.4689
      8 C         -11.5124  -12.6196   32.0426 C.3     1  UNL1        0.2197
      9 C         -12.4867  -11.6119   31.4041 C.3     1  UNL1        0.0579
     10 C         -10.7128  -11.9106   33.1138 C.2     1  UNL1        0.2698
     11 O         -11.1504  -11.8740   34.2982 O.2     1  UNL1       -0.2704
     12 N          -9.5035  -11.2044   32.7652 N.am    1  UNL1       -0.2512
     13 C          -5.7453  -10.6182   29.5293 C.ar    1  UNL1        0.0449
     14 C          -5.6575   -9.7586   28.4134 C.ar    1  UNL1        0.1293
     15 N          -6.8071   -9.4301   27.6250 N.pl3   1  UNL1       -0.3425
     16 N          -4.4581   -9.2171   28.0769 N.ar    1  UNL1       -0.1995
     17 C          -3.3347   -9.4851   28.7880 C.ar    1  UNL1        0.2145
     18 N          -2.0912   -8.9035   28.4039 N.pl3   1  UNL1       -0.3274
     19 N          -3.3946  -10.3117   29.8617 N.ar    1  UNL1       -0.2183
     20 C          -4.5636  -10.8797   30.2603 C.ar    1  UNL1        0.0645
     21 H          -7.7622   -9.7797   27.8583 H       1  UNL1        0.1437
     22 H          -6.7058   -8.8041   26.7956 H       1  UNL1        0.1437
     23 H          -2.0378   -8.2681   27.5770 H       1  UNL1        0.1452
     24 H          -1.2223   -9.1076   28.9457 H       1  UNL1        0.1452
     25 C          -4.5269  -11.8327   31.4280 C.3     1  UNL1        0.0460
     26 C          -3.5159  -11.3734   32.4737 C.3     1  UNL1        0.0067
     27 C         -12.2295  -13.8325   32.6416 C.ar    1  UNL1        0.0228
     28 C         -12.8215  -13.7966   33.9238 C.ar    1  UNL1       -0.0004
     29 C         -13.4263  -14.9363   34.4615 C.ar    1  UNL1        0.0007
     30 C         -13.4321  -16.1333   33.7451 C.ar    1  UNL1        0.0114
     31 C         -12.8209  -16.1985   32.4915 C.ar    1  UNL1        0.0575
     32 CL        -12.8038  -17.7106   31.6023 Cl      1  UNL1       -0.0823
     33 C         -12.2137  -15.0616   31.9484 C.ar    1  UNL1        0.0109
     34 C          -8.3308  -14.7361   27.9225 C.3     1  UNL1        0.0051
     35 C          -9.4240  -13.8649   28.5327 C.3     1  UNL1        0.0295
     36 C          -8.9030  -10.2868   33.7496 C.3     1  UNL1        0.1196
     37 C          -8.4136   -9.0092   33.0614 C.3     1  UNL1        0.1113
     38 N          -7.0824   -8.6466   33.5419 N.am    1  UNL1       -0.3026
     39 C          -6.1105   -8.0012   32.7078 C.2     1  UNL1        0.2230
     40 C          -4.7676   -7.6524   33.2611 C.3     1  UNL1        0.0946
     41 O          -6.3663   -7.7602   31.4970 O.2     1  UNL1       -0.2751
     42 H          -6.8126   -8.9187   34.5144 H       1  UNL1        0.1495
@<TRIPOS>BOND
     1    34    35    1
     2    35     1    1
     3     1     2   ar
     4     2     3   ar
     5     3    13    1
     6    13    14   ar
     7    14    15    1
     8    14    16   ar
     9    16    17   ar
    10    17    18    1
    11    17    19   ar
    12    19    20   ar
    13    20    25    1
    14    25    26    1
    15     3     4   ar
    16     4     5   ar
    17     5     6   ar
    18     6     7    1
    19     7     8    1
    20     8     9    1
    21     8    27    1
    22    27    28   ar
    23    28    29   ar
    24    29    30   ar
    25    30    31   ar
    26    31    32    1
    27    31    33   ar
    28     8    10    1
    29    10    11    2
    30    10    12   am
    31    12    36    1
    32    36    37    1
    33    37    38    1
    34    38    39   am
    35    39    40    1
    36    39    41    2
    37     6     1   ar
    38    33    27   ar
    39    20    13   ar
    40    12     5    1
    41    15    21    1
    42    15    22    1
    43    18    23    1
    44    18    24    1
    45    38    42    1
@<TRIPOS>MOLECULE
*****
 42 45 0 0 0
SMALL
GASTEIGER

@<TRIPOS>ATOM
      1 C          -8.8714  -11.7125   33.8774 C.ar    1  UNL1        0.0131
      2 C          -9.9278  -12.6261   33.9838 C.ar    1  UNL1       -0.0011
      3 C         -11.0561  -12.5009   33.1684 C.ar    1  UNL1        0.0049
      4 C         -11.1203  -11.4743   32.2195 C.ar    1  UNL1        0.0181
      5 C         -10.0623  -10.5524   32.0804 C.ar    1  UNL1        0.0878
      6 C          -8.9398  -10.6802   32.9225 C.ar    1  UNL1        0.1488
      7 O          -7.8663   -9.7925   32.7964 O.3     1  UNL1       -0.4689
      8 C          -7.9272   -8.5532   32.0845 C.3     1  UNL1        0.2197
      9 C          -8.4180   -7.4837   33.0782 C.3     1  UNL1        0.0579
     10 C          -8.9204   -8.6524   30.9472 C.2     1  UNL1        0.2698
     11 O          -8.7802   -7.9168   29.9299 O.2     1  UNL1       -0.2704
     12 N         -10.0700   -9.5168   31.0644 N.am    1  UNL1       -0.2512
     13 C         -12.1637  -13.4736   33.2779 C.ar    1  UNL1        0.0449
     14 C         -12.1395  -14.4852   34.2616 C.ar    1  UNL1        0.1293
     15 N         -11.0693  -14.5889   35.2075 N.pl3   1  UNL1       -0.3425
     16 N         -13.1578  -15.3820   34.3263 N.ar    1  UNL1       -0.1995
     17 C         -14.2023  -15.3321   33.4626 C.ar    1  UNL1        0.2145
     18 N         -15.2518  -16.2923   33.5558 N.pl3   1  UNL1       -0.3274
     19 N         -14.2445  -14.3711   32.5064 N.ar    1  UNL1       -0.2183
     20 C         -13.2645  -13.4359   32.3913 C.ar    1  UNL1        0.0645
     21 H         -10.2815  -13.9051   35.2360 H       1  UNL1        0.1437
     22 H         -11.0726  -15.3589   35.9125 H       1  UNL1        0.1437
     23 H         -15.2243  -17.0361   34.2882 H       1  UNL1        0.1452
     24 H         -16.0576  -16.2609   32.8925 H       1  UNL1        0.1452
     25 C         -13.3623  -12.4418   31.2619 C.3     1  UNL1        0.0460
     26 C         -14.0541  -11.1625   31.7216 C.3     1  UNL1        0.0067
     27 C          -6.5310   -8.2489   31.5347 C.ar    1  UNL1        0.0228
     28 C          -5.8389   -7.0610   31.8600 C.ar    1  UNL1       -0.0004
     29 C          -4.5859   -6.7910   31.3025 C.ar    1  UNL1        0.0007
     30 C          -4.0122   -7.6840   30.3972 C.ar    1  UNL1        0.0114
     31 C          -4.6963   -8.8462   30.0356 C.ar    1  UNL1        0.0575
     32 CL         -3.9875   -9.9557   28.8764 Cl      1  UNL1       -0.0823
     33 C          -5.9506   -9.1215   30.5898 C.ar    1  UNL1        0.0109
     34 C          -7.9725  -12.7264   35.9740 C.3     1  UNL1        0.0051
     35 C          -7.6503  -11.8800   34.7468 C.3     1  UNL1        0.0295
     36 C         -11.1663   -9.3838   30.0887 C.3     1  UNL1        0.1196
     37 C         -12.0067   -8.1404   30.3943 C.3     1  UNL1        0.1113
     38 N         -11.3984   -6.9526   29.7994 N.am    1  UNL1       -0.3026
     39 C         -11.2202   -5.7303   30.5280 C.2     1  UNL1        0.2230
     40 C         -10.5868   -4.5521   29.8632 C.3     1  UNL1        0.0946
     41 O         -11.6299   -5.6285   31.7160 O.2     1  UNL1       -0.2751
     42 H         -11.1346   -6.9813   28.7885 H       1  UNL1        0.1495
@<TRIPOS>BOND
     1    34    35    1
     2    35     1    1
     3     1     2   ar
     4     2     3   ar
     5     3    13    1
     6    13    14   ar
     7    14    15    1
     8    14    16   ar
     9    16    17   ar
    10    17    18    1
    11    17    19   ar
    12    19    20   ar
    13    20    25    1
    14    25    26    1
    15     3     4   ar
    16     4     5   ar
    17     5     6   ar
    18     6     7    1
    19     7     8    1
    20     8     9    1
    21     8    27    1
    22    27    28   ar
    23    28    29   ar
    24    29    30   ar
    25    30    31   ar
    26    31    32    1
    27    31    33   ar
    28     8    10    1
    29    10    11    2
    30    10    12   am
    31    12    36    1
    32    36    37    1
    33    37    38    1
    34    38    39   am
    35    39    40    1
    36    39    41    2
    37     6     1   ar
    38    33    27   ar
    39    20    13   ar
    40    12     5    1
    41    15    21    1
    42    15    22    1
    43    18    23    1
    44    18    24    1
    45    38    42    1
@<TRIPOS>MOLECULE
*****
 42 45 0 0 0
SMALL
GASTEIGER

@<TRIPOS>ATOM
      1 C          -9.6517  -12.4959   33.7603 C.ar    1  UNL1        0.0131
      2 C         -10.8986  -13.1246   33.8712 C.ar    1  UNL1       -0.0011
      3 C         -11.8332  -13.0296   32.8363 C.ar    1  UNL1        0.0049
      4 C         -11.5126  -12.3266   31.6695 C.ar    1  UNL1        0.0181
      5 C         -10.2576  -11.6998   31.5259 C.ar    1  UNL1        0.0878
      6 C          -9.3330  -11.7885   32.5855 C.ar    1  UNL1        0.1488
      7 O          -8.0731  -11.1929   32.4659 O.3     1  UNL1       -0.4689
      8 C          -7.7336  -10.2226   31.4711 C.3     1  UNL1        0.2197
      9 C          -8.0969   -8.8400   32.0445 C.3     1  UNL1        0.0579
     10 C          -8.5447  -10.4564   30.2152 C.2     1  UNL1        0.2698
     11 O          -8.0868  -10.0848   29.0981 O.2     1  UNL1       -0.2704
     12 N          -9.8708  -11.0183   30.3049 N.am    1  UNL1       -0.2512
     13 C         -13.1435  -13.7033   32.9543 C.ar    1  UNL1        0.0449
     14 C         -14.3305  -12.9519   33.0885 C.ar    1  UNL1        0.1293
     15 N         -14.3188  -11.5198   33.0806 N.pl3   1  UNL1       -0.3425
     16 N         -15.5199  -13.5948   33.2195 N.ar    1  UNL1       -0.1995
     17 C         -15.5967  -14.9489   33.2280 C.ar    1  UNL1        0.2145
     18 N         -16.8612  -15.5910   33.3723 N.pl3   1  UNL1       -0.3274
     19 N         -14.4684  -15.6914   33.1046 N.ar    1  UNL1       -0.2183
     20 C         -13.2465  -15.1135   32.9596 C.ar    1  UNL1        0.0645
     21 H         -13.4432  -10.9696   32.9405 H       1  UNL1        0.1437
     22 H         -15.2124  -10.9929   33.1986 H       1  UNL1        0.1437
     23 H         -17.7333  -15.0252   33.4699 H       1  UNL1        0.1452
     24 H         -16.9269  -16.6330   33.3819 H       1  UNL1        0.1452
     25 C         -12.0398  -16.0148   32.8896 C.3     1  UNL1        0.0460
     26 C         -12.2317  -17.1001   31.8352 C.3     1  UNL1        0.0067
     27 C          -6.2401  -10.3575   31.1621 C.ar    1  UNL1        0.0228
     28 C          -5.6825   -9.9100   29.9437 C.ar    1  UNL1       -0.0004
     29 C          -4.3234  -10.0920   29.6728 C.ar    1  UNL1        0.0007
     30 C          -3.5033  -10.7408   30.5962 C.ar    1  UNL1        0.0114
     31 C          -4.0430  -11.2221   31.7906 C.ar    1  UNL1        0.0575
     32 CL         -3.0178  -12.0623   32.9398 Cl      1  UNL1       -0.0823
     33 C          -5.4023  -11.0433   32.0671 C.ar    1  UNL1        0.0109
     34 C          -9.3322  -13.0402   36.1755 C.3     1  UNL1        0.0051
     35 C          -8.6459  -12.6325   34.8759 C.3     1  UNL1        0.0295
     36 C         -10.7495  -10.9681   29.1230 C.3     1  UNL1        0.1196
     37 C         -10.8312   -9.5396   28.5771 C.3     1  UNL1        0.1113
     38 N         -11.2113   -8.6078   29.6363 N.am    1  UNL1       -0.3026
     39 C         -10.6446   -7.2952   29.7489 C.2     1  UNL1        0.2230
     40 C         -11.0793   -6.3881   30.8532 C.3     1  UNL1        0.0946
     41 O          -9.7517   -6.9132   28.9451 O.2     1  UNL1       -0.2751
     42 H         -11.8811   -8.9336   30.3696 H       1  UNL1        0.1495
@<TRIPOS>BOND
     1    34    35    1
     2    35     1    1
     3     1     2   ar
     4     2     3   ar
     5     3    13    1
     6    13    14   ar
     7    14    15    1
     8    14    16   ar
     9    16    17   ar
    10    17    18    1
    11    17    19   ar
    12    19    20   ar
    13    20    25    1
    14    25    26    1
    15     3     4   ar
    16     4     5   ar
    17     5     6   ar
    18     6     7    1
    19     7     8    1
    20     8     9    1
    21     8    27    1
    22    27    28   ar
    23    28    29   ar
    24    29    30   ar
    25    30    31   ar
    26    31    32    1
    27    31    33   ar
    28     8    10    1
    29    10    11    2
    30    10    12   am
    31    12    36    1
    32    36    37    1
    33    37    38    1
    34    38    39   am
    35    39    40    1
    36    39    41    2
    37     6     1   ar
    38    33    27   ar
    39    20    13   ar
    40    12     5    1
    41    15    21    1
    42    15    22    1
    43    18    23    1
    44    18    24    1
    45    38    42    1
@<TRIPOS>MOLECULE
*****
 42 45 0 0 0
SMALL
GASTEIGER

@<TRIPOS>ATOM
      1 C          -8.9537  -12.9235   29.2172 C.ar    1  UNL1        0.0131
      2 C          -7.7449  -12.2697   28.9464 C.ar    1  UNL1       -0.0011
      3 C          -7.1964  -11.3829   29.8772 C.ar    1  UNL1        0.0049
      4 C          -7.8426  -11.1673   31.0997 C.ar    1  UNL1        0.0181
      5 C          -9.0513  -11.8268   31.4038 C.ar    1  UNL1        0.0878
      6 C          -9.6017  -12.7034   30.4476 C.ar    1  UNL1        0.1488
      7 O         -10.7899  -13.3863   30.7270 O.3     1  UNL1       -0.4689
      8 C         -11.6822  -13.0448   31.7917 C.3     1  UNL1        0.2197
      9 C         -12.6653  -11.9955   31.2396 C.3     1  UNL1        0.0579
     10 C         -10.9130  -12.4324   32.9418 C.2     1  UNL1        0.2698
     11 O         -11.3696  -12.5217   34.1162 O.2     1  UNL1       -0.2704
     12 N          -9.7120  -11.6741   32.6863 N.am    1  UNL1       -0.2512
     13 C          -5.9155  -10.7032   29.5907 C.ar    1  UNL1        0.0449
     14 C          -5.7779   -9.8733   28.4576 C.ar    1  UNL1        0.1293
     15 N          -6.8725   -9.6295   27.5668 N.pl3   1  UNL1       -0.3425
     16 N          -4.5834   -9.2790   28.2028 N.ar    1  UNL1       -0.1995
     17 C          -3.5114   -9.4661   29.0125 C.ar    1  UNL1        0.2145
     18 N          -2.2711   -8.8308   28.7125 N.pl3   1  UNL1       -0.3274
     19 N          -3.6194  -10.2628   30.1048 N.ar    1  UNL1       -0.2183
     20 C          -4.7876  -10.8801   30.4248 C.ar    1  UNL1        0.0645
     21 H          -7.8250  -10.0223   27.7323 H       1  UNL1        0.1437
     22 H          -6.7337   -9.0236   26.7279 H       1  UNL1        0.1437
     23 H          -2.1807   -8.2179   27.8719 H       1  UNL1        0.1452
     24 H          -1.4415   -8.9725   29.3305 H       1  UNL1        0.1452
     25 C          -4.8008  -11.7952   31.6230 C.3     1  UNL1        0.0460
     26 C          -3.5221  -11.6404   32.4400 C.3     1  UNL1        0.0067
     27 C         -12.3855  -14.3236   32.2545 C.ar    1  UNL1        0.0228
     28 C         -11.7393  -15.5798   32.2478 C.ar    1  UNL1       -0.0004
     29 C         -12.4251  -16.7360   32.6308 C.ar    1  UNL1        0.0007
     30 C         -13.7677  -16.6658   33.0036 C.ar    1  UNL1        0.0114
     31 C         -14.4339  -15.4390   32.9825 C.ar    1  UNL1        0.0575
     32 CL        -16.1294  -15.3547   33.4248 Cl      1  UNL1       -0.0823
     33 C         -13.7530  -14.2788   32.5998 C.ar    1  UNL1        0.0109
     34 C          -8.4622  -14.9220   27.8044 C.3     1  UNL1        0.0051
     35 C          -9.5160  -13.8976   28.2123 C.3     1  UNL1        0.0295
     36 C          -9.1444  -10.8490   33.7674 C.3     1  UNL1        0.1196
     37 C          -9.0155   -9.3911   33.3165 C.3     1  UNL1        0.1113
     38 N         -10.1642   -9.0040   32.5010 N.am    1  UNL1       -0.3026
     39 C         -10.0239   -8.3645   31.2250 C.2     1  UNL1        0.2230
     40 C         -11.2391   -7.9977   30.4377 C.3     1  UNL1        0.0946
     41 O          -8.8816   -8.0730   30.7782 O.2     1  UNL1       -0.2751
     42 H         -11.1232   -9.1505   32.8900 H       1  UNL1        0.1495
@<TRIPOS>BOND
     1    34    35    1
     2    35     1    1
     3     1     2   ar
     4     2     3   ar
     5     3    13    1
     6    13    14   ar
     7    14    15    1
     8    14    16   ar
     9    16    17   ar
    10    17    18    1
    11    17    19   ar
    12    19    20   ar
    13    20    25    1
    14    25    26    1
    15     3     4   ar
    16     4     5   ar
    17     5     6   ar
    18     6     7    1
    19     7     8    1
    20     8     9    1
    21     8    27    1
    22    27    28   ar
    23    28    29   ar
    24    29    30   ar
    25    30    31   ar
    26    31    32    1
    27    31    33   ar
    28     8    10    1
    29    10    11    2
    30    10    12   am
    31    12    36    1
    32    36    37    1
    33    37    38    1
    34    38    39   am
    35    39    40    1
    36    39    41    2
    37     6     1   ar
    38    33    27   ar
    39    20    13   ar
    40    12     5    1
    41    15    21    1
    42    15    22    1
    43    18    23    1
    44    18    24    1
    45    38    42    1
