@<TRIPOS>MOLECULE
*****
 39 43 0 0 0
SMALL
GASTEIGER

@<TRIPOS>ATOM
      1 C         -29.2507   45.4959   -4.9509 C.ar    1  UNL1        0.1317
      2 C         -30.2195   44.4810   -5.0285 C.ar    1  UNL1        0.0286
      3 C         -30.7676   44.1187   -6.2715 C.ar    1  UNL1        0.0777
      4 C         -30.3545   44.7864   -7.4331 C.ar    1  UNL1        0.2963
      5 N         -29.4355   45.7848   -7.3170 N.ar    1  UNL1       -0.1314
      6 C         -28.8803   46.5910   -8.2466 C.ar    1  UNL1        0.2244
      7 C         -27.9805   47.4168   -7.5678 C.ar    1  UNL1        0.1211
      8 N         -27.9939   47.1408   -6.2452 N.ar    1  UNL1       -0.2945
      9 C         -28.8890   46.1398   -6.1389 C.ar    1  UNL1        0.3119
     10 H         -27.4727   47.5698   -5.5286 H       1  UNL1        0.1718
     11 N         -27.1549   47.8561   -2.9684 N.3     1  UNL1       -0.2647
     12 C         -26.5458   46.5504   -2.6386 C.3     1  UNL1        0.0941
     13 C         -27.3212   45.4164   -3.3269 C.3     1  UNL1        0.1084
     14 N         -28.6680   45.8684   -3.6931 N.pl3   1  UNL1       -0.2988
     15 C         -29.3900   46.7477   -2.7709 C.3     1  UNL1        0.1084
     16 C         -28.5075   47.9520   -2.3768 C.3     1  UNL1        0.0941
     17 C         -26.3011   48.9717   -2.5175 C.3     1  UNL1        0.1199
     18 C         -26.9738   51.3059   -5.1471 C.ar    1  UNL1        0.1165
     19 N         -27.1929   50.0995   -4.5784 N.ar    1  UNL1       -0.2344
     20 C         -26.3613   50.0867   -3.5171 C.ar    1  UNL1        0.0878
     21 C         -25.6753   51.2835   -3.4539 C.ar    1  UNL1        0.0499
     22 C         -24.7255   51.7205   -2.3849 C.3     1  UNL1        0.0511
     23 N         -26.0702   52.0521   -4.4804 N.ar    1  UNL1       -0.3443
     24 H         -25.7616   53.0243   -4.7023 H       1  UNL1        0.1668
     25 C         -29.1282   51.1968   -6.3762 C.3     1  UNL1        0.0084
     26 C         -27.7277   51.7961   -6.3432 C.3     1  UNL1        0.0637
     27 C         -27.0880   48.4281   -8.1422 C.ar    1  UNL1        0.0212
     28 C         -25.8993   48.7661   -7.4919 C.ar    1  UNL1        0.0013
     29 C         -25.0587   49.7473   -8.0232 C.ar    1  UNL1       -0.0042
     30 C         -25.4003   50.4309   -9.2150 C.ar    1  UNL1       -0.0228
     31 C         -26.6117   50.0763   -9.8511 C.ar    1  UNL1       -0.0042
     32 C         -27.4462   49.0925   -9.3172 C.ar    1  UNL1        0.0013
     33 C         -24.5068   51.5253   -9.8342 C.3     1  UNL1        0.0189
     34 C         -24.3468   51.2600  -11.3465 C.3     1  UNL1        0.0044
     35 C         -25.1593   52.9090   -9.6230 C.3     1  UNL1        0.0044
     36 C         -23.0909   51.5766   -9.2113 C.3     1  UNL1        0.0044
     37 C         -29.1208   46.4860   -9.7430 C.3     1  UNL1        0.0889
     38 C         -30.6157   46.5911  -10.0528 C.3     1  UNL1        0.0111
     39 C         -28.5165   45.2175  -10.3579 C.3     1  UNL1        0.0111
@<TRIPOS>BOND
     1    25    26    1
     2    26    18    1
     3    18    19   ar
     4    19    20   ar
     5    20    17    1
     6    17    11    1
     7    11    12    1
     8    12    13    1
     9    13    14    1
    10    14     1    1
    11     1     2   ar
    12     2     3   ar
    13     3     4   ar
    14     4     5   ar
    15     5     6   ar
    16     6    37    1
    17    37    38    1
    18    37    39    1
    19     6     7   ar
    20     7    27    1
    21    27    28   ar
    22    28    29   ar
    23    29    30   ar
    24    30    33    1
    25    33    34    1
    26    33    35    1
    27    33    36    1
    28    30    31   ar
    29    31    32   ar
    30     7     8   ar
    31     8     9   ar
    32    14    15    1
    33    15    16    1
    34    20    21   ar
    35    21    22    1
    36    21    23   ar
    37    23    18   ar
    38    16    11    1
    39     9     1   ar
    40     9     5   ar
    41    32    27   ar
    42    23    24    1
    43     8    10    1
@<TRIPOS>MOLECULE
*****
 39 43 0 0 0
SMALL
GASTEIGER

@<TRIPOS>ATOM
      1 C         -29.6324   51.1136  -10.1850 C.ar    1  UNL1        0.1317
      2 C         -30.7548   50.6842   -9.4566 C.ar    1  UNL1        0.0286
      3 C         -30.6268   50.3300   -8.1021 C.ar    1  UNL1        0.0777
      4 C         -29.3697   50.3920   -7.4845 C.ar    1  UNL1        0.2963
      5 N         -28.2986   50.7845   -8.2284 N.ar    1  UNL1       -0.1314
      6 C         -26.9949   50.9174   -7.9040 C.ar    1  UNL1        0.2244
      7 C         -26.3460   51.3767   -9.0531 C.ar    1  UNL1        0.1211
      8 N         -27.2255   51.5057  -10.0707 N.ar    1  UNL1       -0.2945
      9 C         -28.4004   51.1393   -9.5231 C.ar    1  UNL1        0.3119
     10 H         -27.0493   51.7984  -10.9940 H       1  UNL1        0.1718
     11 N         -30.8857   50.3742  -13.6167 N.3     1  UNL1       -0.2647
     12 C         -29.4553   50.6526  -13.8635 C.3     1  UNL1        0.0941
     13 C         -28.7588   51.0446  -12.5512 C.3     1  UNL1        0.1084
     14 N         -29.7465   51.4947  -11.5642 N.pl3   1  UNL1       -0.2988
     15 C         -30.8799   52.3021  -12.0208 C.3     1  UNL1        0.1084
     16 C         -31.5839   51.6137  -13.2104 C.3     1  UNL1        0.0941
     17 C         -31.5243   49.7733  -14.8032 C.3     1  UNL1        0.1199
     18 C         -28.9461   49.2603  -17.2333 C.ar    1  UNL1        0.1165
     19 N         -29.8697   50.0711  -16.6708 N.ar    1  UNL1       -0.2344
     20 C         -30.4692   49.2887  -15.7508 C.ar    1  UNL1        0.0878
     21 C         -29.8882   48.0360  -15.7613 C.ar    1  UNL1        0.0499
     22 C         -30.1884   46.8975  -14.8396 C.3     1  UNL1        0.0511
     23 N         -28.9231   48.0251  -16.6935 N.ar    1  UNL1       -0.3443
     24 H         -28.2798   47.2389  -16.9336 H       1  UNL1        0.1668
     25 C         -26.6275   49.0556  -18.0972 C.3     1  UNL1        0.0084
     26 C         -27.9860   49.7194  -18.2854 C.3     1  UNL1        0.0637
     27 C         -24.9305   51.7290   -9.1992 C.ar    1  UNL1        0.0212
     28 C         -24.5326   52.6481  -10.1724 C.ar    1  UNL1        0.0013
     29 C         -23.1818   52.9672  -10.3313 C.ar    1  UNL1       -0.0042
     30 C         -22.1899   52.3553   -9.5276 C.ar    1  UNL1       -0.0228
     31 C         -22.6164   51.4232   -8.5543 C.ar    1  UNL1       -0.0042
     32 C         -23.9682   51.1107   -8.3979 C.ar    1  UNL1        0.0013
     33 C         -20.6871   52.6717   -9.6720 C.3     1  UNL1        0.0189
     34 C         -19.9757   52.4002   -8.3291 C.3     1  UNL1        0.0044
     35 C         -20.0711   51.7753  -10.7684 C.3     1  UNL1        0.0044
     36 C         -20.4121   54.1436  -10.0631 C.3     1  UNL1        0.0044
     37 C         -26.4223   50.7237   -6.5103 C.3     1  UNL1        0.0889
     38 C         -26.5942   49.2717   -6.0588 C.3     1  UNL1        0.0111
     39 C         -27.0119   51.6963   -5.4813 C.3     1  UNL1        0.0111
@<TRIPOS>BOND
     1    25    26    1
     2    26    18    1
     3    18    19   ar
     4    19    20   ar
     5    20    17    1
     6    17    11    1
     7    11    12    1
     8    12    13    1
     9    13    14    1
    10    14     1    1
    11     1     2   ar
    12     2     3   ar
    13     3     4   ar
    14     4     5   ar
    15     5     6   ar
    16     6    37    1
    17    37    38    1
    18    37    39    1
    19     6     7   ar
    20     7    27    1
    21    27    28   ar
    22    28    29   ar
    23    29    30   ar
    24    30    33    1
    25    33    34    1
    26    33    35    1
    27    33    36    1
    28    30    31   ar
    29    31    32   ar
    30     7     8   ar
    31     8     9   ar
    32    14    15    1
    33    15    16    1
    34    20    21   ar
    35    21    22    1
    36    21    23   ar
    37    23    18   ar
    38    16    11    1
    39     9     1   ar
    40     9     5   ar
    41    32    27   ar
    42    23    24    1
    43     8    10    1
@<TRIPOS>MOLECULE
*****
 39 43 0 0 0
SMALL
GASTEIGER

@<TRIPOS>ATOM
      1 C         -28.0836   48.2444   -6.2774 C.ar    1  UNL1        0.1317
      2 C         -29.4436   47.8920   -6.3041 C.ar    1  UNL1        0.0286
      3 C         -30.2592   48.2970   -7.3753 C.ar    1  UNL1        0.0777
      4 C         -29.7126   49.0687   -8.4103 C.ar    1  UNL1        0.2963
      5 N         -28.3979   49.4166   -8.3372 N.ar    1  UNL1       -0.1314
      6 C         -27.6281   50.1521   -9.1672 C.ar    1  UNL1        0.2244
      7 C         -26.3466   50.1658   -8.6103 C.ar    1  UNL1        0.1211
      8 N         -26.3294   49.4710   -7.4516 N.ar    1  UNL1       -0.2945
      9 C         -27.5961   49.0299   -7.3272 C.ar    1  UNL1        0.3119
     10 H         -25.5706   49.3222   -6.8424 H       1  UNL1        0.1718
     11 N         -27.5782   46.1899   -3.2086 N.3     1  UNL1       -0.2647
     12 C         -27.1627   47.5331   -2.7530 C.3     1  UNL1        0.0941
     13 C         -27.2442   48.5345   -3.9156 C.3     1  UNL1        0.1084
     14 N         -27.2316   47.8264   -5.2004 N.pl3   1  UNL1       -0.2988
     15 C         -26.3670   46.6536   -5.3490 C.3     1  UNL1        0.1084
     16 C         -26.6063   45.6610   -4.1906 C.3     1  UNL1        0.0941
     17 C         -27.7342   45.2652   -2.0696 C.3     1  UNL1        0.1199
     18 C         -30.5826   46.1792   -0.1031 C.ar    1  UNL1        0.1165
     19 N         -29.2409   46.1496   -0.2634 N.ar    1  UNL1       -0.2344
     20 C         -29.0686   45.4842   -1.4233 C.ar    1  UNL1        0.0878
     21 C         -30.3001   45.1442   -1.9476 C.ar    1  UNL1        0.0499
     22 C         -30.5666   44.4826   -3.2617 C.3     1  UNL1        0.0511
     23 N         -31.2524   45.5909   -1.1145 N.ar    1  UNL1       -0.3443
     24 H         -32.2869   45.5182   -1.2339 H       1  UNL1        0.1668
     25 C         -30.3089   47.8784    1.6863 C.3     1  UNL1        0.0084
     26 C         -31.2556   46.8764    1.0373 C.3     1  UNL1        0.0637
     27 C         -25.1386   50.7852   -9.1637 C.ar    1  UNL1        0.0212
     28 C         -25.0276   51.0016  -10.5388 C.ar    1  UNL1        0.0013
     29 C         -23.8676   51.5684  -11.0725 C.ar    1  UNL1       -0.0042
     30 C         -22.7773   51.9160  -10.2389 C.ar    1  UNL1       -0.0228
     31 C         -22.9106   51.6810   -8.8515 C.ar    1  UNL1       -0.0042
     32 C         -24.0736   51.1172   -8.3235 C.ar    1  UNL1        0.0013
     33 C         -21.4752   52.5376  -10.7845 C.3     1  UNL1        0.0189
     34 C         -21.8122   53.4851  -11.9557 C.3     1  UNL1        0.0044
     35 C         -20.7729   53.3366   -9.6650 C.3     1  UNL1        0.0044
     36 C         -20.4708   51.4816  -11.3052 C.3     1  UNL1        0.0044
     37 C         -28.0831   50.7165  -10.5023 C.3     1  UNL1        0.0889
     38 C         -28.6145   52.1408  -10.3274 C.3     1  UNL1        0.0111
     39 C         -29.1124   49.8251  -11.2084 C.3     1  UNL1        0.0111
@<TRIPOS>BOND
     1    25    26    1
     2    26    18    1
     3    18    19   ar
     4    19    20   ar
     5    20    17    1
     6    17    11    1
     7    11    12    1
     8    12    13    1
     9    13    14    1
    10    14     1    1
    11     1     2   ar
    12     2     3   ar
    13     3     4   ar
    14     4     5   ar
    15     5     6   ar
    16     6    37    1
    17    37    38    1
    18    37    39    1
    19     6     7   ar
    20     7    27    1
    21    27    28   ar
    22    28    29   ar
    23    29    30   ar
    24    30    33    1
    25    33    34    1
    26    33    35    1
    27    33    36    1
    28    30    31   ar
    29    31    32   ar
    30     7     8   ar
    31     8     9   ar
    32    14    15    1
    33    15    16    1
    34    20    21   ar
    35    21    22    1
    36    21    23   ar
    37    23    18   ar
    38    16    11    1
    39     9     1   ar
    40     9     5   ar
    41    32    27   ar
    42    23    24    1
    43     8    10    1
@<TRIPOS>MOLECULE
*****
 39 43 0 0 0
SMALL
GASTEIGER

@<TRIPOS>ATOM
      1 C         -21.8855   52.2101   -9.8770 C.ar    1  UNL1        0.1317
      2 C         -21.7768   52.8391  -11.1288 C.ar    1  UNL1        0.0286
      3 C         -22.9092   52.9836  -11.9495 C.ar    1  UNL1        0.0777
      4 C         -24.1461   52.4825  -11.5197 C.ar    1  UNL1        0.2963
      5 N         -24.2087   51.8527  -10.3138 N.ar    1  UNL1       -0.1314
      6 C         -25.2431   51.2712   -9.6701 C.ar    1  UNL1        0.2244
      7 C         -24.7395   50.8028   -8.4538 C.ar    1  UNL1        0.1211
      8 N         -23.4189   51.0712   -8.3564 N.ar    1  UNL1       -0.2945
      9 C         -23.1399   51.7137   -9.5070 C.ar    1  UNL1        0.3119
     10 H         -22.8055   50.8496   -7.6189 H       1  UNL1        0.1718
     11 N         -19.1068   53.7887   -7.9586 N.3     1  UNL1       -0.2647
     12 C         -18.3935   52.7622   -8.7472 C.3     1  UNL1        0.0941
     13 C         -19.3940   51.9450   -9.5793 C.3     1  UNL1        0.1084
     14 N         -20.7440   52.0677   -9.0185 N.pl3   1  UNL1       -0.2988
     15 C         -20.9017   52.0902   -7.5626 C.3     1  UNL1        0.1084
     16 C         -19.9623   53.1446   -6.9378 C.3     1  UNL1        0.0941
     17 C         -18.1613   54.7341   -7.3348 C.3     1  UNL1        0.1199
     18 C         -19.0915   58.1655   -6.9159 C.ar    1  UNL1        0.1165
     19 N         -18.3946   57.0889   -6.4893 N.ar    1  UNL1       -0.2344
     20 C         -18.7450   56.1143   -7.3527 C.ar    1  UNL1        0.0878
     21 C         -19.6248   56.6213   -8.2886 C.ar    1  UNL1        0.0499
     22 C         -20.1866   55.9058   -9.4753 C.3     1  UNL1        0.0511
     23 N         -19.8349   57.9176   -8.0129 N.ar    1  UNL1       -0.3443
     24 H         -20.4276   58.5927   -8.5446 H       1  UNL1        0.1668
     25 C         -18.8144   60.5938   -7.3528 C.3     1  UNL1        0.0084
     26 C         -18.9753   59.5180   -6.2859 C.3     1  UNL1        0.0637
     27 C         -25.4812   50.1452   -7.3737 C.ar    1  UNL1        0.0212
     28 C         -25.6858   48.7641   -7.4022 C.ar    1  UNL1        0.0013
     29 C         -26.4137   48.1376   -6.3877 C.ar    1  UNL1       -0.0042
     30 C         -26.9737   48.8864   -5.3247 C.ar    1  UNL1       -0.0228
     31 C         -26.7591   50.2835   -5.3213 C.ar    1  UNL1       -0.0042
     32 C         -26.0279   50.9038   -6.3363 C.ar    1  UNL1        0.0013
     33 C         -27.7898   48.2386   -4.1872 C.3     1  UNL1        0.0189
     34 C         -29.1477   48.9610   -4.0562 C.3     1  UNL1        0.0044
     35 C         -28.0317   46.7471   -4.5065 C.3     1  UNL1        0.0044
     36 C         -27.0807   48.3131   -2.8136 C.3     1  UNL1        0.0044
     37 C         -26.6820   51.2744  -10.1574 C.3     1  UNL1        0.0889
     38 C         -27.5421   52.1851   -9.2785 C.3     1  UNL1        0.0111
     39 C         -27.2844   49.8669  -10.2513 C.3     1  UNL1        0.0111
@<TRIPOS>BOND
     1    25    26    1
     2    26    18    1
     3    18    19   ar
     4    19    20   ar
     5    20    17    1
     6    17    11    1
     7    11    12    1
     8    12    13    1
     9    13    14    1
    10    14     1    1
    11     1     2   ar
    12     2     3   ar
    13     3     4   ar
    14     4     5   ar
    15     5     6   ar
    16     6    37    1
    17    37    38    1
    18    37    39    1
    19     6     7   ar
    20     7    27    1
    21    27    28   ar
    22    28    29   ar
    23    29    30   ar
    24    30    33    1
    25    33    34    1
    26    33    35    1
    27    33    36    1
    28    30    31   ar
    29    31    32   ar
    30     7     8   ar
    31     8     9   ar
    32    14    15    1
    33    15    16    1
    34    20    21   ar
    35    21    22    1
    36    21    23   ar
    37    23    18   ar
    38    16    11    1
    39     9     1   ar
    40     9     5   ar
    41    32    27   ar
    42    23    24    1
    43     8    10    1
@<TRIPOS>MOLECULE
*****
 39 43 0 0 0
SMALL
GASTEIGER

@<TRIPOS>ATOM
      1 C         -29.5766   48.1535   -8.3401 C.ar    1  UNL1        0.1317
      2 C         -30.9434   48.0550   -8.6508 C.ar    1  UNL1        0.0286
      3 C         -31.5013   48.8642   -9.6560 C.ar    1  UNL1        0.0777
      4 C         -30.6901   49.7826  -10.3373 C.ar    1  UNL1        0.2963
      5 N         -29.3761   49.8719   -9.9901 N.ar    1  UNL1       -0.1314
      6 C         -28.3875   50.6633  -10.4579 C.ar    1  UNL1        0.2244
      7 C         -27.2325   50.3112   -9.7547 C.ar    1  UNL1        0.1211
      8 N         -27.5055   49.3378   -8.8583 N.ar    1  UNL1       -0.2945
      9 C         -28.8188   49.0989   -9.0393 C.ar    1  UNL1        0.3119
     10 H         -26.8901   48.9054   -8.2231 H       1  UNL1        0.1718
     11 N         -29.9501   46.1738   -5.2041 N.3     1  UNL1       -0.2647
     12 C         -28.7971   47.0419   -4.8858 C.3     1  UNL1        0.0941
     13 C         -28.4399   47.9129   -6.1003 C.3     1  UNL1        0.1084
     14 N         -28.9858   47.3244   -7.3282 N.pl3   1  UNL1       -0.2988
     15 C         -28.9602   45.8681   -7.4822 C.3     1  UNL1        0.1084
     16 C         -29.5748   45.1867   -6.2403 C.3     1  UNL1        0.0941
     17 C         -30.4607   45.5010   -3.9944 C.3     1  UNL1        0.1199
     18 C         -27.4594   44.9549   -2.1209 C.ar    1  UNL1        0.1165
     19 N         -28.1634   44.7922   -3.2631 N.ar    1  UNL1       -0.2344
     20 C         -29.3553   45.3616   -2.9921 C.ar    1  UNL1        0.0878
     21 C         -29.3422   45.8706   -1.7085 C.ar    1  UNL1        0.0499
     22 C         -30.4235   46.6603   -1.0430 C.3     1  UNL1        0.0511
     23 N         -28.1416   45.6177   -1.1653 N.ar    1  UNL1       -0.3443
     24 H         -27.8017   45.8931   -0.2175 H       1  UNL1        0.1668
     25 C         -25.1163   45.3988   -2.8115 C.3     1  UNL1        0.0084
     26 C         -26.0349   44.5227   -1.9688 C.3     1  UNL1        0.0637
     27 C         -25.8790   50.8444   -9.9357 C.ar    1  UNL1        0.0212
     28 C         -25.3350   50.9589  -11.2168 C.ar    1  UNL1        0.0013
     29 C         -24.0362   51.4429  -11.3912 C.ar    1  UNL1       -0.0042
     30 C         -23.2398   51.8076  -10.2789 C.ar    1  UNL1       -0.0228
     31 C         -23.8097   51.6763   -8.9921 C.ar    1  UNL1       -0.0042
     32 C         -25.1096   51.1950   -8.8241 C.ar    1  UNL1        0.0013
     33 C         -21.7993   52.3401  -10.4232 C.3     1  UNL1        0.0189
     34 C         -21.8198   53.6615  -11.2210 C.3     1  UNL1        0.0044
     35 C         -21.1980   52.5958   -9.0239 C.3     1  UNL1        0.0044
     36 C         -20.8604   51.3566  -11.1624 C.3     1  UNL1        0.0044
     37 C         -28.5271   51.6340  -11.6182 C.3     1  UNL1        0.0889
     38 C         -29.7040   52.5833  -11.3824 C.3     1  UNL1        0.0111
     39 C         -28.6480   50.9298  -12.9753 C.3     1  UNL1        0.0111
@<TRIPOS>BOND
     1    25    26    1
     2    26    18    1
     3    18    19   ar
     4    19    20   ar
     5    20    17    1
     6    17    11    1
     7    11    12    1
     8    12    13    1
     9    13    14    1
    10    14     1    1
    11     1     2   ar
    12     2     3   ar
    13     3     4   ar
    14     4     5   ar
    15     5     6   ar
    16     6    37    1
    17    37    38    1
    18    37    39    1
    19     6     7   ar
    20     7    27    1
    21    27    28   ar
    22    28    29   ar
    23    29    30   ar
    24    30    33    1
    25    33    34    1
    26    33    35    1
    27    33    36    1
    28    30    31   ar
    29    31    32   ar
    30     7     8   ar
    31     8     9   ar
    32    14    15    1
    33    15    16    1
    34    20    21   ar
    35    21    22    1
    36    21    23   ar
    37    23    18   ar
    38    16    11    1
    39     9     1   ar
    40     9     5   ar
    41    32    27   ar
    42    23    24    1
    43     8    10    1
@<TRIPOS>MOLECULE
*****
 39 43 0 0 0
SMALL
GASTEIGER

@<TRIPOS>ATOM
      1 C         -30.2616   48.9466  -11.8356 C.ar    1  UNL1        0.1317
      2 C         -31.0255   48.3950  -12.8781 C.ar    1  UNL1        0.0286
      3 C         -31.5748   47.1073  -12.7487 C.ar    1  UNL1        0.0777
      4 C         -31.3436   46.3685  -11.5798 C.ar    1  UNL1        0.2963
      5 N         -30.5744   46.9227  -10.6020 N.ar    1  UNL1       -0.1314
      6 C         -30.1826   46.4418   -9.4030 C.ar    1  UNL1        0.2244
      7 C         -29.4227   47.4487   -8.8018 C.ar    1  UNL1        0.1211
      8 N         -29.3302   48.5203   -9.6195 N.ar    1  UNL1       -0.2945
      9 C         -30.0485   48.1581  -10.7000 C.ar    1  UNL1        0.3119
     10 H         -28.8512   49.3660   -9.4627 H       1  UNL1        0.1718
     11 N         -28.0226   51.5971  -10.4735 N.3     1  UNL1       -0.2647
     12 C         -29.2918   52.3310  -10.6607 C.3     1  UNL1        0.0941
     13 C         -30.3500   51.4070  -11.2831 C.3     1  UNL1        0.1084
     14 N         -29.7062   50.2659  -11.9429 N.pl3   1  UNL1       -0.2988
     15 C         -28.4575   50.4892  -12.6750 C.3     1  UNL1        0.1084
     16 C         -27.4417   51.2394  -11.7863 C.3     1  UNL1        0.0941
     17 C         -27.0665   52.3821   -9.6694 C.3     1  UNL1        0.1199
     18 C         -27.6815   51.3549   -6.2956 C.ar    1  UNL1        0.1165
     19 N         -28.0786   52.0314   -7.3962 N.ar    1  UNL1       -0.2344
     20 C         -27.0562   51.8711   -8.2605 C.ar    1  UNL1        0.0878
     21 C         -26.0772   51.0909   -7.6777 C.ar    1  UNL1        0.0499
     22 C         -24.8209   50.5956   -8.3197 C.3     1  UNL1        0.0511
     23 N         -26.4793   50.7619   -6.4405 N.ar    1  UNL1       -0.3443
     24 H         -25.9804   50.1600   -5.7488 H       1  UNL1        0.1668
     25 C         -29.9962   51.4764   -5.4060 C.3     1  UNL1        0.0084
     26 C         -28.5340   51.2050   -5.0749 C.3     1  UNL1        0.0637
     27 C         -28.8178   47.4347   -7.4665 C.ar    1  UNL1        0.0212
     28 C         -27.4480   47.2069   -7.3188 C.ar    1  UNL1        0.0013
     29 C         -26.8725   47.1678   -6.0464 C.ar    1  UNL1       -0.0042
     30 C         -27.6631   47.3375   -4.8843 C.ar    1  UNL1       -0.0228
     31 C         -29.0481   47.5597   -5.0591 C.ar    1  UNL1       -0.0042
     32 C         -29.6171   47.6010   -6.3335 C.ar    1  UNL1        0.0013
     33 C         -27.0724   47.2954   -3.4600 C.3     1  UNL1        0.0189
     34 C         -28.1761   46.8888   -2.4602 C.3     1  UNL1        0.0044
     35 C         -25.9251   46.2631   -3.4043 C.3     1  UNL1        0.0044
     36 C         -26.4980   48.6573   -3.0012 C.3     1  UNL1        0.0044
     37 C         -30.6239   45.1130   -8.8135 C.3     1  UNL1        0.0889
     38 C         -31.5822   45.3395   -7.6423 C.3     1  UNL1        0.0111
     39 C         -29.4459   44.2221   -8.3998 C.3     1  UNL1        0.0111
@<TRIPOS>BOND
     1    25    26    1
     2    26    18    1
     3    18    19   ar
     4    19    20   ar
     5    20    17    1
     6    17    11    1
     7    11    12    1
     8    12    13    1
     9    13    14    1
    10    14     1    1
    11     1     2   ar
    12     2     3   ar
    13     3     4   ar
    14     4     5   ar
    15     5     6   ar
    16     6    37    1
    17    37    38    1
    18    37    39    1
    19     6     7   ar
    20     7    27    1
    21    27    28   ar
    22    28    29   ar
    23    29    30   ar
    24    30    33    1
    25    33    34    1
    26    33    35    1
    27    33    36    1
    28    30    31   ar
    29    31    32   ar
    30     7     8   ar
    31     8     9   ar
    32    14    15    1
    33    15    16    1
    34    20    21   ar
    35    21    22    1
    36    21    23   ar
    37    23    18   ar
    38    16    11    1
    39     9     1   ar
    40     9     5   ar
    41    32    27   ar
    42    23    24    1
    43     8    10    1
@<TRIPOS>MOLECULE
*****
 39 43 0 0 0
SMALL
GASTEIGER

@<TRIPOS>ATOM
      1 C         -29.3110   47.7825   -8.5333 C.ar    1  UNL1        0.1317
      2 C         -30.6853   47.6949   -8.8127 C.ar    1  UNL1        0.0286
      3 C         -31.2899   48.6136   -9.6885 C.ar    1  UNL1        0.0777
      4 C         -30.5177   49.6288  -10.2704 C.ar    1  UNL1        0.2963
      5 N         -29.1950   49.7016   -9.9544 N.ar    1  UNL1       -0.1314
      6 C         -28.2363   50.5675  -10.3463 C.ar    1  UNL1        0.2244
      7 C         -27.0529   50.1536   -9.7292 C.ar    1  UNL1        0.1211
      8 N         -27.2792   49.0680   -8.9573 N.ar    1  UNL1       -0.2945
      9 C         -28.5933   48.8256   -9.1278 C.ar    1  UNL1        0.3119
     10 H         -26.6358   48.5714   -8.4017 H       1  UNL1        0.1718
     11 N         -28.4644   46.7107   -5.0651 N.3     1  UNL1       -0.2647
     12 C         -27.1430   46.6874   -5.7269 C.3     1  UNL1        0.0941
     13 C         -27.2893   47.0506   -7.2127 C.3     1  UNL1        0.1084
     14 N         -28.6729   46.8439   -7.6544 N.pl3   1  UNL1       -0.2988
     15 C         -29.4090   45.6854   -7.1435 C.3     1  UNL1        0.1084
     16 C         -29.3232   45.6326   -5.6026 C.3     1  UNL1        0.0941
     17 C         -28.3291   46.5971   -3.6003 C.3     1  UNL1        0.1199
     18 C         -25.7423   48.8127   -2.4976 C.ar    1  UNL1        0.1165
     19 N         -26.9948   48.6318   -2.9723 N.ar    1  UNL1       -0.2344
     20 C         -27.0820   47.2987   -3.1547 C.ar    1  UNL1        0.0878
     21 C         -25.8970   46.7021   -2.7715 C.ar    1  UNL1        0.0499
     22 C         -25.6015   45.2371   -2.7246 C.3     1  UNL1        0.0511
     23 N         -25.0574   47.6607   -2.3512 N.ar    1  UNL1       -0.3443
     24 H         -24.0921   47.5394   -1.9727 H       1  UNL1        0.1668
     25 C         -25.4562   51.1820   -3.1822 C.3     1  UNL1        0.0084
     26 C         -25.2064   50.1492   -2.0902 C.3     1  UNL1        0.0637
     27 C         -25.7156   50.7348   -9.8810 C.ar    1  UNL1        0.0212
     28 C         -25.1887   50.9605  -11.1543 C.ar    1  UNL1        0.0013
     29 C         -23.9047   51.4908  -11.3028 C.ar    1  UNL1       -0.0042
     30 C         -23.1061   51.7911  -10.1730 C.ar    1  UNL1       -0.0228
     31 C         -23.6585   51.5475   -8.8950 C.ar    1  UNL1       -0.0042
     32 C         -24.9436   51.0204   -8.7527 C.ar    1  UNL1        0.0013
     33 C         -21.6815   52.3711  -10.2889 C.3     1  UNL1        0.0189
     34 C         -21.7422   53.7382  -11.0034 C.3     1  UNL1        0.0044
     35 C         -21.0803   52.5564   -8.8785 C.3     1  UNL1        0.0044
     36 C         -20.7197   51.4615  -11.0908 C.3     1  UNL1        0.0044
     37 C         -28.4308   51.6752  -11.3676 C.3     1  UNL1        0.0889
     38 C         -29.7357   52.4277  -11.0981 C.3     1  UNL1        0.0111
     39 C         -28.3721   51.1707  -12.8149 C.3     1  UNL1        0.0111
@<TRIPOS>BOND
     1    25    26    1
     2    26    18    1
     3    18    19   ar
     4    19    20   ar
     5    20    17    1
     6    17    11    1
     7    11    12    1
     8    12    13    1
     9    13    14    1
    10    14     1    1
    11     1     2   ar
    12     2     3   ar
    13     3     4   ar
    14     4     5   ar
    15     5     6   ar
    16     6    37    1
    17    37    38    1
    18    37    39    1
    19     6     7   ar
    20     7    27    1
    21    27    28   ar
    22    28    29   ar
    23    29    30   ar
    24    30    33    1
    25    33    34    1
    26    33    35    1
    27    33    36    1
    28    30    31   ar
    29    31    32   ar
    30     7     8   ar
    31     8     9   ar
    32    14    15    1
    33    15    16    1
    34    20    21   ar
    35    21    22    1
    36    21    23   ar
    37    23    18   ar
    38    16    11    1
    39     9     1   ar
    40     9     5   ar
    41    32    27   ar
    42    23    24    1
    43     8    10    1
@<TRIPOS>MOLECULE
*****
 39 43 0 0 0
SMALL
GASTEIGER

@<TRIPOS>ATOM
      1 C         -29.4904   47.6265   -8.6009 C.ar    1  UNL1        0.1317
      2 C         -30.8635   47.5726   -8.8947 C.ar    1  UNL1        0.0286
      3 C         -31.4458   48.5364   -9.7365 C.ar    1  UNL1        0.0777
      4 C         -30.6527   49.5623  -10.2696 C.ar    1  UNL1        0.2963
      5 N         -29.3318   49.6006   -9.9401 N.ar    1  UNL1       -0.1314
      6 C         -28.3561   50.4664  -10.2880 C.ar    1  UNL1        0.2244
      7 C         -27.1848   50.0083   -9.6791 C.ar    1  UNL1        0.1211
      8 N         -27.4350   48.8955   -8.9548 N.ar    1  UNL1       -0.2945
      9 C         -28.7512   48.6816   -9.1458 C.ar    1  UNL1        0.3119
     10 H         -26.8044   48.3660   -8.4151 H       1  UNL1        0.1718
     11 N         -29.5119   45.6632   -5.4325 N.3     1  UNL1       -0.2647
     12 C         -28.1449   46.2249   -5.4385 C.3     1  UNL1        0.0941
     13 C         -27.9126   47.0370   -6.7221 C.3     1  UNL1        0.1084
     14 N         -28.8749   46.6422   -7.7566 N.pl3   1  UNL1       -0.2988
     15 C         -29.2333   45.2276   -7.8811 C.3     1  UNL1        0.1084
     16 C         -29.6554   44.6586   -6.5091 C.3     1  UNL1        0.0941
     17 C         -29.8427   45.0796   -4.1184 C.3     1  UNL1        0.1199
     18 C         -29.7974   47.6498   -1.6269 C.ar    1  UNL1        0.1165
     19 N         -30.4161   47.0500   -2.6682 N.ar    1  UNL1       -0.2344
     20 C         -29.5573   46.0787   -3.0384 C.ar    1  UNL1        0.0878
     21 C         -28.4540   46.0973   -2.2083 C.ar    1  UNL1        0.0499
     22 C         -27.3097   45.1347   -2.2114 C.3     1  UNL1        0.0511
     23 N         -28.6132   47.0858   -1.3150 N.ar    1  UNL1       -0.3443
     24 H         -27.9709   47.3474   -0.5348 H       1  UNL1        0.1668
     25 C         -30.1949   48.5573    0.6497 C.3     1  UNL1        0.0084
     26 C         -30.4109   48.7678   -0.8438 C.3     1  UNL1        0.0637
     27 C         -25.8373   50.5737   -9.7958 C.ar    1  UNL1        0.0212
     28 C         -25.0987   50.8705   -8.6485 C.ar    1  UNL1        0.0013
     29 C         -23.8243   51.4328   -8.7555 C.ar    1  UNL1       -0.0042
     30 C         -23.2642   51.7308  -10.0212 C.ar    1  UNL1       -0.0228
     31 C         -24.0337   51.4279  -11.1675 C.ar    1  UNL1       -0.0042
     32 C         -25.3055   50.8629  -11.0544 C.ar    1  UNL1        0.0013
     33 C         -21.8646   52.3576  -10.1873 C.3     1  UNL1        0.0189
     34 C         -21.0098   51.4633  -11.1106 C.3     1  UNL1        0.0044
     35 C         -21.9964   53.7630  -10.8139 C.3     1  UNL1        0.0044
     36 C         -21.1068   52.5132   -8.8468 C.3     1  UNL1        0.0044
     37 C         -28.5243   51.6184  -11.2640 C.3     1  UNL1        0.0889
     38 C         -29.7952   52.4085  -10.9445 C.3     1  UNL1        0.0111
     39 C         -28.5074   51.1671  -12.7298 C.3     1  UNL1        0.0111
@<TRIPOS>BOND
     1    25    26    1
     2    26    18    1
     3    18    19   ar
     4    19    20   ar
     5    20    17    1
     6    17    11    1
     7    11    12    1
     8    12    13    1
     9    13    14    1
    10    14     1    1
    11     1     2   ar
    12     2     3   ar
    13     3     4   ar
    14     4     5   ar
    15     5     6   ar
    16     6    37    1
    17    37    38    1
    18    37    39    1
    19     6     7   ar
    20     7    27    1
    21    27    28   ar
    22    28    29   ar
    23    29    30   ar
    24    30    33    1
    25    33    34    1
    26    33    35    1
    27    33    36    1
    28    30    31   ar
    29    31    32   ar
    30     7     8   ar
    31     8     9   ar
    32    14    15    1
    33    15    16    1
    34    20    21   ar
    35    21    22    1
    36    21    23   ar
    37    23    18   ar
    38    16    11    1
    39     9     1   ar
    40     9     5   ar
    41    32    27   ar
    42    23    24    1
    43     8    10    1
@<TRIPOS>MOLECULE
*****
 39 43 0 0 0
SMALL
GASTEIGER

@<TRIPOS>ATOM
      1 C         -29.6023   48.1155   -8.2978 C.ar    1  UNL1        0.1317
      2 C         -30.9589   47.9944   -8.6433 C.ar    1  UNL1        0.0286
      3 C         -31.4979   48.7753   -9.6808 C.ar    1  UNL1        0.0777
      4 C         -30.6785   49.6882  -10.3596 C.ar    1  UNL1        0.2963
      5 N         -29.3757   49.8003   -9.9788 N.ar    1  UNL1       -0.1314
      6 C         -28.3834   50.5929  -10.4366 C.ar    1  UNL1        0.2244
      7 C         -27.2443   50.2696   -9.6947 C.ar    1  UNL1        0.1211
      8 N         -27.5310   49.3125   -8.7851 N.ar    1  UNL1       -0.2945
      9 C         -28.8361   49.0544   -8.9965 C.ar    1  UNL1        0.3119
     10 H         -26.9285   48.9010   -8.1241 H       1  UNL1        0.1718
     11 N         -27.8642   47.9164   -5.0064 N.3     1  UNL1       -0.2647
     12 C         -27.0131   47.0587   -5.8575 C.3     1  UNL1        0.0941
     13 C         -27.6067   46.9617   -7.2715 C.3     1  UNL1        0.1084
     14 N         -29.0304   47.3152   -7.2524 N.pl3   1  UNL1       -0.2988
     15 C         -29.8492   46.8760   -6.1203 C.3     1  UNL1        0.1084
     16 C         -29.1787   47.2737   -4.7874 C.3     1  UNL1        0.0941
     17 C         -27.2029   48.2169   -3.7222 C.3     1  UNL1        0.1199
     18 C         -29.3667   47.0033   -1.1413 C.ar    1  UNL1        0.1165
     19 N         -29.0214   47.9853   -2.0034 N.ar    1  UNL1       -0.2344
     20 C         -27.9165   47.5079   -2.6113 C.ar    1  UNL1        0.0878
     21 C         -27.6288   46.2487   -2.1229 C.ar    1  UNL1        0.0499
     22 C         -26.5463   45.3287   -2.5894 C.3     1  UNL1        0.0511
     23 N         -28.5506   45.9318   -1.2007 N.ar    1  UNL1       -0.3443
     24 H         -28.6313   45.0412   -0.6622 H       1  UNL1        0.1668
     25 C         -30.6964   45.8126    0.5844 C.3     1  UNL1        0.0084
     26 C         -30.5861   47.0651   -0.2760 C.3     1  UNL1        0.0637
     27 C         -25.8924   50.8145   -9.8504 C.ar    1  UNL1        0.0212
     28 C         -25.3378   50.9635  -11.1233 C.ar    1  UNL1        0.0013
     29 C         -24.0403   51.4588  -11.2741 C.ar    1  UNL1       -0.0042
     30 C         -23.2558   51.8004  -10.1461 C.ar    1  UNL1       -0.0228
     31 C         -23.8364   51.6343   -8.8681 C.ar    1  UNL1       -0.0042
     32 C         -25.1348   51.1419   -8.7237 C.ar    1  UNL1        0.0013
     33 C         -21.8172   52.3442  -10.2643 C.3     1  UNL1        0.0189
     34 C         -21.8521   53.7488  -10.9038 C.3     1  UNL1        0.0044
     35 C         -21.1803   52.4363   -8.8604 C.3     1  UNL1        0.0044
     36 C         -20.9009   51.4514  -11.1351 C.3     1  UNL1        0.0044
     37 C         -28.5019   51.5369  -11.6210 C.3     1  UNL1        0.0889
     38 C         -29.6488   52.5262  -11.4036 C.3     1  UNL1        0.0111
     39 C         -28.6521   50.8015  -12.9586 C.3     1  UNL1        0.0111
@<TRIPOS>BOND
     1    25    26    1
     2    26    18    1
     3    18    19   ar
     4    19    20   ar
     5    20    17    1
     6    17    11    1
     7    11    12    1
     8    12    13    1
     9    13    14    1
    10    14     1    1
    11     1     2   ar
    12     2     3   ar
    13     3     4   ar
    14     4     5   ar
    15     5     6   ar
    16     6    37    1
    17    37    38    1
    18    37    39    1
    19     6     7   ar
    20     7    27    1
    21    27    28   ar
    22    28    29   ar
    23    29    30   ar
    24    30    33    1
    25    33    34    1
    26    33    35    1
    27    33    36    1
    28    30    31   ar
    29    31    32   ar
    30     7     8   ar
    31     8     9   ar
    32    14    15    1
    33    15    16    1
    34    20    21   ar
    35    21    22    1
    36    21    23   ar
    37    23    18   ar
    38    16    11    1
    39     9     1   ar
    40     9     5   ar
    41    32    27   ar
    42    23    24    1
    43     8    10    1
