@<TRIPOS>MOLECULE
*****
 39 43 0 0 0
SMALL
GASTEIGER

@<TRIPOS>ATOM
      1 C          50.0073   11.8779  -21.5046 C.2     1  UNL1        0.2506
      2 O          51.1585   12.1311  -21.9525 O.2     1  UNL1       -0.2699
      3 N          48.9707   11.4233  -22.3976 N.am    1  UNL1       -0.2679
      4 C          48.0271   10.3903  -21.9593 C.3     1  UNL1        0.1412
      5 C          46.6825   11.0246  -21.6163 C.3     1  UNL1        0.2268
      6 O          46.4260   12.1702  -22.4255 O.3     1  UNL1       -0.4738
      7 C          46.4840   12.1355  -23.8205 C.ar    1  UNL1        0.1391
      8 C          45.3043   12.3747  -24.5268 C.ar    1  UNL1        0.0368
      9 C          45.2847   12.3156  -25.9169 C.ar    1  UNL1        0.0061
     10 C          46.4562   12.0390  -26.6340 C.ar    1  UNL1        0.0340
     11 C          47.6708   11.8595  -25.9325 C.ar    1  UNL1        0.1391
     12 C          47.6909   11.8763  -24.5186 C.ar    1  UNL1        0.0656
     13 C          49.0434   11.7800  -23.8212 C.3     1  UNL1        0.1266
     14 C          46.3897   11.9211  -28.1102 C.ar    1  UNL1        0.0044
     15 C          46.6064   10.6640  -28.7380 C.ar    1  UNL1        0.0017
     16 C          46.5434   10.5387  -30.1385 C.ar    1  UNL1        0.0206
     17 C          46.2675   11.6836  -30.8792 C.ar    1  UNL1        0.0985
     18 N          46.1624   11.7946  -32.2157 N.ar    1  UNL1       -0.2241
     19 C          45.8905   13.1152  -32.3886 C.ar    1  UNL1        0.1750
     20 N          45.8257   13.8104  -31.2276 N.ar    1  UNL1       -0.3349
     21 C          46.0654   12.8910  -30.2856 C.ar    1  UNL1        0.0757
     22 C          46.1194   13.0602  -28.9051 C.ar    1  UNL1        0.0186
     23 H          45.6324   14.8288  -31.1008 H       1  UNL1        0.1675
     24 C          49.0051   13.1316  -19.5559 C.ar    1  UNL1        0.0503
     25 C          48.7443   13.1904  -18.1714 C.ar    1  UNL1        0.0328
     26 C          49.2386   12.2080  -17.3049 C.ar    1  UNL1        0.1069
     27 C          49.9946   11.1492  -17.8152 C.ar    1  UNL1        0.0186
     28 C          50.2545   11.0692  -19.1825 C.ar    1  UNL1        0.0071
     29 C          49.7526   12.0399  -20.0610 C.ar    1  UNL1        0.0667
     30 S          48.8861   12.2987  -15.5820 S.O2    1  UNL1        0.0105
     31 C          50.4105   12.2650  -14.6674 C.3     1  UNL1        0.1816
     32 O          48.1461   13.5702  -15.2739 O.2     1  UNL1       -0.1686
     33 O          48.0289   11.1319  -15.1787 O.2     1  UNL1       -0.1686
     34 N          48.5540   14.1800  -20.4436 N.pl3   1  UNL1       -0.3325
     35 H          47.5300   14.3529  -20.5538 H       1  UNL1        0.1468
     36 C          48.7842   15.4522  -22.5299 C.3     1  UNL1        0.0229
     37 C          49.4386   15.0565  -21.2111 C.3     1  UNL1        0.0871
     38 O          48.8713   11.6763  -26.6291 O.3     1  UNL1       -0.4716
     39 C          49.5597   10.4310  -26.6275 C.3     1  UNL1        0.2525
@<TRIPOS>BOND
     1    36    37    1
     2    37    34    1
     3    34    24    1
     4    24    25   ar
     5    25    26   ar
     6    26    30    1
     7    30    31    1
     8    30    32    2
     9    30    33    2
    10    26    27   ar
    11    27    28   ar
    12    28    29   ar
    13    29     1    1
    14     1     2    2
    15     1     3   am
    16     3     4    1
    17     4     5    1
    18     5     6    1
    19     6     7    1
    20     7     8   ar
    21     8     9   ar
    22     9    10   ar
    23    10    14    1
    24    14    15   ar
    25    15    16   ar
    26    16    17   ar
    27    17    18   ar
    28    18    19   ar
    29    19    20   ar
    30    20    21   ar
    31    21    22   ar
    32    10    11   ar
    33    11    38    1
    34    38    39    1
    35    11    12   ar
    36    12    13    1
    37    29    24   ar
    38    13     3    1
    39    12     7   ar
    40    22    14   ar
    41    21    17   ar
    42    34    35    1
    43    20    23    1
@<TRIPOS>MOLECULE
*****
 39 43 0 0 0
SMALL
GASTEIGER

@<TRIPOS>ATOM
      1 C          49.9988   12.0722  -21.3012 C.2     1  UNL1        0.2506
      2 O          51.1264   12.4244  -21.7422 O.2     1  UNL1       -0.2699
      3 N          49.0042   11.5475  -22.2035 N.am    1  UNL1       -0.2679
      4 C          48.1470   10.4351  -21.7824 C.3     1  UNL1        0.1412
      5 C          46.7547   10.9530  -21.4344 C.3     1  UNL1        0.2268
      6 O          46.4072   12.0853  -22.2282 O.3     1  UNL1       -0.4738
      7 C          46.4703   12.0752  -23.6234 C.ar    1  UNL1        0.1391
      8 C          45.2762   12.2277  -24.3297 C.ar    1  UNL1        0.0368
      9 C          45.2640   12.1869  -25.7206 C.ar    1  UNL1        0.0061
     10 C          46.4553   12.0166  -26.4380 C.ar    1  UNL1        0.0340
     11 C          47.6792   11.9266  -25.7357 C.ar    1  UNL1        0.1391
     12 C          47.6955   11.9249  -24.3215 C.ar    1  UNL1        0.0656
     13 C          49.0501   11.9291  -23.6217 C.3     1  UNL1        0.1266
     14 C          46.4011   11.9147  -27.9160 C.ar    1  UNL1        0.0044
     15 C          46.6421   10.6685  -28.5564 C.ar    1  UNL1        0.0017
     16 C          46.5910   10.5583  -29.9587 C.ar    1  UNL1        0.0206
     17 C          46.3025   11.7071  -30.6883 C.ar    1  UNL1        0.0985
     18 N          46.2051   11.8318  -32.0241 N.ar    1  UNL1       -0.2241
     19 C          45.9136   13.1499  -32.1840 C.ar    1  UNL1        0.1750
     20 N          45.8296   13.8307  -31.0157 N.ar    1  UNL1       -0.3349
     21 C          46.0771   12.9044  -30.0824 C.ar    1  UNL1        0.0757
     22 C          46.1186   13.0585  -28.6998 C.ar    1  UNL1        0.0186
     23 H          45.6195   14.8443  -30.8787 H       1  UNL1        0.1675
     24 C          50.7742   12.1685  -18.9006 C.ar    1  UNL1        0.0503
     25 C          50.4516   12.3535  -17.5404 C.ar    1  UNL1        0.0328
     26 C          49.1230   12.5268  -17.1342 C.ar    1  UNL1        0.1069
     27 C          48.1003   12.5247  -18.0866 C.ar    1  UNL1        0.0186
     28 C          48.4010   12.3529  -19.4370 C.ar    1  UNL1        0.0071
     29 C          49.7293   12.1924  -19.8562 C.ar    1  UNL1        0.0667
     30 S          48.7501   12.7696  -15.4304 S.O2    1  UNL1        0.0105
     31 C          50.2578   13.0613  -14.5343 C.3     1  UNL1        0.1816
     32 O          47.8345   13.9504  -15.2667 O.2     1  UNL1       -0.1686
     33 O          48.0653   11.5486  -14.8833 O.2     1  UNL1       -0.1686
     34 N          52.1371   11.9216  -19.3155 N.pl3   1  UNL1       -0.3325
     35 H          52.4073   10.9690  -19.6473 H       1  UNL1        0.1468
     36 C          52.6376   14.2888  -19.7277 C.3     1  UNL1        0.0229
     37 C          53.1977   12.9290  -19.3259 C.3     1  UNL1        0.0871
     38 O          48.8919   11.8516  -26.4313 O.3     1  UNL1       -0.4716
     39 C          49.6408   10.6442  -26.5099 C.3     1  UNL1        0.2525
@<TRIPOS>BOND
     1    36    37    1
     2    37    34    1
     3    34    24    1
     4    24    25   ar
     5    25    26   ar
     6    26    30    1
     7    30    31    1
     8    30    32    2
     9    30    33    2
    10    26    27   ar
    11    27    28   ar
    12    28    29   ar
    13    29     1    1
    14     1     2    2
    15     1     3   am
    16     3     4    1
    17     4     5    1
    18     5     6    1
    19     6     7    1
    20     7     8   ar
    21     8     9   ar
    22     9    10   ar
    23    10    14    1
    24    14    15   ar
    25    15    16   ar
    26    16    17   ar
    27    17    18   ar
    28    18    19   ar
    29    19    20   ar
    30    20    21   ar
    31    21    22   ar
    32    10    11   ar
    33    11    38    1
    34    38    39    1
    35    11    12   ar
    36    12    13    1
    37    29    24   ar
    38    13     3    1
    39    12     7   ar
    40    22    14   ar
    41    21    17   ar
    42    34    35    1
    43    20    23    1
@<TRIPOS>MOLECULE
*****
 39 43 0 0 0
SMALL
GASTEIGER

@<TRIPOS>ATOM
      1 C          46.7429   12.1582  -20.2401 C.2     1  UNL1        0.2506
      2 O          45.5523   11.7576  -20.1306 O.2     1  UNL1       -0.2699
      3 N          47.2398   12.5989  -21.5197 N.am    1  UNL1       -0.2679
      4 C          48.1416   13.7523  -21.5978 C.3     1  UNL1        0.1412
      5 C          49.5736   13.2794  -21.8289 C.3     1  UNL1        0.2268
      6 O          49.6074   12.0775  -22.5952 O.3     1  UNL1       -0.4738
      7 C          48.9629   11.9516  -23.8278 C.ar    1  UNL1        0.1391
      8 C          49.7547   11.7387  -24.9573 C.ar    1  UNL1        0.0368
      9 C          49.1788   11.6442  -26.2205 C.ar    1  UNL1        0.0061
     10 C          47.7897   11.7364  -26.3779 C.ar    1  UNL1        0.0340
     11 C          46.9721   11.8866  -25.2341 C.ar    1  UNL1        0.1391
     12 C          47.5521   12.0256  -23.9519 C.ar    1  UNL1        0.0656
     13 C          46.6195   12.0810  -22.7469 C.3     1  UNL1        0.1266
     14 C          47.2122   11.6946  -27.7427 C.ar    1  UNL1        0.0044
     15 C          47.1310   10.4626  -28.4476 C.ar    1  UNL1        0.0017
     16 C          46.5825   10.4094  -29.7427 C.ar    1  UNL1        0.0206
     17 C          46.1307   11.5995  -30.3039 C.ar    1  UNL1        0.0985
     18 N          45.5777   11.7806  -31.5167 N.ar    1  UNL1       -0.2241
     19 C          45.3347   13.1178  -31.5411 C.ar    1  UNL1        0.1750
     20 N          45.7116   13.7567  -30.4075 N.ar    1  UNL1       -0.3349
     21 C          46.2112   12.7831  -29.6377 C.ar    1  UNL1        0.0757
     22 C          46.7466   12.8814  -28.3567 C.ar    1  UNL1        0.0186
     23 H          45.6293   14.7743  -30.1882 H       1  UNL1        0.1675
     24 C          48.5088   11.1317  -18.7564 C.ar    1  UNL1        0.0503
     25 C          49.3449   11.2481  -17.6269 C.ar    1  UNL1        0.0328
     26 C          49.2611   12.3618  -16.7826 C.ar    1  UNL1        0.1069
     27 C          48.3434   13.3778  -17.0631 C.ar    1  UNL1        0.0186
     28 C          47.5153   13.2848  -18.1807 C.ar    1  UNL1        0.0071
     29 C          47.6006   12.1806  -19.0405 C.ar    1  UNL1        0.0667
     30 S          50.3270   12.4877  -15.3866 S.O2    1  UNL1        0.0105
     31 C          50.0621   11.0925  -14.3168 C.3     1  UNL1        0.1816
     32 O          51.7617   12.5093  -15.8343 O.2     1  UNL1       -0.1686
     33 O          50.0354   13.7592  -14.6402 O.2     1  UNL1       -0.1686
     34 N          48.5455    9.9520  -19.5915 N.pl3   1  UNL1       -0.3325
     35 H          47.7191    9.3139  -19.6138 H       1  UNL1        0.1468
     36 C          49.1681    9.0089  -21.7702 C.3     1  UNL1        0.0229
     37 C          49.6706    9.5743  -20.4467 C.3     1  UNL1        0.0871
     38 O          45.5772   11.8861  -25.3547 O.3     1  UNL1       -0.4716
     39 C          44.8020   13.0575  -25.1279 C.3     1  UNL1        0.2525
@<TRIPOS>BOND
     1    36    37    1
     2    37    34    1
     3    34    24    1
     4    24    25   ar
     5    25    26   ar
     6    26    30    1
     7    30    31    1
     8    30    32    2
     9    30    33    2
    10    26    27   ar
    11    27    28   ar
    12    28    29   ar
    13    29     1    1
    14     1     2    2
    15     1     3   am
    16     3     4    1
    17     4     5    1
    18     5     6    1
    19     6     7    1
    20     7     8   ar
    21     8     9   ar
    22     9    10   ar
    23    10    14    1
    24    14    15   ar
    25    15    16   ar
    26    16    17   ar
    27    17    18   ar
    28    18    19   ar
    29    19    20   ar
    30    20    21   ar
    31    21    22   ar
    32    10    11   ar
    33    11    38    1
    34    38    39    1
    35    11    12   ar
    36    12    13    1
    37    29    24   ar
    38    13     3    1
    39    12     7   ar
    40    22    14   ar
    41    21    17   ar
    42    34    35    1
    43    20    23    1
@<TRIPOS>MOLECULE
*****
 39 43 0 0 0
SMALL
GASTEIGER

@<TRIPOS>ATOM
      1 C          49.7091   13.2252  -20.9277 C.2     1  UNL1        0.2506
      2 O          50.5840   14.0709  -21.2581 O.2     1  UNL1       -0.2699
      3 N          48.9447   12.5451  -21.9435 N.am    1  UNL1       -0.2679
      4 C          48.6118   11.1263  -21.7829 C.3     1  UNL1        0.1412
      5 C          47.1506   10.9773  -21.3701 C.3     1  UNL1        0.2268
      6 O          46.3456   12.0172  -21.9212 O.3     1  UNL1       -0.4738
      7 C          46.3260   12.3115  -23.2864 C.ar    1  UNL1        0.1391
      8 C          45.1271   12.1225  -23.9755 C.ar    1  UNL1        0.0368
      9 C          45.0503   12.3589  -25.3446 C.ar    1  UNL1        0.0061
     10 C          46.1704   12.8153  -26.0518 C.ar    1  UNL1        0.0340
     11 C          47.3723   13.0730  -25.3530 C.ar    1  UNL1        0.1391
     12 C          47.4706   12.7953  -23.9698 C.ar    1  UNL1        0.0656
     13 C          48.7561   13.1891  -23.2506 C.3     1  UNL1        0.1266
     14 C          46.0737   12.9979  -27.5198 C.ar    1  UNL1        0.0044
     15 C          45.8222   14.2864  -28.0655 C.ar    1  UNL1        0.0017
     16 C          45.7308   14.4731  -29.4576 C.ar    1  UNL1        0.0206
     17 C          45.8901   13.3568  -30.2723 C.ar    1  UNL1        0.0985
     18 N          45.8411   13.3035  -31.6155 N.ar    1  UNL1       -0.2241
     19 C          46.0555   11.9863  -31.8736 C.ar    1  UNL1        0.1750
     20 N          46.2314   11.2383  -30.7578 N.ar    1  UNL1       -0.3349
     21 C          46.1244   12.1196  -29.7568 C.ar    1  UNL1        0.0757
     22 C          46.2215   11.8898  -28.3875 C.ar    1  UNL1        0.0186
     23 H          46.4097   10.2112  -30.6967 H       1  UNL1        0.1675
     24 C          50.5347   12.4192  -18.6822 C.ar    1  UNL1        0.0503
     25 C          50.2845   12.2300  -17.3075 C.ar    1  UNL1        0.0328
     26 C          49.0292   12.5195  -16.7591 C.ar    1  UNL1        0.1069
     27 C          48.0098   13.0100  -17.5797 C.ar    1  UNL1        0.0186
     28 C          48.2415   13.2127  -18.9394 C.ar    1  UNL1        0.0071
     29 C          49.4990   12.9392  -19.4962 C.ar    1  UNL1        0.0667
     30 S          48.7485   12.2868  -15.0364 S.O2    1  UNL1        0.0105
     31 C          50.3073   12.0579  -14.2123 C.3     1  UNL1        0.1816
     32 O          48.0504   13.4874  -14.4614 O.2     1  UNL1       -0.1686
     33 O          47.8822   11.0772  -14.8237 O.2     1  UNL1       -0.1686
     34 N          51.8080   12.0574  -19.2639 N.pl3   1  UNL1       -0.3325
     35 H          51.8716   11.2106  -19.8717 H       1  UNL1        0.1468
     36 C          53.6128   13.2449  -20.4284 C.3     1  UNL1        0.0229
     37 C          53.0489   12.8099  -19.0805 C.3     1  UNL1        0.0871
     38 O          48.4764   13.6189  -26.0186 O.3     1  UNL1       -0.4716
     39 C          48.6944   15.0233  -26.0876 C.3     1  UNL1        0.2525
@<TRIPOS>BOND
     1    36    37    1
     2    37    34    1
     3    34    24    1
     4    24    25   ar
     5    25    26   ar
     6    26    30    1
     7    30    31    1
     8    30    32    2
     9    30    33    2
    10    26    27   ar
    11    27    28   ar
    12    28    29   ar
    13    29     1    1
    14     1     2    2
    15     1     3   am
    16     3     4    1
    17     4     5    1
    18     5     6    1
    19     6     7    1
    20     7     8   ar
    21     8     9   ar
    22     9    10   ar
    23    10    14    1
    24    14    15   ar
    25    15    16   ar
    26    16    17   ar
    27    17    18   ar
    28    18    19   ar
    29    19    20   ar
    30    20    21   ar
    31    21    22   ar
    32    10    11   ar
    33    11    38    1
    34    38    39    1
    35    11    12   ar
    36    12    13    1
    37    29    24   ar
    38    13     3    1
    39    12     7   ar
    40    22    14   ar
    41    21    17   ar
    42    34    35    1
    43    20    23    1
