@<TRIPOS>MOLECULE
*****
 35 39 0 0 0
SMALL
GASTEIGER

@<TRIPOS>ATOM
      1 C          49.2763   11.5477  -24.7233 C.2     1  UNL1        0.2490
      2 O          49.6410   10.9374  -25.7654 O.2     1  UNL1       -0.2699
      3 N          48.9945   10.7934  -23.5292 N.am    1  UNL1       -0.2760
      4 C          47.7883   11.0571  -22.7380 C.3     1  UNL1        0.0954
      5 C          48.1163   11.1254  -21.2339 C.3     1  UNL1        0.0399
      6 C          49.4256   10.3736  -20.8301 C.3     1  UNL1        0.0645
      7 C          49.6440    9.1594  -21.7702 C.3     1  UNL1        0.0399
      8 C          49.7602    9.5726  -23.2509 C.3     1  UNL1        0.0954
      9 C          49.2938    9.8515  -19.3572 C.3     1  UNL1        0.0477
     10 C          49.4122   10.9903  -18.3887 C.ar    1  UNL1        0.0220
     11 C          49.0154   11.1088  -17.0772 C.ar    1  UNL1        0.0923
     12 N          49.5188   12.2734  -16.5948 N.ar    1  UNL1       -0.2534
     13 N          50.2463   12.8701  -17.5354 N.ar    1  UNL1       -0.1651
     14 C          50.1799   12.0887  -18.6263 C.ar    1  UNL1        0.1515
     15 C          50.8513   12.2693  -19.9039 C.2     1  UNL1        0.2650
     16 O          51.6677   13.2095  -20.0910 O.2     1  UNL1       -0.2684
     17 N          50.5766   11.3097  -20.9369 N.am    1  UNL1       -0.3023
     18 H          51.1625   11.3452  -21.8004 H       1  UNL1        0.1497
     19 C          47.0927   15.7202  -26.2962 C.ar    1  UNL1        0.2252
     20 N          47.0385   17.0819  -26.2986 N.ar    1  UNL1       -0.2058
     21 C          47.9062   17.8431  -25.5823 C.ar    1  UNL1        0.1137
     22 I          47.7442   19.9415  -25.6478 I       1  UNL1       -0.0211
     23 C          48.9002   17.2375  -24.8123 C.ar    1  UNL1        0.0252
     24 C          48.9910   15.8404  -24.7827 C.ar    1  UNL1        0.0064
     25 C          49.9821   15.2051  -24.0220 C.ar    1  UNL1        0.0004
     26 C          50.0718   13.8110  -24.0056 C.ar    1  UNL1        0.0045
     27 C          49.1731   13.0276  -24.7488 C.ar    1  UNL1        0.0537
     28 C          48.1615   13.6634  -25.4894 C.ar    1  UNL1        0.0092
     29 C          48.0734   15.0649  -25.5274 C.ar    1  UNL1        0.0534
     30 C          45.5459   15.4981  -28.2215 C.3     1  UNL1        0.2542
     31 O          46.1844   14.9781  -27.0616 O.3     1  UNL1       -0.4561
     32 C          49.3595   12.7820  -15.2179 C.3     1  UNL1        0.0867
     33 C          50.7409   13.1519  -14.6481 C.3     1  UNL1        0.0244
     34 C          48.4595   14.0367  -15.2039 C.3     1  UNL1        0.0244
     35 C          48.7062   11.6987  -14.3375 C.3     1  UNL1        0.0244
@<TRIPOS>BOND
     1    30    31    1
     2    31    19    1
     3    19    20   ar
     4    20    21   ar
     5    21    22    1
     6    21    23   ar
     7    23    24   ar
     8    24    25   ar
     9    25    26   ar
    10    26    27   ar
    11    27     1    1
    12     1     2    2
    13     1     3   am
    14     3     4    1
    15     4     5    1
    16     5     6    1
    17     6     7    1
    18     7     8    1
    19     6     9    1
    20     9    10    1
    21    10    11   ar
    22    11    12   ar
    23    12    32    1
    24    32    33    1
    25    32    34    1
    26    32    35    1
    27    12    13   ar
    28    13    14   ar
    29    14    15    1
    30    15    16    2
    31    15    17   am
    32    27    28   ar
    33    28    29   ar
    34    29    19   ar
    35    29    24   ar
    36     8     3    1
    37    14    10   ar
    38    17     6    1
    39    17    18    1
@<TRIPOS>MOLECULE
*****
 35 39 0 0 0
SMALL
GASTEIGER

@<TRIPOS>ATOM
      1 C          51.0517   13.6980  -21.4361 C.2     1  UNL1        0.2490
      2 O          51.7388   14.1722  -20.4903 O.2     1  UNL1       -0.2699
      3 N          51.6686   13.4993  -22.7223 N.am    1  UNL1       -0.2760
      4 C          50.9968   13.9245  -23.9545 C.3     1  UNL1        0.0954
      5 C          51.0718   12.8270  -25.0334 C.3     1  UNL1        0.0399
      6 C          52.2517   11.8204  -24.8409 C.3     1  UNL1        0.0645
      7 C          53.4501   12.5399  -24.1687 C.3     1  UNL1        0.0399
      8 C          53.0874   13.1298  -22.7912 C.3     1  UNL1        0.0954
      9 C          52.7102   11.2807  -26.2401 C.3     1  UNL1        0.0477
     10 C          51.7044   10.3069  -26.7775 C.ar    1  UNL1        0.0220
     11 C          51.4677    9.8630  -28.0575 C.ar    1  UNL1        0.0923
     12 N          50.5707    8.8468  -27.9854 N.ar    1  UNL1       -0.2534
     13 N          50.2653    8.6091  -26.7125 N.ar    1  UNL1       -0.1651
     14 C          50.9552    9.4985  -25.9789 C.ar    1  UNL1        0.1515
     15 C          51.0129    9.6174  -24.5305 C.2     1  UNL1        0.2650
     16 O          50.4295    8.7926  -23.7788 O.2     1  UNL1       -0.2684
     17 N          51.7943   10.6926  -23.9857 N.am    1  UNL1       -0.3023
     18 H          51.9618   10.6969  -22.9551 H       1  UNL1        0.1497
     19 C          47.2882   12.7460  -18.3407 C.ar    1  UNL1        0.2252
     20 N          45.9824   12.4008  -18.1597 N.ar    1  UNL1       -0.2058
     21 C          45.1408   12.1761  -19.2021 C.ar    1  UNL1        0.1137
     22 I          43.1379   11.6475  -18.8236 I       1  UNL1       -0.0211
     23 C          45.6027   12.2906  -20.5139 C.ar    1  UNL1        0.0252
     24 C          46.9383   12.6428  -20.7440 C.ar    1  UNL1        0.0064
     25 C          47.4309   12.7606  -22.0509 C.ar    1  UNL1        0.0004
     26 C          48.7673   13.1031  -22.2716 C.ar    1  UNL1        0.0045
     27 C          49.6346   13.3336  -21.1906 C.ar    1  UNL1        0.0537
     28 C          49.1338   13.2431  -19.8802 C.ar    1  UNL1        0.0092
     29 C          47.7966   12.8818  -19.6466 C.ar    1  UNL1        0.0534
     30 C          48.8370   11.9037  -16.5971 C.3     1  UNL1        0.2542
     31 O          48.1211   12.9548  -17.2344 O.3     1  UNL1       -0.4561
     32 C          50.0572    8.0615  -29.1253 C.3     1  UNL1        0.0867
     33 C          49.6119    6.6739  -28.6291 C.3     1  UNL1        0.0244
     34 C          48.8498    8.7728  -29.7739 C.3     1  UNL1        0.0244
     35 C          51.1636    7.9045  -30.1868 C.3     1  UNL1        0.0244
@<TRIPOS>BOND
     1    30    31    1
     2    31    19    1
     3    19    20   ar
     4    20    21   ar
     5    21    22    1
     6    21    23   ar
     7    23    24   ar
     8    24    25   ar
     9    25    26   ar
    10    26    27   ar
    11    27     1    1
    12     1     2    2
    13     1     3   am
    14     3     4    1
    15     4     5    1
    16     5     6    1
    17     6     7    1
    18     7     8    1
    19     6     9    1
    20     9    10    1
    21    10    11   ar
    22    11    12   ar
    23    12    32    1
    24    32    33    1
    25    32    34    1
    26    32    35    1
    27    12    13   ar
    28    13    14   ar
    29    14    15    1
    30    15    16    2
    31    15    17   am
    32    27    28   ar
    33    28    29   ar
    34    29    19   ar
    35    29    24   ar
    36     8     3    1
    37    14    10   ar
    38    17     6    1
    39    17    18    1
@<TRIPOS>MOLECULE
*****
 35 39 0 0 0
SMALL
GASTEIGER

@<TRIPOS>ATOM
      1 C          46.0259   15.4295  -27.2163 C.2     1  UNL1        0.2490
      2 O          45.1418   16.1176  -27.7963 O.2     1  UNL1       -0.2699
      3 N          46.7169   15.9853  -26.0815 N.am    1  UNL1       -0.2760
      4 C          48.1754   15.8864  -25.9643 C.3     1  UNL1        0.0954
      5 C          48.5888   15.4487  -24.5459 C.3     1  UNL1        0.0399
      6 C          47.5214   15.7539  -23.4459 C.3     1  UNL1        0.0645
      7 C          46.7283   17.0317  -23.8251 C.3     1  UNL1        0.0399
      8 C          46.0032   16.8964  -25.1789 C.3     1  UNL1        0.0954
      9 C          48.2414   15.9978  -22.0742 C.3     1  UNL1        0.0477
     10 C          48.7417   14.7012  -21.5110 C.ar    1  UNL1        0.0220
     11 C          49.7091   14.4356  -20.5703 C.ar    1  UNL1        0.0923
     12 N          49.6519   13.1112  -20.2783 N.ar    1  UNL1       -0.2534
     13 N          48.6645   12.5437  -20.9661 N.ar    1  UNL1       -0.1651
     14 C          48.1122   13.5119  -21.7161 C.ar    1  UNL1        0.1515
     15 C          46.9612   13.4182  -22.6003 C.2     1  UNL1        0.2650
     16 O          46.2901   12.3570  -22.6966 O.2     1  UNL1       -0.2684
     17 N          46.5933   14.5968  -23.3344 N.am    1  UNL1       -0.3023
     18 H          45.6873   14.5821  -23.8533 H       1  UNL1        0.1497
     19 C          46.4314   12.1269  -30.9014 C.ar    1  UNL1        0.2252
     20 N          46.6926   10.8516  -31.3046 N.ar    1  UNL1       -0.2058
     21 C          47.0324    9.8699  -30.4294 C.ar    1  UNL1        0.1137
     22 I          47.4187    7.9282  -31.1465 I       1  UNL1       -0.0211
     23 C          47.1201   10.1465  -29.0644 C.ar    1  UNL1        0.0252
     24 C          46.8588   11.4443  -28.6079 C.ar    1  UNL1        0.0064
     25 C          46.9347   11.7499  -27.2421 C.ar    1  UNL1        0.0004
     26 C          46.6631   13.0450  -26.7940 C.ar    1  UNL1        0.0045
     27 C          46.3110   14.0571  -27.7026 C.ar    1  UNL1        0.0537
     28 C          46.2623   13.7579  -29.0753 C.ar    1  UNL1        0.0092
     29 C          46.5157   12.4548  -29.5348 C.ar    1  UNL1        0.0534
     30 C          45.0241   12.9171  -32.7840 C.3     1  UNL1        0.2542
     31 O          46.0719   13.1024  -31.8398 O.3     1  UNL1       -0.4561
     32 C          50.4955   12.4033  -19.2950 C.3     1  UNL1        0.0867
     33 C          51.9490   12.8940  -19.4233 C.3     1  UNL1        0.0244
     34 C          49.9996   12.6765  -17.8584 C.3     1  UNL1        0.0244
     35 C          50.4334   10.8856  -19.5561 C.3     1  UNL1        0.0244
@<TRIPOS>BOND
     1    30    31    1
     2    31    19    1
     3    19    20   ar
     4    20    21   ar
     5    21    22    1
     6    21    23   ar
     7    23    24   ar
     8    24    25   ar
     9    25    26   ar
    10    26    27   ar
    11    27     1    1
    12     1     2    2
    13     1     3   am
    14     3     4    1
    15     4     5    1
    16     5     6    1
    17     6     7    1
    18     7     8    1
    19     6     9    1
    20     9    10    1
    21    10    11   ar
    22    11    12   ar
    23    12    32    1
    24    32    33    1
    25    32    34    1
    26    32    35    1
    27    12    13   ar
    28    13    14   ar
    29    14    15    1
    30    15    16    2
    31    15    17   am
    32    27    28   ar
    33    28    29   ar
    34    29    19   ar
    35    29    24   ar
    36     8     3    1
    37    14    10   ar
    38    17     6    1
    39    17    18    1
@<TRIPOS>MOLECULE
*****
 35 39 0 0 0
SMALL
GASTEIGER

@<TRIPOS>ATOM
      1 C          49.7424   10.1916  -21.2565 C.2     1  UNL1        0.2490
      2 O          50.1687    9.5432  -20.2618 O.2     1  UNL1       -0.2699
      3 N          49.1710   11.4977  -21.0517 N.am    1  UNL1       -0.2760
      4 C          47.9100   11.8784  -21.6962 C.3     1  UNL1        0.0954
      5 C          48.0087   13.2841  -22.3194 C.3     1  UNL1        0.0399
      6 C          49.1136   14.1890  -21.6847 C.3     1  UNL1        0.0645
      7 C          49.2915   13.8267  -20.1871 C.3     1  UNL1        0.0399
      8 C          49.6946   12.3531  -19.9801 C.3     1  UNL1        0.0954
      9 C          48.6803   15.6925  -21.7900 C.3     1  UNL1        0.0477
     10 C          48.8158   16.1756  -23.2032 C.ar    1  UNL1        0.0220
     11 C          48.2437   17.2436  -23.8540 C.ar    1  UNL1        0.0923
     12 N          48.8340   17.3526  -25.0714 N.ar    1  UNL1       -0.2534
     13 N          49.7783   16.4236  -25.1955 N.ar    1  UNL1       -0.1651
     14 C          49.7656   15.7080  -24.0586 C.ar    1  UNL1        0.1515
     15 C          50.6451   14.6153  -23.6739 C.2     1  UNL1        0.2650
     16 O          51.6112   14.2615  -24.4000 O.2     1  UNL1       -0.2684
     17 N          50.3935   13.9764  -22.4122 N.am    1  UNL1       -0.3023
     18 H          51.1043   13.2961  -22.0625 H       1  UNL1        0.1497
     19 C          49.8569   10.6584  -26.1983 C.ar    1  UNL1        0.2252
     20 N          49.9656   10.0754  -27.4252 N.ar    1  UNL1       -0.2058
     21 C          50.1411    8.7371  -27.5788 C.ar    1  UNL1        0.1137
     22 I          50.2994    7.9267  -29.5159 I       1  UNL1       -0.0211
     23 C          50.2115    7.9058  -26.4601 C.ar    1  UNL1        0.0252
     24 C          50.1037    8.4646  -25.1807 C.ar    1  UNL1        0.0064
     25 C          50.1661    7.6534  -24.0394 C.ar    1  UNL1        0.0004
     26 C          50.0480    8.2178  -22.7669 C.ar    1  UNL1        0.0045
     27 C          49.8654    9.6023  -22.6126 C.ar    1  UNL1        0.0537
     28 C          49.8310   10.4196  -23.7558 C.ar    1  UNL1        0.0092
     29 C          49.9306    9.8605  -25.0406 C.ar    1  UNL1        0.0534
     30 C          48.3738   12.6407  -26.0592 C.3     1  UNL1        0.2542
     31 O          49.6634   12.0412  -26.0905 O.3     1  UNL1       -0.4561
     32 C          48.5418   18.3834  -26.0871 C.3     1  UNL1        0.0867
     33 C          47.8802   19.5959  -25.4073 C.3     1  UNL1        0.0244
     34 C          49.8418   18.8456  -26.7805 C.3     1  UNL1        0.0244
     35 C          47.5940   17.8043  -27.1556 C.3     1  UNL1        0.0244
@<TRIPOS>BOND
     1    30    31    1
     2    31    19    1
     3    19    20   ar
     4    20    21   ar
     5    21    22    1
     6    21    23   ar
     7    23    24   ar
     8    24    25   ar
     9    25    26   ar
    10    26    27   ar
    11    27     1    1
    12     1     2    2
    13     1     3   am
    14     3     4    1
    15     4     5    1
    16     5     6    1
    17     6     7    1
    18     7     8    1
    19     6     9    1
    20     9    10    1
    21    10    11   ar
    22    11    12   ar
    23    12    32    1
    24    32    33    1
    25    32    34    1
    26    32    35    1
    27    12    13   ar
    28    13    14   ar
    29    14    15    1
    30    15    16    2
    31    15    17   am
    32    27    28   ar
    33    28    29   ar
    34    29    19   ar
    35    29    24   ar
    36     8     3    1
    37    14    10   ar
    38    17     6    1
    39    17    18    1
@<TRIPOS>MOLECULE
*****
 35 39 0 0 0
SMALL
GASTEIGER

@<TRIPOS>ATOM
      1 C          49.7424   10.1014  -19.8149 C.2     1  UNL1        0.2490
      2 O          49.9597    8.9656  -19.3106 O.2     1  UNL1       -0.2699
      3 N          49.9762   10.3023  -21.2217 N.am    1  UNL1       -0.2760
      4 C          50.7016   11.4817  -21.7046 C.3     1  UNL1        0.0954
      5 C          49.9812   12.1212  -22.9072 C.3     1  UNL1        0.0399
      6 C          49.0446   11.1422  -23.6862 C.3     1  UNL1        0.0645
      7 C          49.6112    9.7005  -23.6073 C.3     1  UNL1        0.0399
      8 C          49.7400    9.1955  -22.1563 C.3     1  UNL1        0.0954
      9 C          48.9764   11.5737  -25.1924 C.3     1  UNL1        0.0477
     10 C          48.1406   12.8096  -25.3426 C.ar    1  UNL1        0.0220
     11 C          48.0815   13.7465  -26.3477 C.ar    1  UNL1        0.0923
     12 N          47.0318   14.5672  -26.0891 N.ar    1  UNL1       -0.2534
     13 N          46.4072   14.1611  -24.9869 N.ar    1  UNL1       -0.1651
     14 C          47.0832   13.0922  -24.5335 C.ar    1  UNL1        0.1515
     15 C          46.7706   12.2493  -23.3901 C.2     1  UNL1        0.2650
     16 O          45.7227   12.4206  -22.7133 O.2     1  UNL1       -0.2684
     17 N          47.6858   11.1856  -23.0827 N.am    1  UNL1       -0.3023
     18 H          47.3953   10.4891  -22.3610 H       1  UNL1        0.1497
     19 C          46.0783   13.1135  -18.3474 C.ar    1  UNL1        0.2252
     20 N          45.6480   14.1235  -17.5400 N.ar    1  UNL1       -0.2058
     21 C          46.4586   14.7147  -16.6242 C.ar    1  UNL1        0.1137
     22 I          45.7040   16.2684  -15.4199 I       1  UNL1       -0.0211
     23 C          47.7831   14.2973  -16.4865 C.ar    1  UNL1        0.0252
     24 C          48.2655   13.2626  -17.2973 C.ar    1  UNL1        0.0064
     25 C          49.5926   12.8260  -17.1842 C.ar    1  UNL1        0.0004
     26 C          50.0686   11.7996  -18.0037 C.ar    1  UNL1        0.0045
     27 C          49.2271   11.1916  -18.9504 C.ar    1  UNL1        0.0537
     28 C          47.8884   11.6099  -19.0447 C.ar    1  UNL1        0.0092
     29 C          47.4044   12.6533  -18.2382 C.ar    1  UNL1        0.0534
     30 C          43.9427   11.9989  -18.9355 C.3     1  UNL1        0.2542
     31 O          45.2091   12.5437  -19.2862 O.3     1  UNL1       -0.4561
     32 C          46.5874   15.6968  -26.9296 C.3     1  UNL1        0.0867
     33 C          45.7575   16.6722  -26.0754 C.3     1  UNL1        0.0244
     34 C          47.8027   16.4505  -27.5121 C.3     1  UNL1        0.0244
     35 C          45.7309   15.1687  -28.0970 C.3     1  UNL1        0.0244
@<TRIPOS>BOND
     1    30    31    1
     2    31    19    1
     3    19    20   ar
     4    20    21   ar
     5    21    22    1
     6    21    23   ar
     7    23    24   ar
     8    24    25   ar
     9    25    26   ar
    10    26    27   ar
    11    27     1    1
    12     1     2    2
    13     1     3   am
    14     3     4    1
    15     4     5    1
    16     5     6    1
    17     6     7    1
    18     7     8    1
    19     6     9    1
    20     9    10    1
    21    10    11   ar
    22    11    12   ar
    23    12    32    1
    24    32    33    1
    25    32    34    1
    26    32    35    1
    27    12    13   ar
    28    13    14   ar
    29    14    15    1
    30    15    16    2
    31    15    17   am
    32    27    28   ar
    33    28    29   ar
    34    29    19   ar
    35    29    24   ar
    36     8     3    1
    37    14    10   ar
    38    17     6    1
    39    17    18    1
@<TRIPOS>MOLECULE
*****
 35 39 0 0 0
SMALL
GASTEIGER

@<TRIPOS>ATOM
      1 C          45.4749   16.2850  -27.9862 C.2     1  UNL1        0.2490
      2 O          44.5621   16.9976  -28.4866 O.2     1  UNL1       -0.2699
      3 N          46.1879   16.7653  -26.8307 N.am    1  UNL1       -0.2760
      4 C          47.6507   16.6876  -26.7613 C.3     1  UNL1        0.0954
      5 C          48.1125   16.1499  -25.3930 C.3     1  UNL1        0.0399
      6 C          47.0717   16.3471  -24.2440 C.3     1  UNL1        0.0645
      7 C          46.2448   17.6339  -24.5008 C.3     1  UNL1        0.0399
      8 C          45.4838   17.5890  -25.8408 C.3     1  UNL1        0.0954
      9 C          47.8262   16.4988  -22.8775 C.3     1  UNL1        0.0477
     10 C          48.3661   15.1730  -22.4309 C.ar    1  UNL1        0.0220
     11 C          49.3648   14.8553  -21.5404 C.ar    1  UNL1        0.0923
     12 N          49.3402   13.5114  -21.3510 N.ar    1  UNL1       -0.2534
     13 N          48.3441   12.9787  -22.0539 N.ar    1  UNL1       -0.1651
     14 C          47.7528   13.9905  -22.7109 C.ar    1  UNL1        0.1515
     15 C          46.5789   13.9420  -23.5681 C.2     1  UNL1        0.2650
     16 O          45.9249   12.8779  -23.7286 O.2     1  UNL1       -0.2684
     17 N          46.1686   15.1661  -24.1979 N.am    1  UNL1       -0.3023
     18 H          45.2485   15.1731  -24.6916 H       1  UNL1        0.1497
     19 C          47.2018   11.6441  -27.6225 C.ar    1  UNL1        0.2252
     20 N          47.4657   10.4454  -28.2145 N.ar    1  UNL1       -0.2058
     21 C          47.1848   10.2051  -29.5217 C.ar    1  UNL1        0.1137
     22 I          47.6280    8.3202  -30.3490 I       1  UNL1       -0.0211
     23 C          46.6107   11.2028  -30.3107 C.ar    1  UNL1        0.0252
     24 C          46.3241   12.4496  -29.7414 C.ar    1  UNL1        0.0064
     25 C          45.7519   13.4717  -30.5111 C.ar    1  UNL1        0.0004
     26 C          45.4780   14.7159  -29.9377 C.ar    1  UNL1        0.0045
     27 C          45.7711   14.9605  -28.5856 C.ar    1  UNL1        0.0537
     28 C          46.3189   13.9267  -27.8062 C.ar    1  UNL1        0.0092
     29 C          46.6151   12.6778  -28.3771 C.ar    1  UNL1        0.0534
     30 C          48.8464   11.7366  -25.7689 C.3     1  UNL1        0.2542
     31 O          47.5215   11.8491  -26.2744 O.3     1  UNL1       -0.4561
     32 C          50.2245   12.7469  -20.4492 C.3     1  UNL1        0.0867
     33 C          51.6682   13.2612  -20.5942 C.3     1  UNL1        0.0244
     34 C          49.7779   12.9153  -18.9806 C.3     1  UNL1        0.0244
     35 C          50.1661   11.2502  -20.8121 C.3     1  UNL1        0.0244
@<TRIPOS>BOND
     1    30    31    1
     2    31    19    1
     3    19    20   ar
     4    20    21   ar
     5    21    22    1
     6    21    23   ar
     7    23    24   ar
     8    24    25   ar
     9    25    26   ar
    10    26    27   ar
    11    27     1    1
    12     1     2    2
    13     1     3   am
    14     3     4    1
    15     4     5    1
    16     5     6    1
    17     6     7    1
    18     7     8    1
    19     6     9    1
    20     9    10    1
    21    10    11   ar
    22    11    12   ar
    23    12    32    1
    24    32    33    1
    25    32    34    1
    26    32    35    1
    27    12    13   ar
    28    13    14   ar
    29    14    15    1
    30    15    16    2
    31    15    17   am
    32    27    28   ar
    33    28    29   ar
    34    29    19   ar
    35    29    24   ar
    36     8     3    1
    37    14    10   ar
    38    17     6    1
    39    17    18    1
@<TRIPOS>MOLECULE
*****
 35 39 0 0 0
SMALL
GASTEIGER

@<TRIPOS>ATOM
      1 C          49.8019   10.1158  -19.8504 C.2     1  UNL1        0.2490
      2 O          50.0115    8.9387  -19.4477 O.2     1  UNL1       -0.2699
      3 N          50.0362   10.4374  -21.2345 N.am    1  UNL1       -0.2760
      4 C          50.7697   11.6494  -21.6133 C.3     1  UNL1        0.0954
      5 C          50.0531   12.3968  -22.7544 C.3     1  UNL1        0.0399
      6 C          49.1091   11.4963  -23.6149 C.3     1  UNL1        0.0645
      7 C          49.6654   10.0493  -23.6631 C.3     1  UNL1        0.0399
      8 C          49.7916    9.4184  -22.2621 C.3     1  UNL1        0.0954
      9 C          49.0430   12.0584  -25.0775 C.3     1  UNL1        0.0477
     10 C          48.2158   13.3086  -25.1179 C.ar    1  UNL1        0.0220
     11 C          48.1628   14.3302  -26.0371 C.ar    1  UNL1        0.0923
     12 N          47.1191   15.1326  -25.7064 N.ar    1  UNL1       -0.2534
     13 N          46.4923   14.6359  -24.6431 N.ar    1  UNL1       -0.1651
     14 C          47.1610   13.5267  -24.2858 C.ar    1  UNL1        0.1515
     15 C          46.8432   12.5892  -23.2202 C.2     1  UNL1        0.2650
     16 O          45.7969   12.7080  -22.5296 O.2     1  UNL1       -0.2684
     17 N          47.7509   11.4963  -23.0082 N.am    1  UNL1       -0.3023
     18 H          47.4561   10.7414  -22.3499 H       1  UNL1        0.1497
     19 C          49.4902   11.9758  -15.2574 C.ar    1  UNL1        0.2252
     20 N          48.9959   12.9222  -14.4107 N.ar    1  UNL1       -0.2058
     21 C          48.1911   13.9291  -14.8394 C.ar    1  UNL1        0.1137
     22 I          47.4758   15.3465  -13.4562 I       1  UNL1       -0.0211
     23 C          47.8380   14.0199  -16.1864 C.ar    1  UNL1        0.0252
     24 C          48.3241   13.0669  -17.0900 C.ar    1  UNL1        0.0064
     25 C          47.9822   13.1304  -18.4479 C.ar    1  UNL1        0.0004
     26 C          48.4637   12.1701  -19.3410 C.ar    1  UNL1        0.0045
     27 C          49.2950   11.1298  -18.8932 C.ar    1  UNL1        0.0537
     28 C          49.6609   11.0819  -17.5367 C.ar    1  UNL1        0.0092
     29 C          49.1679   12.0318  -16.6268 C.ar    1  UNL1        0.0534
     30 C          50.3406   10.5795  -13.3930 C.3     1  UNL1        0.2542
     31 O          50.3059   10.9487  -14.7663 O.3     1  UNL1       -0.4561
     32 C          46.6822   16.3344  -26.4442 C.3     1  UNL1        0.0867
     33 C          45.4294   15.9967  -27.2726 C.3     1  UNL1        0.0244
     34 C          46.3415   17.4783  -25.4644 C.3     1  UNL1        0.0244
     35 C          47.8124   16.8082  -27.3789 C.3     1  UNL1        0.0244
@<TRIPOS>BOND
     1    30    31    1
     2    31    19    1
     3    19    20   ar
     4    20    21   ar
     5    21    22    1
     6    21    23   ar
     7    23    24   ar
     8    24    25   ar
     9    25    26   ar
    10    26    27   ar
    11    27     1    1
    12     1     2    2
    13     1     3   am
    14     3     4    1
    15     4     5    1
    16     5     6    1
    17     6     7    1
    18     7     8    1
    19     6     9    1
    20     9    10    1
    21    10    11   ar
    22    11    12   ar
    23    12    32    1
    24    32    33    1
    25    32    34    1
    26    32    35    1
    27    12    13   ar
    28    13    14   ar
    29    14    15    1
    30    15    16    2
    31    15    17   am
    32    27    28   ar
    33    28    29   ar
    34    29    19   ar
    35    29    24   ar
    36     8     3    1
    37    14    10   ar
    38    17     6    1
    39    17    18    1
@<TRIPOS>MOLECULE
*****
 35 39 0 0 0
SMALL
GASTEIGER

@<TRIPOS>ATOM
      1 C          48.6571   11.7547  -25.0126 C.2     1  UNL1        0.2490
      2 O          49.0485   11.2966  -26.1209 O.2     1  UNL1       -0.2699
      3 N          48.7103   10.9125  -23.8455 N.am    1  UNL1       -0.2760
      4 C          47.5714   10.8257  -22.9258 C.3     1  UNL1        0.0954
      5 C          48.0345   10.9253  -21.4595 C.3     1  UNL1        0.0399
      6 C          49.5286   10.5269  -21.2323 C.3     1  UNL1        0.0645
      7 C          49.9449    9.4445  -22.2622 C.3     1  UNL1        0.0399
      8 C          49.7881    9.9244  -23.7189 C.3     1  UNL1        0.0954
      9 C          49.6974    9.9383  -19.7885 C.3     1  UNL1        0.0477
     10 C          49.6269   11.0346  -18.7678 C.ar    1  UNL1        0.0220
     11 C          49.3599   11.0006  -17.4191 C.ar    1  UNL1        0.0923
     12 N          49.5992   12.2388  -16.9171 N.ar    1  UNL1       -0.2534
     13 N          50.0422   13.0363  -17.8855 N.ar    1  UNL1       -0.1651
     14 C          50.0579   12.3026  -19.0109 C.ar    1  UNL1        0.1515
     15 C          50.5160   12.6955  -20.3342 C.2     1  UNL1        0.2650
     16 O          51.0397   13.8217  -20.5417 O.2     1  UNL1       -0.2684
     17 N          50.3835   11.7335  -21.3928 N.am    1  UNL1       -0.3023
     18 H          50.8423   11.9500  -22.3054 H       1  UNL1        0.1497
     19 C          49.3666   16.6265  -25.6569 C.ar    1  UNL1        0.2252
     20 N          48.8899   17.8996  -25.5627 N.ar    1  UNL1       -0.2058
     21 C          47.6404   18.1738  -25.1056 C.ar    1  UNL1        0.1137
     22 I          46.9909   20.1738  -24.9964 I       1  UNL1       -0.0211
     23 C          46.7958   17.1367  -24.7073 C.ar    1  UNL1        0.0252
     24 C          47.2471   15.8136  -24.7875 C.ar    1  UNL1        0.0064
     25 C          46.4224   14.7523  -24.3900 C.ar    1  UNL1        0.0004
     26 C          46.8839   13.4357  -24.4642 C.ar    1  UNL1        0.0045
     27 C          48.1773   13.1567  -24.9366 C.ar    1  UNL1        0.0537
     28 C          48.9945   14.2186  -25.3617 C.ar    1  UNL1        0.0092
     29 C          48.5471   15.5473  -25.2745 C.ar    1  UNL1        0.0534
     30 C          51.5733   17.4440  -26.4384 C.3     1  UNL1        0.2542
     31 O          50.6670   16.3942  -26.1220 O.3     1  UNL1       -0.4561
     32 C          49.4679   12.6408  -15.5025 C.3     1  UNL1        0.0867
     33 C          50.8603   12.9706  -14.9349 C.3     1  UNL1        0.0244
     34 C          48.5664   13.8880  -15.3745 C.3     1  UNL1        0.0244
     35 C          48.8348   11.4916  -14.6938 C.3     1  UNL1        0.0244
@<TRIPOS>BOND
     1    30    31    1
     2    31    19    1
     3    19    20   ar
     4    20    21   ar
     5    21    22    1
     6    21    23   ar
     7    23    24   ar
     8    24    25   ar
     9    25    26   ar
    10    26    27   ar
    11    27     1    1
    12     1     2    2
    13     1     3   am
    14     3     4    1
    15     4     5    1
    16     5     6    1
    17     6     7    1
    18     7     8    1
    19     6     9    1
    20     9    10    1
    21    10    11   ar
    22    11    12   ar
    23    12    32    1
    24    32    33    1
    25    32    34    1
    26    32    35    1
    27    12    13   ar
    28    13    14   ar
    29    14    15    1
    30    15    16    2
    31    15    17   am
    32    27    28   ar
    33    28    29   ar
    34    29    19   ar
    35    29    24   ar
    36     8     3    1
    37    14    10   ar
    38    17     6    1
    39    17    18    1
@<TRIPOS>MOLECULE
*****
 35 39 0 0 0
SMALL
GASTEIGER

@<TRIPOS>ATOM
      1 C          49.5615    9.5730  -22.0723 C.2     1  UNL1        0.2490
      2 O          49.3934    8.3249  -22.1463 O.2     1  UNL1       -0.2699
      3 N          50.0887   10.2800  -23.2108 N.am    1  UNL1       -0.2760
      4 C          51.1607   11.2684  -23.0544 C.3     1  UNL1        0.0954
      5 C          50.8528   12.5505  -23.8517 C.3     1  UNL1        0.0399
      6 C          49.8584   12.3418  -25.0393 C.3     1  UNL1        0.0645
      7 C          50.0232   10.9113  -25.6157 C.3     1  UNL1        0.0399
      8 C          49.7570    9.8165  -24.5634 C.3     1  UNL1        0.0954
      9 C          50.1740   13.3795  -26.1720 C.3     1  UNL1        0.0477
     10 C          49.7146   14.7483  -25.7668 C.ar    1  UNL1        0.0220
     11 C          50.0743   15.9957  -26.2207 C.ar    1  UNL1        0.0923
     12 N          49.2338   16.9007  -25.6577 N.ar    1  UNL1       -0.2534
     13 N          48.3386   16.2702  -24.9019 N.ar    1  UNL1       -0.1651
     14 C          48.6328   14.9610  -24.9686 C.ar    1  UNL1        0.1515
     15 C          47.9180   13.8469  -24.3657 C.2     1  UNL1        0.2650
     16 O          46.8414   14.0195  -23.7359 O.2     1  UNL1       -0.2684
     17 N          48.4674   12.5322  -24.5481 N.am    1  UNL1       -0.3023
     18 H          47.8866   11.7179  -24.2486 H       1  UNL1        0.1497
     19 C          50.7957   12.0413  -17.9448 C.ar    1  UNL1        0.2252
     20 N          50.4087   12.6771  -16.8032 N.ar    1  UNL1       -0.2058
     21 C          49.1024   12.8128  -16.4563 C.ar    1  UNL1        0.1137
     22 I          48.6008   13.8123  -14.6721 I       1  UNL1       -0.0211
     23 C          48.1010   12.2892  -17.2752 C.ar    1  UNL1        0.0252
     24 C          48.4558   11.6277  -18.4573 C.ar    1  UNL1        0.0064
     25 C          47.4716   11.0878  -19.2966 C.ar    1  UNL1        0.0004
     26 C          47.8346   10.4210  -20.4694 C.ar    1  UNL1        0.0045
     27 C          49.1869   10.2819  -20.8239 C.ar    1  UNL1        0.0537
     28 C          50.1729   10.8477  -19.9968 C.ar    1  UNL1        0.0092
     29 C          49.8200   11.5045  -18.8063 C.ar    1  UNL1        0.0534
     30 C          52.8531   12.8488  -19.0690 C.3     1  UNL1        0.2542
     31 O          52.1558   11.9146  -18.2537 O.3     1  UNL1       -0.4561
     32 C          49.2451   18.3580  -25.8940 C.3     1  UNL1        0.0867
     33 C          50.6062   18.9338  -25.4628 C.3     1  UNL1        0.0244
     34 C          49.0221   18.6666  -27.3905 C.3     1  UNL1        0.0244
     35 C          48.1172   19.0237  -25.0815 C.3     1  UNL1        0.0244
@<TRIPOS>BOND
     1    30    31    1
     2    31    19    1
     3    19    20   ar
     4    20    21   ar
     5    21    22    1
     6    21    23   ar
     7    23    24   ar
     8    24    25   ar
     9    25    26   ar
    10    26    27   ar
    11    27     1    1
    12     1     2    2
    13     1     3   am
    14     3     4    1
    15     4     5    1
    16     5     6    1
    17     6     7    1
    18     7     8    1
    19     6     9    1
    20     9    10    1
    21    10    11   ar
    22    11    12   ar
    23    12    32    1
    24    32    33    1
    25    32    34    1
    26    32    35    1
    27    12    13   ar
    28    13    14   ar
    29    14    15    1
    30    15    16    2
    31    15    17   am
    32    27    28   ar
    33    28    29   ar
    34    29    19   ar
    35    29    24   ar
    36     8     3    1
    37    14    10   ar
    38    17     6    1
    39    17    18    1
