@<TRIPOS>MOLECULE
*****
 41 45 0 0 0
SMALL
GASTEIGER

@<TRIPOS>ATOM
      1 C         -27.4199   47.1203   -7.2401 C.ar    1  UNL1        0.2018
      2 N         -26.2090   47.7145   -7.0662 N.ar    1  UNL1       -0.2135
      3 C         -26.2212   48.6997   -7.9804 C.ar    1  UNL1        0.0999
      4 C         -25.2224   49.6549   -8.2097 C.ar    1  UNL1        0.0282
      5 C         -25.4517   50.6477   -9.1962 C.ar    1  UNL1        0.0888
      6 C         -26.6961   50.6373   -9.8730 C.ar    1  UNL1        0.1401
      7 C         -27.6542   49.6789   -9.6350 C.ar    1  UNL1        0.0327
      8 C         -27.4028   48.6974   -8.6725 C.ar    1  UNL1        0.0789
      9 N         -28.1735   47.6900   -8.2213 N.ar    1  UNL1       -0.2977
     10 C         -29.5333   47.3411   -8.6315 C.3     1  UNL1        0.1332
     11 C         -28.8576   49.9409  -10.4711 C.3     1  UNL1        0.0709
     12 C         -28.4694   51.2535  -11.2280 C.3     1  UNL1        0.1375
     13 C         -29.4035   52.4112  -10.8510 C.3     1  UNL1        0.0439
     14 C         -28.4632   51.0443  -12.7483 C.3     1  UNL1        0.0439
     15 O         -27.1438   51.5622  -10.7932 O.3     1  UNL1       -0.4824
     16 C         -24.4273   51.6802   -9.4610 C.2     1  UNL1        0.2525
     17 O         -24.7928   52.8791   -9.5991 O.2     1  UNL1       -0.2697
     18 N         -23.0347   51.3299   -9.5622 N.am    1  UNL1       -0.2803
     19 H         -22.7604   50.3261   -9.4799 H       1  UNL1        0.1552
     20 C         -21.9879   52.2705   -9.8537 C.ar    1  UNL1        0.0505
     21 C         -21.8083   52.7909  -11.1466 C.ar    1  UNL1        0.0147
     22 C         -20.7893   53.7117  -11.3986 C.ar    1  UNL1        0.0012
     23 C         -19.9563   54.1399  -10.3626 C.ar    1  UNL1        0.0039
     24 C         -20.1537   53.6713   -9.0525 C.ar    1  UNL1        0.0726
     25 C         -21.1650   52.7242   -8.8115 C.ar    1  UNL1        0.0185
     26 C         -19.2329   54.1034   -7.9389 C.3     1  UNL1        0.4186
     27 F         -18.9266   55.4484   -8.0534 F       1  UNL1       -0.1659
     28 F         -19.8549   53.8848   -6.7239 F       1  UNL1       -0.1659
     29 F         -18.0495   53.3862   -7.9752 F       1  UNL1       -0.1659
     30 N         -27.8793   46.0471   -6.4036 N.pl3   1  UNL1       -0.2815
     31 H         -28.4646   45.2941   -6.8263 H       1  UNL1        0.1551
     32 C         -28.6586   46.3604   -2.7352 C.ar    1  UNL1       -0.0103
     33 C         -27.4012   46.0614   -2.1870 C.ar    1  UNL1       -0.0010
     34 C         -26.3240   45.7459   -3.0132 C.ar    1  UNL1        0.0307
     35 C         -26.4795   45.7385   -4.3988 C.ar    1  UNL1        0.1543
     36 F         -25.4270   45.3822   -5.1777 F       1  UNL1       -0.2028
     37 C         -27.7202   46.0639   -4.9754 C.ar    1  UNL1        0.0886
     38 C         -28.8170   46.3692   -4.1412 C.ar    1  UNL1        0.0693
     39 CL        -30.3667   46.8058   -4.8694 Cl      1  UNL1       -0.0812
     40 C         -29.5918   48.1157   -1.2190 C.3     1  UNL1        0.0051
     41 C         -29.7920   46.7209   -1.8037 C.3     1  UNL1        0.0273
@<TRIPOS>BOND
     1    40    41    1
     2    41    32    1
     3    32    33   ar
     4    33    34   ar
     5    34    35   ar
     6    35    36    1
     7    35    37   ar
     8    37    30    1
     9    30     1    1
    10     1     2   ar
    11     2     3   ar
    12     3     4   ar
    13     4     5   ar
    14     5    16    1
    15    16    17    2
    16    16    18   am
    17    18    20    1
    18    20    21   ar
    19    21    22   ar
    20    22    23   ar
    21    23    24   ar
    22    24    26    1
    23    26    27    1
    24    26    28    1
    25    26    29    1
    26    24    25   ar
    27     5     6   ar
    28     6     7   ar
    29     7     8   ar
    30     8     9   ar
    31     9    10    1
    32     7    11    1
    33    11    12    1
    34    12    13    1
    35    12    14    1
    36    12    15    1
    37    37    38   ar
    38    38    39    1
    39    38    32   ar
    40     9     1   ar
    41     8     3   ar
    42    25    20   ar
    43    15     6    1
    44    30    31    1
    45    18    19    1
@<TRIPOS>MOLECULE
*****
 41 45 0 0 0
SMALL
GASTEIGER

@<TRIPOS>ATOM
      1 C         -28.4287   50.1445   -5.7830 C.ar    1  UNL1        0.2018
      2 N         -27.0945   50.3208   -5.9790 N.ar    1  UNL1       -0.2135
      3 C         -27.0158   50.6016   -7.2911 C.ar    1  UNL1        0.0999
      4 C         -25.8621   50.9095   -8.0237 C.ar    1  UNL1        0.0282
      5 C         -26.0006   51.2255   -9.3994 C.ar    1  UNL1        0.0888
      6 C         -27.3061   51.2446   -9.9489 C.ar    1  UNL1        0.1401
      7 C         -28.4204   50.9260   -9.2073 C.ar    1  UNL1        0.0327
      8 C         -28.2624   50.5989   -7.8579 C.ar    1  UNL1        0.0789
      9 N         -29.1731   50.2980   -6.9132 N.ar    1  UNL1       -0.2977
     10 C         -30.6278   50.2327   -7.0508 C.3     1  UNL1        0.1332
     11 C         -29.6453   51.0592  -10.0427 C.3     1  UNL1        0.0709
     12 C         -29.0736   51.5543  -11.4119 C.3     1  UNL1        0.1375
     13 C         -29.5929   52.9561  -11.7584 C.3     1  UNL1        0.0439
     14 C         -29.3954   50.5695  -12.5440 C.3     1  UNL1        0.0439
     15 O         -27.6575   51.6122  -11.2311 O.3     1  UNL1       -0.4824
     16 C         -24.8090   51.5666  -10.2052 C.2     1  UNL1        0.2525
     17 O         -24.7525   51.1773  -11.4033 O.2     1  UNL1       -0.2697
     18 N         -23.7273   52.3283   -9.6379 N.am    1  UNL1       -0.2803
     19 H         -23.7807   52.6086   -8.6338 H       1  UNL1        0.1552
     20 C         -22.5232   52.6659  -10.3462 C.ar    1  UNL1        0.0505
     21 C         -22.5551   53.4330  -11.5231 C.ar    1  UNL1        0.0147
     22 C         -21.3683   53.7551  -12.1848 C.ar    1  UNL1        0.0012
     23 C         -20.1396   53.3372  -11.6688 C.ar    1  UNL1        0.0039
     24 C         -20.0836   52.6146  -10.4649 C.ar    1  UNL1        0.0726
     25 C         -21.2844   52.2714   -9.8182 C.ar    1  UNL1        0.0185
     26 C         -18.7615   52.1302   -9.9245 C.3     1  UNL1        0.4186
     27 F         -17.7689   52.2531  -10.8815 F       1  UNL1       -0.1659
     28 F         -18.4176   52.8858   -8.8192 F       1  UNL1       -0.1659
     29 F         -18.8415   50.7991   -9.5535 F       1  UNL1       -0.1659
     30 N         -28.9917   49.9017   -4.4843 N.pl3   1  UNL1       -0.2815
     31 H         -29.5211   50.6675   -4.0136 H       1  UNL1        0.1551
     32 C         -29.3584   46.5073   -2.9013 C.ar    1  UNL1       -0.0103
     33 C         -28.1047   46.3846   -2.2815 C.ar    1  UNL1       -0.0010
     34 C         -27.1529   47.3958   -2.4001 C.ar    1  UNL1        0.0307
     35 C         -27.4415   48.5513   -3.1252 C.ar    1  UNL1        0.1543
     36 F         -26.4802   49.4990   -3.2639 F       1  UNL1       -0.2028
     37 C         -28.7005   48.7132   -3.7305 C.ar    1  UNL1        0.0886
     38 C         -29.6612   47.6847   -3.6250 C.ar    1  UNL1        0.0693
     39 CL        -31.2522   47.9037   -4.3623 Cl      1  UNL1       -0.0812
     40 C         -29.9659   44.1643   -3.5278 C.3     1  UNL1        0.0051
     41 C         -30.3689   45.3980   -2.7260 C.3     1  UNL1        0.0273
@<TRIPOS>BOND
     1    40    41    1
     2    41    32    1
     3    32    33   ar
     4    33    34   ar
     5    34    35   ar
     6    35    36    1
     7    35    37   ar
     8    37    30    1
     9    30     1    1
    10     1     2   ar
    11     2     3   ar
    12     3     4   ar
    13     4     5   ar
    14     5    16    1
    15    16    17    2
    16    16    18   am
    17    18    20    1
    18    20    21   ar
    19    21    22   ar
    20    22    23   ar
    21    23    24   ar
    22    24    26    1
    23    26    27    1
    24    26    28    1
    25    26    29    1
    26    24    25   ar
    27     5     6   ar
    28     6     7   ar
    29     7     8   ar
    30     8     9   ar
    31     9    10    1
    32     7    11    1
    33    11    12    1
    34    12    13    1
    35    12    14    1
    36    12    15    1
    37    37    38   ar
    38    38    39    1
    39    38    32   ar
    40     9     1   ar
    41     8     3   ar
    42    25    20   ar
    43    15     6    1
    44    30    31    1
    45    18    19    1
@<TRIPOS>MOLECULE
*****
 41 45 0 0 0
SMALL
GASTEIGER

@<TRIPOS>ATOM
      1 C         -23.8108   51.5664  -10.3895 C.ar    1  UNL1        0.2018
      2 N         -23.6763   51.3876   -9.0481 N.ar    1  UNL1       -0.2135
      3 C         -24.9078   51.0053   -8.6687 C.ar    1  UNL1        0.0999
      4 C         -25.3251   50.6515   -7.3791 C.ar    1  UNL1        0.0282
      5 C         -26.6660   50.2270   -7.1964 C.ar    1  UNL1        0.0888
      6 C         -27.5010   50.1526   -8.3383 C.ar    1  UNL1        0.1401
      7 C         -27.0666   50.5181   -9.5916 C.ar    1  UNL1        0.0327
      8 C         -25.7476   50.9517   -9.7490 C.ar    1  UNL1        0.0789
      9 N         -25.0675   51.3176  -10.8518 N.ar    1  UNL1       -0.2977
     10 C         -25.5447   51.3583  -12.2338 C.3     1  UNL1        0.1332
     11 C         -28.1512   50.3082  -10.5895 C.3     1  UNL1        0.0709
     12 C         -29.3063   49.7123   -9.7194 C.3     1  UNL1        0.1375
     13 C         -29.6529   48.2828  -10.1568 C.3     1  UNL1        0.0439
     14 C         -30.5561   50.6019   -9.7597 C.3     1  UNL1        0.0439
     15 O         -28.7969   49.6819   -8.3849 O.3     1  UNL1       -0.4824
     16 C         -27.1428   49.8346   -5.8532 C.2     1  UNL1        0.2525
     17 O         -26.4486   50.1431   -4.8467 O.2     1  UNL1       -0.2697
     18 N         -28.3767   49.1114   -5.6897 N.am    1  UNL1       -0.2803
     19 H         -28.9159   48.8361   -6.5400 H       1  UNL1        0.1552
     20 C         -28.8851   48.6645   -4.4218 C.ar    1  UNL1        0.0505
     21 C         -29.8934   49.3718   -3.7453 C.ar    1  UNL1        0.0147
     22 C         -30.3760   48.9083   -2.5197 C.ar    1  UNL1        0.0012
     23 C         -29.8767   47.7260   -1.9688 C.ar    1  UNL1        0.0039
     24 C         -28.9062   46.9768   -2.6556 C.ar    1  UNL1        0.0726
     25 C         -28.4061   47.4635   -3.8767 C.ar    1  UNL1        0.0185
     26 C         -28.3386   45.7194   -2.0464 C.3     1  UNL1        0.4186
     27 F         -26.9572   45.7860   -1.9885 F       1  UNL1       -0.1659
     28 F         -28.8364   45.5696   -0.7656 F       1  UNL1       -0.1659
     29 F         -28.6866   44.6102   -2.7979 F       1  UNL1       -0.1659
     30 N         -22.7020   51.9054  -11.2371 N.pl3   1  UNL1       -0.2815
     31 H         -22.7278   51.6174  -12.2395 H       1  UNL1        0.1551
     32 C         -20.2448   54.3336   -9.7443 C.ar    1  UNL1       -0.0103
     33 C         -19.0995   53.5239   -9.6844 C.ar    1  UNL1       -0.0010
     34 C         -19.1448   52.1984  -10.1126 C.ar    1  UNL1        0.0307
     35 C         -20.3280   51.6640  -10.6210 C.ar    1  UNL1        0.1543
     36 F         -20.3568   50.3575  -10.9868 F       1  UNL1       -0.2028
     37 C         -21.4819   52.4618  -10.7204 C.ar    1  UNL1        0.0886
     38 C         -21.4435   53.8001  -10.2739 C.ar    1  UNL1        0.0693
     39 CL        -22.8867   54.8082  -10.4270 Cl      1  UNL1       -0.0812
     40 C         -19.4750   55.8662   -7.9251 C.3     1  UNL1        0.0051
     41 C         -20.1443   55.7717   -9.2927 C.3     1  UNL1        0.0273
@<TRIPOS>BOND
     1    40    41    1
     2    41    32    1
     3    32    33   ar
     4    33    34   ar
     5    34    35   ar
     6    35    36    1
     7    35    37   ar
     8    37    30    1
     9    30     1    1
    10     1     2   ar
    11     2     3   ar
    12     3     4   ar
    13     4     5   ar
    14     5    16    1
    15    16    17    2
    16    16    18   am
    17    18    20    1
    18    20    21   ar
    19    21    22   ar
    20    22    23   ar
    21    23    24   ar
    22    24    26    1
    23    26    27    1
    24    26    28    1
    25    26    29    1
    26    24    25   ar
    27     5     6   ar
    28     6     7   ar
    29     7     8   ar
    30     8     9   ar
    31     9    10    1
    32     7    11    1
    33    11    12    1
    34    12    13    1
    35    12    14    1
    36    12    15    1
    37    37    38   ar
    38    38    39    1
    39    38    32   ar
    40     9     1   ar
    41     8     3   ar
    42    25    20   ar
    43    15     6    1
    44    30    31    1
    45    18    19    1
@<TRIPOS>MOLECULE
*****
 41 45 0 0 0
SMALL
GASTEIGER

@<TRIPOS>ATOM
      1 C         -28.2362   49.4067   -5.8776 C.ar    1  UNL1        0.2018
      2 N         -26.9073   49.6062   -6.0863 N.ar    1  UNL1       -0.2135
      3 C         -26.8618   50.0350   -7.3594 C.ar    1  UNL1        0.0999
      4 C         -25.7268   50.4262   -8.0814 C.ar    1  UNL1        0.0282
      5 C         -25.9000   50.8969   -9.4081 C.ar    1  UNL1        0.0888
      6 C         -27.2191   50.9767   -9.9181 C.ar    1  UNL1        0.1401
      7 C         -28.3145   50.5740   -9.1894 C.ar    1  UNL1        0.0327
      8 C         -28.1225   50.0953   -7.8907 C.ar    1  UNL1        0.0789
      9 N         -29.0091   49.6871   -6.9635 N.ar    1  UNL1       -0.2977
     10 C         -30.4669   49.6359   -7.0704 C.3     1  UNL1        0.1332
     11 C         -29.5602   50.7999   -9.9726 C.3     1  UNL1        0.0709
     12 C         -29.0230   51.4488  -11.2904 C.3     1  UNL1        0.1375
     13 C         -29.5490   52.8803  -11.4613 C.3     1  UNL1        0.0439
     14 C         -29.3752   50.5993  -12.5190 C.3     1  UNL1        0.0439
     15 O         -27.6026   51.4878  -11.1406 O.3     1  UNL1       -0.4824
     16 C         -24.7289   51.3295  -10.1999 C.2     1  UNL1        0.2525
     17 O         -24.6585   50.9966  -11.4141 O.2     1  UNL1       -0.2697
     18 N         -23.6824   52.1160   -9.6012 N.am    1  UNL1       -0.2803
     19 H         -23.7453   52.3489   -8.5856 H       1  UNL1        0.1552
     20 C         -22.4983   52.5414  -10.2959 C.ar    1  UNL1        0.0505
     21 C         -22.5703   53.3667  -11.4309 C.ar    1  UNL1        0.0147
     22 C         -21.4026   53.7734  -12.0797 C.ar    1  UNL1        0.0012
     23 C         -20.1540   53.3822  -11.5914 C.ar    1  UNL1        0.0039
     24 C         -20.0595   52.6009  -10.4272 C.ar    1  UNL1        0.0726
     25 C         -21.2405   52.1733   -9.7944 C.ar    1  UNL1        0.0185
     26 C         -18.7146   52.1462   -9.9184 C.3     1  UNL1        0.4186
     27 F         -18.3292   52.8964   -8.8208 F       1  UNL1       -0.1659
     28 F         -18.7936   50.8163   -9.5497 F       1  UNL1       -0.1659
     29 F         -17.7470   52.2857  -10.8983 F       1  UNL1       -0.1659
     30 N         -28.7661   49.0165   -4.6011 N.pl3   1  UNL1       -0.2815
     31 H         -29.0320   49.7587   -3.9179 H       1  UNL1        0.1551
     32 C         -27.7388   45.8112   -2.9179 C.ar    1  UNL1       -0.0103
     33 C         -28.8183   44.9865   -3.2725 C.ar    1  UNL1       -0.0010
     34 C         -29.8711   45.4859   -4.0371 C.ar    1  UNL1        0.0307
     35 C         -29.8570   46.8103   -4.4728 C.ar    1  UNL1        0.1543
     36 F         -30.9168   47.2836   -5.1758 F       1  UNL1       -0.2028
     37 C         -28.7735   47.6495   -4.1576 C.ar    1  UNL1        0.0886
     38 C         -27.7129   47.1513   -3.3709 C.ar    1  UNL1        0.0693
     39 CL        -26.3394   48.1998   -3.0010 Cl      1  UNL1       -0.0812
     40 C         -25.6282   44.4740   -3.0090 C.3     1  UNL1        0.0051
     41 C         -26.6073   45.2217   -2.1091 C.3     1  UNL1        0.0273
@<TRIPOS>BOND
     1    40    41    1
     2    41    32    1
     3    32    33   ar
     4    33    34   ar
     5    34    35   ar
     6    35    36    1
     7    35    37   ar
     8    37    30    1
     9    30     1    1
    10     1     2   ar
    11     2     3   ar
    12     3     4   ar
    13     4     5   ar
    14     5    16    1
    15    16    17    2
    16    16    18   am
    17    18    20    1
    18    20    21   ar
    19    21    22   ar
    20    22    23   ar
    21    23    24   ar
    22    24    26    1
    23    26    27    1
    24    26    28    1
    25    26    29    1
    26    24    25   ar
    27     5     6   ar
    28     6     7   ar
    29     7     8   ar
    30     8     9   ar
    31     9    10    1
    32     7    11    1
    33    11    12    1
    34    12    13    1
    35    12    14    1
    36    12    15    1
    37    37    38   ar
    38    38    39    1
    39    38    32   ar
    40     9     1   ar
    41     8     3   ar
    42    25    20   ar
    43    15     6    1
    44    30    31    1
    45    18    19    1
@<TRIPOS>MOLECULE
*****
 41 45 0 0 0
SMALL
GASTEIGER

@<TRIPOS>ATOM
      1 C         -23.8867   51.5760  -10.3378 C.ar    1  UNL1        0.2018
      2 N         -23.6630   51.3639   -9.0133 N.ar    1  UNL1       -0.2135
      3 C         -24.8457   50.8971   -8.5774 C.ar    1  UNL1        0.0999
      4 C         -25.1649   50.4791   -7.2789 C.ar    1  UNL1        0.0282
      5 C         -26.4659   49.9698   -7.0346 C.ar    1  UNL1        0.0888
      6 C         -27.3613   49.8812   -8.1287 C.ar    1  UNL1        0.1401
      7 C         -27.0236   50.3107   -9.3914 C.ar    1  UNL1        0.0327
      8 C         -25.7435   50.8271   -9.6091 C.ar    1  UNL1        0.0789
      9 N         -25.1522   51.2670  -10.7357 N.ar    1  UNL1       -0.2977
     10 C         -25.7119   51.3221  -12.0858 C.3     1  UNL1        0.1332
     11 C         -28.1514   50.0676  -10.3323 C.3     1  UNL1        0.0709
     12 C         -29.2166   49.3771   -9.4186 C.3     1  UNL1        0.1375
     13 C         -29.5052   47.9437   -9.8844 C.3     1  UNL1        0.0439
     14 C         -30.5160   50.1913   -9.3565 C.3     1  UNL1        0.0439
     15 O         -28.6282   49.3357   -8.1172 O.3     1  UNL1       -0.4824
     16 C         -26.8389   49.5082   -5.6806 C.2     1  UNL1        0.2525
     17 O         -26.4205   50.1529   -4.6809 O.2     1  UNL1       -0.2697
     18 N         -27.6638   48.3426   -5.4990 N.am    1  UNL1       -0.2803
     19 H         -27.9683   47.8047   -6.3402 H       1  UNL1        0.1552
     20 C         -28.0366   47.8130   -4.2160 C.ar    1  UNL1        0.0505
     21 C         -27.3867   46.6944   -3.6672 C.ar    1  UNL1        0.0147
     22 C         -27.7626   46.2078   -2.4135 C.ar    1  UNL1        0.0012
     23 C         -28.7709   46.8435   -1.6857 C.ar    1  UNL1        0.0039
     24 C         -29.3961   47.9948   -2.1943 C.ar    1  UNL1        0.0726
     25 C         -29.0305   48.4634   -3.4689 C.ar    1  UNL1        0.0185
     26 C         -30.5104   48.6619   -1.4276 C.3     1  UNL1        0.4186
     27 F         -31.5832   47.8001   -1.2775 F       1  UNL1       -0.1659
     28 F         -30.0473   49.0268   -0.1773 F       1  UNL1       -0.1659
     29 F         -30.9540   49.7925   -2.0918 F       1  UNL1       -0.1659
     30 N         -22.8515   52.0067  -11.2352 N.pl3   1  UNL1       -0.2815
     31 H         -22.9535   51.8081  -12.2543 H       1  UNL1        0.1551
     32 C         -20.2836   54.3775   -9.8397 C.ar    1  UNL1       -0.0103
     33 C         -19.1550   53.5427   -9.8264 C.ar    1  UNL1       -0.0010
     34 C         -19.2466   52.2192  -10.2535 C.ar    1  UNL1        0.0307
     35 C         -20.4608   51.7119  -10.7148 C.ar    1  UNL1        0.1543
     36 F         -20.5330   50.4070  -11.0803 F       1  UNL1       -0.2028
     37 C         -21.5997   52.5351  -10.7673 C.ar    1  UNL1        0.0886
     38 C         -21.5140   53.8715  -10.3214 C.ar    1  UNL1        0.0693
     39 CL        -22.9396   54.9114  -10.4158 Cl      1  UNL1       -0.0812
     40 C         -19.4983   55.8848   -8.0061 C.3     1  UNL1        0.0051
     41 C         -20.1334   55.8123   -9.3913 C.3     1  UNL1        0.0273
@<TRIPOS>BOND
     1    40    41    1
     2    41    32    1
     3    32    33   ar
     4    33    34   ar
     5    34    35   ar
     6    35    36    1
     7    35    37   ar
     8    37    30    1
     9    30     1    1
    10     1     2   ar
    11     2     3   ar
    12     3     4   ar
    13     4     5   ar
    14     5    16    1
    15    16    17    2
    16    16    18   am
    17    18    20    1
    18    20    21   ar
    19    21    22   ar
    20    22    23   ar
    21    23    24   ar
    22    24    26    1
    23    26    27    1
    24    26    28    1
    25    26    29    1
    26    24    25   ar
    27     5     6   ar
    28     6     7   ar
    29     7     8   ar
    30     8     9   ar
    31     9    10    1
    32     7    11    1
    33    11    12    1
    34    12    13    1
    35    12    14    1
    36    12    15    1
    37    37    38   ar
    38    38    39    1
    39    38    32   ar
    40     9     1   ar
    41     8     3   ar
    42    25    20   ar
    43    15     6    1
    44    30    31    1
    45    18    19    1
@<TRIPOS>MOLECULE
*****
 41 45 0 0 0
SMALL
GASTEIGER

@<TRIPOS>ATOM
      1 C         -30.1863   49.3822  -14.6649 C.ar    1  UNL1        0.2018
      2 N         -29.9052   50.3951  -13.8019 N.ar    1  UNL1       -0.2135
      3 C         -29.8027   49.7652  -12.6190 C.ar    1  UNL1        0.0999
      4 C         -29.4846   50.3363  -11.3799 C.ar    1  UNL1        0.0282
      5 C         -29.3781   49.4840  -10.2513 C.ar    1  UNL1        0.0888
      6 C         -29.5671   48.0939  -10.4480 C.ar    1  UNL1        0.1401
      7 C         -29.8904   47.5625  -11.6752 C.ar    1  UNL1        0.0327
      8 C         -30.0096   48.4202  -12.7721 C.ar    1  UNL1        0.0789
      9 N         -30.2669   48.1607  -14.0678 N.ar    1  UNL1       -0.2977
     10 C         -30.4970   46.8616  -14.6992 C.3     1  UNL1        0.1332
     11 C         -29.9987   46.0810  -11.5780 C.3     1  UNL1        0.0709
     12 C         -29.6431   45.8095  -10.0792 C.3     1  UNL1        0.1375
     13 C         -28.3625   44.9735   -9.9528 C.3     1  UNL1        0.0439
     14 C         -30.8028   45.1266   -9.3416 C.3     1  UNL1        0.0439
     15 O         -29.4182   47.0984   -9.5049 O.3     1  UNL1       -0.4824
     16 C         -29.0336   50.0459   -8.9280 C.2     1  UNL1        0.2525
     17 O         -29.7376   50.9828   -8.4625 O.2     1  UNL1       -0.2697
     18 N         -27.9142   49.5382   -8.1789 N.am    1  UNL1       -0.2803
     19 H         -27.3248   48.7869   -8.6005 H       1  UNL1        0.1552
     20 C         -27.4966   50.0575   -6.9055 C.ar    1  UNL1        0.0505
     21 C         -27.2451   51.4273   -6.7187 C.ar    1  UNL1        0.0147
     22 C         -26.8508   51.9055   -5.4674 C.ar    1  UNL1        0.0012
     23 C         -26.7264   51.0294   -4.3868 C.ar    1  UNL1        0.0039
     24 C         -27.0247   49.6648   -4.5408 C.ar    1  UNL1        0.0726
     25 C         -27.3957   49.1862   -5.8101 C.ar    1  UNL1        0.0185
     26 C         -26.8560   48.7101   -3.3856 C.3     1  UNL1        0.4186
     27 F         -26.4593   47.4632   -3.8372 F       1  UNL1       -0.1659
     28 F         -25.8945   49.2041   -2.5240 F       1  UNL1       -0.1659
     29 F         -28.0464   48.5609   -2.6950 F       1  UNL1       -0.1659
     30 N         -30.3022   49.5864  -16.0817 N.pl3   1  UNL1       -0.2815
     31 H         -31.2137   49.9121  -16.4708 H       1  UNL1        0.1551
     32 C         -26.9498   49.2738  -17.7628 C.ar    1  UNL1       -0.0103
     33 C         -27.2690   48.3704  -18.7890 C.ar    1  UNL1       -0.0010
     34 C         -28.5612   47.8628  -18.9105 C.ar    1  UNL1        0.0307
     35 C         -29.5588   48.2593  -18.0207 C.ar    1  UNL1        0.1543
     36 F         -30.7963   47.7138  -18.1330 F       1  UNL1       -0.2028
     37 C         -29.2738   49.1863  -17.0023 C.ar    1  UNL1        0.0886
     38 C         -27.9626   49.6908  -16.8672 C.ar    1  UNL1        0.0693
     39 CL        -27.6147   50.8772  -15.6047 Cl      1  UNL1       -0.0812
     40 C         -24.7316   49.4078  -18.9085 C.3     1  UNL1        0.0051
     41 C         -25.5428   49.8179  -17.6833 C.3     1  UNL1        0.0273
@<TRIPOS>BOND
     1    40    41    1
     2    41    32    1
     3    32    33   ar
     4    33    34   ar
     5    34    35   ar
     6    35    36    1
     7    35    37   ar
     8    37    30    1
     9    30     1    1
    10     1     2   ar
    11     2     3   ar
    12     3     4   ar
    13     4     5   ar
    14     5    16    1
    15    16    17    2
    16    16    18   am
    17    18    20    1
    18    20    21   ar
    19    21    22   ar
    20    22    23   ar
    21    23    24   ar
    22    24    26    1
    23    26    27    1
    24    26    28    1
    25    26    29    1
    26    24    25   ar
    27     5     6   ar
    28     6     7   ar
    29     7     8   ar
    30     8     9   ar
    31     9    10    1
    32     7    11    1
    33    11    12    1
    34    12    13    1
    35    12    14    1
    36    12    15    1
    37    37    38   ar
    38    38    39    1
    39    38    32   ar
    40     9     1   ar
    41     8     3   ar
    42    25    20   ar
    43    15     6    1
    44    30    31    1
    45    18    19    1
@<TRIPOS>MOLECULE
*****
 41 45 0 0 0
SMALL
GASTEIGER

@<TRIPOS>ATOM
      1 C         -23.5398   51.2981   -9.4857 C.ar    1  UNL1        0.2018
      2 N         -23.5794   51.1658   -8.1328 N.ar    1  UNL1       -0.2135
      3 C         -24.8621   50.8400   -7.8979 C.ar    1  UNL1        0.0999
      4 C         -25.4492   50.5497   -6.6595 C.ar    1  UNL1        0.0282
      5 C         -26.8176   50.1780   -6.6320 C.ar    1  UNL1        0.0888
      6 C         -27.5071   50.0887   -7.8662 C.ar    1  UNL1        0.1401
      7 C         -26.9072   50.3915   -9.0668 C.ar    1  UNL1        0.0327
      8 C         -25.5631   50.7740   -9.0724 C.ar    1  UNL1        0.0789
      9 N         -24.7383   51.0746  -10.0930 N.ar    1  UNL1       -0.2977
     10 C         -25.0388   51.0790  -11.5244 C.3     1  UNL1        0.1332
     11 C         -27.8670   50.1808  -10.1850 C.3     1  UNL1        0.0709
     12 C         -29.1430   49.6577   -9.4468 C.3     1  UNL1        0.1375
     13 C         -29.4872   48.2252   -9.8761 C.3     1  UNL1        0.0439
     14 C         -30.3432   50.5870   -9.6728 C.3     1  UNL1        0.0439
     15 O         -28.8043   49.6607   -8.0588 O.3     1  UNL1       -0.4824
     16 C         -27.4718   49.8532   -5.3466 C.2     1  UNL1        0.2525
     17 O         -26.9073   50.1965   -4.2725 O.2     1  UNL1       -0.2697
     18 N         -28.7307   49.1560   -5.3141 N.am    1  UNL1       -0.2803
     19 H         -29.1610   48.8506   -6.2148 H       1  UNL1        0.1552
     20 C         -29.4075   48.7738   -4.1051 C.ar    1  UNL1        0.0505
     21 C         -30.4524   49.5483   -3.5732 C.ar    1  UNL1        0.0147
     22 C         -31.0994   49.1470   -2.4027 C.ar    1  UNL1        0.0012
     23 C         -30.7286   47.9610   -1.7652 C.ar    1  UNL1        0.0039
     24 C         -29.7221   47.1460   -2.3108 C.ar    1  UNL1        0.0726
     25 C         -29.0570   47.5698   -3.4753 C.ar    1  UNL1        0.0185
     26 C         -29.2940   45.8837   -1.6052 C.3     1  UNL1        0.4186
     27 F         -29.9363   44.7821   -2.1437 F       1  UNL1       -0.1659
     28 F         -27.9285   45.7234   -1.7482 F       1  UNL1       -0.1659
     29 F         -29.6019   45.9471   -0.2571 F       1  UNL1       -0.1659
     30 N         -22.3225   51.5669  -10.1988 N.pl3   1  UNL1       -0.2815
     31 H         -21.8769   50.7965  -10.7431 H       1  UNL1        0.1551
     32 C         -19.9324   54.1524   -8.8701 C.ar    1  UNL1       -0.0103
     33 C         -20.1673   55.1981   -9.7768 C.ar    1  UNL1       -0.0010
     34 C         -21.0838   55.0439  -10.8154 C.ar    1  UNL1        0.0307
     35 C         -21.7914   53.8509  -10.9572 C.ar    1  UNL1        0.1543
     36 F         -22.6427   53.7106  -12.0046 F       1  UNL1       -0.2028
     37 C         -21.5978   52.7983  -10.0448 C.ar    1  UNL1        0.0886
     38 C         -20.6595   52.9457   -9.0008 C.ar    1  UNL1        0.0693
     39 CL        -20.4398   51.6323   -7.8392 Cl      1  UNL1       -0.0812
     40 C         -18.9879   55.8186   -7.2631 C.3     1  UNL1        0.0051
     41 C         -18.9487   54.3716   -7.7447 C.3     1  UNL1        0.0273
@<TRIPOS>BOND
     1    40    41    1
     2    41    32    1
     3    32    33   ar
     4    33    34   ar
     5    34    35   ar
     6    35    36    1
     7    35    37   ar
     8    37    30    1
     9    30     1    1
    10     1     2   ar
    11     2     3   ar
    12     3     4   ar
    13     4     5   ar
    14     5    16    1
    15    16    17    2
    16    16    18   am
    17    18    20    1
    18    20    21   ar
    19    21    22   ar
    20    22    23   ar
    21    23    24   ar
    22    24    26    1
    23    26    27    1
    24    26    28    1
    25    26    29    1
    26    24    25   ar
    27     5     6   ar
    28     6     7   ar
    29     7     8   ar
    30     8     9   ar
    31     9    10    1
    32     7    11    1
    33    11    12    1
    34    12    13    1
    35    12    14    1
    36    12    15    1
    37    37    38   ar
    38    38    39    1
    39    38    32   ar
    40     9     1   ar
    41     8     3   ar
    42    25    20   ar
    43    15     6    1
    44    30    31    1
    45    18    19    1
@<TRIPOS>MOLECULE
*****
 41 45 0 0 0
SMALL
GASTEIGER

@<TRIPOS>ATOM
      1 C         -23.9467   51.5638  -10.3426 C.ar    1  UNL1        0.2018
      2 N         -23.7246   51.3555   -9.0172 N.ar    1  UNL1       -0.2135
      3 C         -24.9090   50.8936   -8.5807 C.ar    1  UNL1        0.0999
      4 C         -25.2305   50.4809   -7.2811 C.ar    1  UNL1        0.0282
      5 C         -26.5331   49.9762   -7.0361 C.ar    1  UNL1        0.0888
      6 C         -27.4279   49.8866   -8.1306 C.ar    1  UNL1        0.1401
      7 C         -27.0880   50.3109   -9.3945 C.ar    1  UNL1        0.0327
      8 C         -25.8062   50.8228   -9.6129 C.ar    1  UNL1        0.0789
      9 N         -25.2127   51.2572  -10.7405 N.ar    1  UNL1       -0.2977
     10 C         -25.7711   51.3094  -12.0912 C.3     1  UNL1        0.1332
     11 C         -28.2157   50.0680  -10.3355 C.3     1  UNL1        0.0709
     12 C         -29.2837   49.3836   -9.4203 C.3     1  UNL1        0.1375
     13 C         -29.5762   47.9495   -9.8817 C.3     1  UNL1        0.0439
     14 C         -30.5807   50.2018   -9.3620 C.3     1  UNL1        0.0439
     15 O         -28.6965   49.3449   -8.1184 O.3     1  UNL1       -0.4824
     16 C         -26.9086   49.5202   -5.6809 C.2     1  UNL1        0.2525
     17 O         -26.5500   50.2074   -4.6863 O.2     1  UNL1       -0.2697
     18 N         -27.6689   48.3125   -5.4924 N.am    1  UNL1       -0.2803
     19 H         -27.9234   47.7416   -6.3284 H       1  UNL1        0.1552
     20 C         -28.0386   47.7873   -4.2067 C.ar    1  UNL1        0.0505
     21 C         -27.3888   46.6693   -3.6566 C.ar    1  UNL1        0.0147
     22 C         -27.7617   46.1870   -2.4003 C.ar    1  UNL1        0.0012
     23 C         -28.7669   46.8265   -1.6714 C.ar    1  UNL1        0.0039
     24 C         -29.3917   47.9772   -2.1815 C.ar    1  UNL1        0.0726
     25 C         -29.0292   48.4415   -3.4586 C.ar    1  UNL1        0.0185
     26 C         -30.5026   48.6483   -1.4134 C.3     1  UNL1        0.4186
     27 F         -30.0703   49.0150   -0.1506 F       1  UNL1       -0.1659
     28 F         -30.9091   49.7792   -2.0964 F       1  UNL1       -0.1659
     29 F         -31.5836   47.7957   -1.2693 F       1  UNL1       -0.1659
     30 N         -22.9095   51.9885  -11.2406 N.pl3   1  UNL1       -0.2815
     31 H         -22.9143   51.6311  -12.2208 H       1  UNL1        0.1551
     32 C         -19.3773   52.8657  -10.2832 C.ar    1  UNL1       -0.0103
     33 C         -19.5377   54.2212   -9.9545 C.ar    1  UNL1       -0.0010
     34 C         -20.7841   54.8351  -10.0644 C.ar    1  UNL1        0.0307
     35 C         -21.8928   54.1038  -10.4889 C.ar    1  UNL1        0.1543
     36 F         -23.0842   54.7376  -10.6319 F       1  UNL1       -0.2028
     37 C         -21.7665   52.7371  -10.7953 C.ar    1  UNL1        0.0886
     38 C         -20.5027   52.1161  -10.6995 C.ar    1  UNL1        0.0693
     39 CL        -20.3532   50.3921  -11.0573 Cl      1  UNL1       -0.0812
     40 C         -17.7382   51.8945   -8.6642 C.3     1  UNL1        0.0051
     41 C         -18.0139   52.2347  -10.1256 C.3     1  UNL1        0.0273
@<TRIPOS>BOND
     1    40    41    1
     2    41    32    1
     3    32    33   ar
     4    33    34   ar
     5    34    35   ar
     6    35    36    1
     7    35    37   ar
     8    37    30    1
     9    30     1    1
    10     1     2   ar
    11     2     3   ar
    12     3     4   ar
    13     4     5   ar
    14     5    16    1
    15    16    17    2
    16    16    18   am
    17    18    20    1
    18    20    21   ar
    19    21    22   ar
    20    22    23   ar
    21    23    24   ar
    22    24    26    1
    23    26    27    1
    24    26    28    1
    25    26    29    1
    26    24    25   ar
    27     5     6   ar
    28     6     7   ar
    29     7     8   ar
    30     8     9   ar
    31     9    10    1
    32     7    11    1
    33    11    12    1
    34    12    13    1
    35    12    14    1
    36    12    15    1
    37    37    38   ar
    38    38    39    1
    39    38    32   ar
    40     9     1   ar
    41     8     3   ar
    42    25    20   ar
    43    15     6    1
    44    30    31    1
    45    18    19    1
@<TRIPOS>MOLECULE
*****
 41 45 0 0 0
SMALL
GASTEIGER

@<TRIPOS>ATOM
      1 C         -24.0822   51.6561  -10.4665 C.ar    1  UNL1        0.2018
      2 N         -24.1125   51.7416   -9.1096 N.ar    1  UNL1       -0.2135
      3 C         -25.4037   51.5056   -8.8201 C.ar    1  UNL1        0.0999
      4 C         -25.9880   51.4376   -7.5487 C.ar    1  UNL1        0.0282
      5 C         -27.3687   51.1267   -7.4563 C.ar    1  UNL1        0.0888
      6 C         -28.0738   50.8689   -8.6575 C.ar    1  UNL1        0.1401
      7 C         -27.4758   50.9547   -9.8937 C.ar    1  UNL1        0.0327
      8 C         -26.1189   51.2807   -9.9660 C.ar    1  UNL1        0.0789
      9 N         -25.2943   51.3844  -11.0252 N.ar    1  UNL1       -0.2977
     10 C         -25.6094   51.1732  -12.4377 C.3     1  UNL1        0.1332
     11 C         -28.4544   50.6057  -10.9599 C.3     1  UNL1        0.0709
     12 C         -29.7407   50.2546  -10.1422 C.3     1  UNL1        0.1375
     13 C         -30.1414   48.7861  -10.3370 C.3     1  UNL1        0.0439
     14 C         -30.9086   51.1808  -10.5075 C.3     1  UNL1        0.0439
     15 O         -29.3876   50.4649   -8.7738 O.3     1  UNL1       -0.4824
     16 C         -28.0207   51.0347   -6.1327 C.2     1  UNL1        0.2525
     17 O         -27.5797   51.7418   -5.1863 O.2     1  UNL1       -0.2697
     18 N         -29.1393   50.1539   -5.9202 N.am    1  UNL1       -0.2803
     19 H         -29.4638   49.5521   -6.7090 H       1  UNL1        0.1552
     20 C         -29.7998   49.9834   -4.6551 C.ar    1  UNL1        0.0505
     21 C         -30.9446   50.7259   -4.3194 C.ar    1  UNL1        0.0147
     22 C         -31.5722   50.5317   -3.0872 C.ar    1  UNL1        0.0012
     23 C         -31.0805   49.5815   -2.1895 C.ar    1  UNL1        0.0039
     24 C         -29.9686   48.7921   -2.5289 C.ar    1  UNL1        0.0726
     25 C         -29.3260   49.0117   -3.7606 C.ar    1  UNL1        0.0185
     26 C         -29.4130   47.7912   -1.5471 C.3     1  UNL1        0.4186
     27 F         -28.1687   47.3445   -1.9573 F       1  UNL1       -0.1659
     28 F         -29.2904   48.3900   -0.3073 F       1  UNL1       -0.1659
     29 F         -30.2510   46.6949   -1.4375 F       1  UNL1       -0.1659
     30 N         -22.8635   51.7625  -11.2187 N.pl3   1  UNL1       -0.2815
     31 H         -22.7284   51.1454  -12.0489 H       1  UNL1        0.1551
     32 C         -19.3746   52.7555  -10.2165 C.ar    1  UNL1       -0.0103
     33 C         -19.5772   54.1128   -9.9205 C.ar    1  UNL1       -0.0010
     34 C         -20.8373   54.6902  -10.0665 C.ar    1  UNL1        0.0307
     35 C         -21.9179   53.9203  -10.4951 C.ar    1  UNL1        0.1543
     36 F         -23.1229   54.5183  -10.6736 F       1  UNL1       -0.2028
     37 C         -21.7494   52.5513  -10.7692 C.ar    1  UNL1        0.0886
     38 C         -20.4716   51.9669  -10.6367 C.ar    1  UNL1        0.0693
     39 CL        -20.2694   50.2403  -10.9540 Cl      1  UNL1       -0.0812
     40 C         -17.2464   52.0872  -11.3457 C.3     1  UNL1        0.0051
     41 C         -17.9980   52.1651  -10.0204 C.3     1  UNL1        0.0273
@<TRIPOS>BOND
     1    40    41    1
     2    41    32    1
     3    32    33   ar
     4    33    34   ar
     5    34    35   ar
     6    35    36    1
     7    35    37   ar
     8    37    30    1
     9    30     1    1
    10     1     2   ar
    11     2     3   ar
    12     3     4   ar
    13     4     5   ar
    14     5    16    1
    15    16    17    2
    16    16    18   am
    17    18    20    1
    18    20    21   ar
    19    21    22   ar
    20    22    23   ar
    21    23    24   ar
    22    24    26    1
    23    26    27    1
    24    26    28    1
    25    26    29    1
    26    24    25   ar
    27     5     6   ar
    28     6     7   ar
    29     7     8   ar
    30     8     9   ar
    31     9    10    1
    32     7    11    1
    33    11    12    1
    34    12    13    1
    35    12    14    1
    36    12    15    1
    37    37    38   ar
    38    38    39    1
    39    38    32   ar
    40     9     1   ar
    41     8     3   ar
    42    25    20   ar
    43    15     6    1
    44    30    31    1
    45    18    19    1
