@<TRIPOS>MOLECULE
*****
 40 44 0 0 0
SMALL
GASTEIGER

@<TRIPOS>ATOM
      1 C         -20.7965   -8.1713   -9.6624 C.2     1  UNL1        0.2506
      2 O         -20.9118   -7.0513   -9.0937 O.2     1  UNL1       -0.2699
      3 N         -21.7306   -8.5516  -10.6951 N.am    1  UNL1       -0.2675
      4 C         -21.1964   -9.1520  -11.9283 C.3     1  UNL1        0.1413
      5 C         -21.6953  -10.5879  -12.1123 C.3     1  UNL1        0.2268
      6 O         -23.0965  -10.7110  -11.8824 O.3     1  UNL1       -0.4739
      7 C         -24.0121   -9.7573  -12.3262 C.ar    1  UNL1        0.1362
      8 C         -24.9395  -10.1146  -13.3077 C.ar    1  UNL1        0.0366
      9 C         -25.8491   -9.1759  -13.7948 C.ar    1  UNL1        0.0031
     10 C         -25.8543   -7.8640  -13.2938 C.ar    1  UNL1       -0.0000
     11 C         -24.9365   -7.5150  -12.2869 C.ar    1  UNL1        0.0004
     12 C         -24.0062   -8.4500  -11.7960 C.ar    1  UNL1        0.0322
     13 C         -23.1312   -8.0708  -10.6030 C.3     1  UNL1        0.1304
     14 C         -26.8244   -6.8641  -13.8078 C.ar    1  UNL1        0.0015
     15 C         -26.4090   -5.5307  -14.0816 C.ar    1  UNL1        0.0016
     16 C         -27.3216   -4.5763  -14.5689 C.ar    1  UNL1        0.0206
     17 C         -28.6363   -4.9815  -14.7720 C.ar    1  UNL1        0.0985
     18 N         -29.6654   -4.2430  -15.2246 N.ar    1  UNL1       -0.2241
     19 C         -30.6963   -5.1289  -15.2232 C.ar    1  UNL1        0.1750
     20 N         -30.3462   -6.3651  -14.7935 N.ar    1  UNL1       -0.3349
     21 C         -29.0424   -6.2538  -14.5139 C.ar    1  UNL1        0.0757
     22 C         -28.1744   -7.2294  -14.0317 C.ar    1  UNL1        0.0185
     23 H         -30.9557   -7.2081  -14.7028 H       1  UNL1        0.1675
     24 C         -19.2686   -9.1360   -7.8916 C.ar    1  UNL1        0.0503
     25 C         -18.2809  -10.0759   -7.5366 C.ar    1  UNL1        0.0328
     26 C         -17.7470  -10.9508   -8.4898 C.ar    1  UNL1        0.1069
     27 C         -18.2033  -10.8997   -9.8096 C.ar    1  UNL1        0.0186
     28 C         -19.1809   -9.9765  -10.1778 C.ar    1  UNL1        0.0071
     29 C         -19.7199   -9.0897   -9.2336 C.ar    1  UNL1        0.0667
     30 S         -16.5276  -12.1286   -8.0143 S.O2    1  UNL1        0.0105
     31 C         -15.2167  -12.1347   -9.2155 C.3     1  UNL1        0.1816
     32 O         -15.9674  -11.7750   -6.6650 O.2     1  UNL1       -0.1686
     33 O         -17.1485  -13.4951   -7.9361 O.2     1  UNL1       -0.1686
     34 N         -19.7711   -8.1962   -6.9178 N.pl3   1  UNL1       -0.3325
     35 H         -20.6361   -7.6531   -7.1375 H       1  UNL1        0.1468
     36 C         -19.9157   -8.6796   -4.5083 C.3     1  UNL1        0.0229
     37 C         -19.1543   -7.9531   -5.6125 C.3     1  UNL1        0.0871
     38 C         -23.7969   -8.5584   -9.3012 C.3     1  UNL1        0.1615
     39 O         -23.4772   -7.7102   -8.2331 O.3     1  UNL1       -0.3799
     40 H         -23.9419   -8.0800   -7.4382 H       1  UNL1        0.2105
@<TRIPOS>BOND
     1    36    37    1
     2    37    34    1
     3    34    24    1
     4    24    25   ar
     5    25    26   ar
     6    26    30    1
     7    30    31    1
     8    30    32    2
     9    30    33    2
    10    26    27   ar
    11    27    28   ar
    12    28    29   ar
    13    29     1    1
    14     1     2    2
    15     1     3   am
    16     3     4    1
    17     4     5    1
    18     5     6    1
    19     6     7    1
    20     7     8   ar
    21     8     9   ar
    22     9    10   ar
    23    10    14    1
    24    14    15   ar
    25    15    16   ar
    26    16    17   ar
    27    17    18   ar
    28    18    19   ar
    29    19    20   ar
    30    20    21   ar
    31    21    22   ar
    32    10    11   ar
    33    11    12   ar
    34    12    13    1
    35    13    38    1
    36    38    39    1
    37    29    24   ar
    38    13     3    1
    39    12     7   ar
    40    22    14   ar
    41    21    17   ar
    42    34    35    1
    43    20    23    1
    44    39    40    1
@<TRIPOS>MOLECULE
*****
 40 44 0 0 0
SMALL
GASTEIGER

@<TRIPOS>ATOM
      1 C         -21.6524  -10.2789  -12.3288 C.2     1  UNL1        0.2506
      2 O         -21.8445  -10.9277  -13.3934 O.2     1  UNL1       -0.2699
      3 N         -22.4410   -9.1017  -12.0533 N.am    1  UNL1       -0.2675
      4 C         -23.0013   -8.9415  -10.7017 C.3     1  UNL1        0.1413
      5 C         -22.4326   -7.7025  -10.0044 C.3     1  UNL1        0.2268
      6 O         -22.4321   -6.5545  -10.8491 O.3     1  UNL1       -0.4739
      7 C         -23.4926   -6.2571  -11.7044 C.ar    1  UNL1        0.1362
      8 C         -24.2516   -5.1087  -11.4676 C.ar    1  UNL1        0.0366
      9 C         -25.3376   -4.7988  -12.2865 C.ar    1  UNL1        0.0031
     10 C         -25.6722   -5.6289  -13.3686 C.ar    1  UNL1       -0.0000
     11 C         -24.8897   -6.7702  -13.6199 C.ar    1  UNL1        0.0004
     12 C         -23.7991   -7.0997  -12.7937 C.ar    1  UNL1        0.0322
     13 C         -22.8912   -8.2620  -13.1906 C.3     1  UNL1        0.1304
     14 C         -26.8251   -5.2988  -14.2442 C.ar    1  UNL1        0.0015
     15 C         -28.0790   -5.9465  -14.0606 C.ar    1  UNL1        0.0016
     16 C         -29.1773   -5.6400  -14.8858 C.ar    1  UNL1        0.0206
     17 C         -28.9935   -4.6865  -15.8813 C.ar    1  UNL1        0.0985
     18 N         -29.8957   -4.2453  -16.7761 N.ar    1  UNL1       -0.2241
     19 C         -29.1872   -3.3354  -17.4956 C.ar    1  UNL1        0.1750
     20 N         -27.9034   -3.2020  -17.0841 N.ar    1  UNL1       -0.3349
     21 C         -27.7992   -4.0616  -16.0639 C.ar    1  UNL1        0.0757
     22 C         -26.6874   -4.3335  -15.2716 C.ar    1  UNL1        0.0185
     23 H         -27.1676   -2.5726  -17.4749 H       1  UNL1        0.1675
     24 C         -20.1573  -12.0691  -11.3485 C.ar    1  UNL1        0.0503
     25 C         -19.1039  -12.4136  -10.4786 C.ar    1  UNL1        0.0328
     26 C         -18.4967  -11.4471   -9.6685 C.ar    1  UNL1        0.1069
     27 C         -18.9328  -10.1209   -9.7270 C.ar    1  UNL1        0.0186
     28 C         -19.9732   -9.7624  -10.5829 C.ar    1  UNL1        0.0071
     29 C         -20.5946  -10.7225  -11.3956 C.ar    1  UNL1        0.0667
     30 S         -17.1693  -11.9019   -8.6048 S.O2    1  UNL1        0.0105
     31 C         -17.3840  -11.1118   -7.0265 C.3     1  UNL1        0.1816
     32 O         -17.1456  -13.3932   -8.4181 O.2     1  UNL1       -0.1686
     33 O         -15.8642  -11.4708   -9.2129 O.2     1  UNL1       -0.1686
     34 N         -20.8194  -13.0815  -12.1363 N.pl3   1  UNL1       -0.3325
     35 H         -21.7945  -13.3608  -11.8859 H       1  UNL1        0.1468
     36 C         -21.1957  -13.7898  -14.4638 C.3     1  UNL1        0.0229
     37 C         -20.2191  -13.7493  -13.2926 C.3     1  UNL1        0.0871
     38 C         -21.6876   -7.7249  -13.9896 C.3     1  UNL1        0.1615
     39 O         -20.6998   -7.2324  -13.1269 O.3     1  UNL1       -0.3799
     40 H         -19.9608   -6.9130  -13.7069 H       1  UNL1        0.2105
@<TRIPOS>BOND
     1    36    37    1
     2    37    34    1
     3    34    24    1
     4    24    25   ar
     5    25    26   ar
     6    26    30    1
     7    30    31    1
     8    30    32    2
     9    30    33    2
    10    26    27   ar
    11    27    28   ar
    12    28    29   ar
    13    29     1    1
    14     1     2    2
    15     1     3   am
    16     3     4    1
    17     4     5    1
    18     5     6    1
    19     6     7    1
    20     7     8   ar
    21     8     9   ar
    22     9    10   ar
    23    10    14    1
    24    14    15   ar
    25    15    16   ar
    26    16    17   ar
    27    17    18   ar
    28    18    19   ar
    29    19    20   ar
    30    20    21   ar
    31    21    22   ar
    32    10    11   ar
    33    11    12   ar
    34    12    13    1
    35    13    38    1
    36    38    39    1
    37    29    24   ar
    38    13     3    1
    39    12     7   ar
    40    22    14   ar
    41    21    17   ar
    42    34    35    1
    43    20    23    1
    44    39    40    1
@<TRIPOS>MOLECULE
*****
 40 44 0 0 0
SMALL
GASTEIGER

@<TRIPOS>ATOM
      1 C         -20.9570   -8.8243  -12.0610 C.2     1  UNL1        0.2506
      2 O         -20.3838   -8.1468  -12.9574 O.2     1  UNL1       -0.2699
      3 N         -22.3898   -8.7430  -11.9055 N.am    1  UNL1       -0.2675
      4 C         -23.1421   -9.9963  -11.7327 C.3     1  UNL1        0.1413
      5 C         -23.8360  -10.0479  -10.3688 C.3     1  UNL1        0.2268
      6 O         -24.5137   -8.8336  -10.0564 O.3     1  UNL1       -0.4739
      7 C         -25.2400   -8.1185  -11.0082 C.ar    1  UNL1        0.1362
      8 C         -26.6246   -8.0085  -10.8608 C.ar    1  UNL1        0.0366
      9 C         -27.3840   -7.3258  -11.8111 C.ar    1  UNL1        0.0031
     10 C         -26.7644   -6.7270  -12.9200 C.ar    1  UNL1       -0.0000
     11 C         -25.3670   -6.8171  -13.0514 C.ar    1  UNL1        0.0004
     12 C         -24.5917   -7.5134  -12.1055 C.ar    1  UNL1        0.0322
     13 C         -23.0689   -7.4592  -12.2088 C.3     1  UNL1        0.1304
     14 C         -27.5700   -5.9960  -13.9307 C.ar    1  UNL1        0.0015
     15 C         -28.9458   -6.3078  -14.1192 C.ar    1  UNL1        0.0016
     16 C         -29.7172   -5.6202  -15.0749 C.ar    1  UNL1        0.0206
     17 C         -29.0896   -4.6307  -15.8238 C.ar    1  UNL1        0.0985
     18 N         -29.6285   -3.8573  -16.7833 N.ar    1  UNL1       -0.2241
     19 C         -28.5808   -3.0828  -17.1707 C.ar    1  UNL1        0.1750
     20 N         -27.4355   -3.3462  -16.4968 N.ar    1  UNL1       -0.3349
     21 C         -27.7755   -4.3251  -15.6502 C.ar    1  UNL1        0.0757
     22 C         -26.9757   -4.9790  -14.7172 C.ar    1  UNL1        0.0185
     23 H         -26.5040   -2.8889  -16.6134 H       1  UNL1        0.1675
     24 C         -20.0764  -11.0748  -11.3119 C.ar    1  UNL1        0.0503
     25 C         -19.2321  -11.8136  -10.4597 C.ar    1  UNL1        0.0328
     26 C         -18.4680  -11.1748   -9.4763 C.ar    1  UNL1        0.1069
     27 C         -18.5347   -9.7856   -9.3409 C.ar    1  UNL1        0.0186
     28 C         -19.3642   -9.0390  -10.1765 C.ar    1  UNL1        0.0071
     29 C         -20.1400   -9.6676  -11.1621 C.ar    1  UNL1        0.0667
     30 S         -17.4065  -12.1207   -8.4377 S.O2    1  UNL1        0.0105
     31 C         -15.7396  -12.0128   -9.0470 C.3     1  UNL1        0.1816
     32 O         -17.4593  -11.5950   -7.0305 O.2     1  UNL1       -0.1686
     33 O         -17.8517  -13.5562   -8.4337 O.2     1  UNL1       -0.1686
     34 N         -20.9073  -11.7455  -12.2835 N.pl3   1  UNL1       -0.3325
     35 H         -21.7379  -11.2445  -12.6715 H       1  UNL1        0.1468
     36 C         -21.1552  -13.2429  -14.2217 C.3     1  UNL1        0.0229
     37 C         -20.6594  -13.0979  -12.7864 C.3     1  UNL1        0.0871
     38 C         -22.5324   -6.3264  -11.3118 C.3     1  UNL1        0.1615
     39 O         -22.5238   -6.7205   -9.9675 O.3     1  UNL1       -0.3799
     40 H         -22.1635   -5.9502   -9.4562 H       1  UNL1        0.2105
@<TRIPOS>BOND
     1    36    37    1
     2    37    34    1
     3    34    24    1
     4    24    25   ar
     5    25    26   ar
     6    26    30    1
     7    30    31    1
     8    30    32    2
     9    30    33    2
    10    26    27   ar
    11    27    28   ar
    12    28    29   ar
    13    29     1    1
    14     1     2    2
    15     1     3   am
    16     3     4    1
    17     4     5    1
    18     5     6    1
    19     6     7    1
    20     7     8   ar
    21     8     9   ar
    22     9    10   ar
    23    10    14    1
    24    14    15   ar
    25    15    16   ar
    26    16    17   ar
    27    17    18   ar
    28    18    19   ar
    29    19    20   ar
    30    20    21   ar
    31    21    22   ar
    32    10    11   ar
    33    11    12   ar
    34    12    13    1
    35    13    38    1
    36    38    39    1
    37    29    24   ar
    38    13     3    1
    39    12     7   ar
    40    22    14   ar
    41    21    17   ar
    42    34    35    1
    43    20    23    1
    44    39    40    1
@<TRIPOS>MOLECULE
*****
 40 44 0 0 0
SMALL
GASTEIGER

@<TRIPOS>ATOM
      1 C         -22.3424   -8.5155  -10.9169 C.2     1  UNL1        0.2506
      2 O         -23.2741   -8.2425  -10.1116 O.2     1  UNL1       -0.2699
      3 N         -22.4289   -8.0780  -12.2898 N.am    1  UNL1       -0.2675
      4 C         -21.2374   -7.4668  -12.9006 C.3     1  UNL1        0.1413
      5 C         -20.7206   -8.3024  -14.0751 C.3     1  UNL1        0.2268
      6 O         -21.7656   -8.7110  -14.9540 O.3     1  UNL1       -0.4739
      7 C         -22.8145   -7.8639  -15.3105 C.ar    1  UNL1        0.1362
      8 C         -22.9283   -7.4499  -16.6396 C.ar    1  UNL1        0.0366
      9 C         -23.9482   -6.5789  -17.0231 C.ar    1  UNL1        0.0031
     10 C         -24.8828   -6.1194  -16.0810 C.ar    1  UNL1       -0.0000
     11 C         -24.7808   -6.5592  -14.7490 C.ar    1  UNL1        0.0004
     12 C         -23.7493   -7.4283  -14.3477 C.ar    1  UNL1        0.0322
     13 C         -23.7650   -7.9948  -12.9295 C.3     1  UNL1        0.1304
     14 C         -25.9719   -5.1955  -16.4876 C.ar    1  UNL1        0.0015
     15 C         -26.9593   -4.7866  -15.5477 C.ar    1  UNL1        0.0016
     16 C         -27.9953   -3.9112  -15.9242 C.ar    1  UNL1        0.0206
     17 C         -28.0185   -3.4631  -17.2405 C.ar    1  UNL1        0.0985
     18 N         -28.9086   -2.6323  -17.8123 N.ar    1  UNL1       -0.2241
     19 C         -28.4583   -2.5416  -19.0916 C.ar    1  UNL1        0.1750
     20 N         -27.3425   -3.2737  -19.3252 N.ar    1  UNL1       -0.3349
     21 C         -27.0788   -3.8477  -18.1456 C.ar    1  UNL1        0.0757
     22 C         -26.0374   -4.7110  -17.8169 C.ar    1  UNL1        0.0185
     23 H         -26.8130   -3.3662  -20.2203 H       1  UNL1        0.1675
     24 C         -20.8242  -10.5348  -11.0545 C.ar    1  UNL1        0.0503
     25 C         -19.6793  -11.2131  -10.5920 C.ar    1  UNL1        0.0328
     26 C         -18.9122  -10.6939   -9.5427 C.ar    1  UNL1        0.1069
     27 C         -19.2791   -9.4831   -8.9496 C.ar    1  UNL1        0.0186
     28 C         -20.4084   -8.7981   -9.3956 C.ar    1  UNL1        0.0071
     29 C         -21.1896   -9.3107  -10.4423 C.ar    1  UNL1        0.0667
     30 S         -17.4751  -11.5530   -8.9977 S.O2    1  UNL1        0.0105
     31 C         -17.3627  -11.4455   -7.2265 C.3     1  UNL1        0.1816
     32 O         -17.5513  -12.9974   -9.4069 O.2     1  UNL1       -0.1686
     33 O         -16.2528  -10.9388   -9.6204 O.2     1  UNL1       -0.1686
     34 N         -21.6450  -11.1058  -12.0958 N.pl3   1  UNL1       -0.3325
     35 H         -22.4842  -10.5781  -12.4257 H       1  UNL1        0.1468
     36 C         -21.4438  -12.2522  -14.2650 C.3     1  UNL1        0.0229
     37 C         -21.3754  -12.3889  -12.7472 C.3     1  UNL1        0.0871
     38 C         -24.4613   -9.3699  -12.9326 C.3     1  UNL1        0.1615
     39 O         -23.8323  -10.2421  -13.8304 O.3     1  UNL1       -0.3799
     40 H         -24.3265  -11.1006  -13.7735 H       1  UNL1        0.2105
@<TRIPOS>BOND
     1    36    37    1
     2    37    34    1
     3    34    24    1
     4    24    25   ar
     5    25    26   ar
     6    26    30    1
     7    30    31    1
     8    30    32    2
     9    30    33    2
    10    26    27   ar
    11    27    28   ar
    12    28    29   ar
    13    29     1    1
    14     1     2    2
    15     1     3   am
    16     3     4    1
    17     4     5    1
    18     5     6    1
    19     6     7    1
    20     7     8   ar
    21     8     9   ar
    22     9    10   ar
    23    10    14    1
    24    14    15   ar
    25    15    16   ar
    26    16    17   ar
    27    17    18   ar
    28    18    19   ar
    29    19    20   ar
    30    20    21   ar
    31    21    22   ar
    32    10    11   ar
    33    11    12   ar
    34    12    13    1
    35    13    38    1
    36    38    39    1
    37    29    24   ar
    38    13     3    1
    39    12     7   ar
    40    22    14   ar
    41    21    17   ar
    42    34    35    1
    43    20    23    1
    44    39    40    1
@<TRIPOS>MOLECULE
*****
 40 44 0 0 0
SMALL
GASTEIGER

@<TRIPOS>ATOM
      1 C         -23.0298   -7.8456  -10.4989 C.2     1  UNL1        0.2506
      2 O         -24.2850   -7.8697  -10.3753 O.2     1  UNL1       -0.2699
      3 N         -22.4395   -7.7567  -11.8132 N.am    1  UNL1       -0.2675
      4 C         -21.3342   -6.8061  -12.0156 C.3     1  UNL1        0.1413
      5 C         -20.0391   -7.5281  -12.3974 C.3     1  UNL1        0.2268
      6 O         -20.2425   -8.5141  -13.4062 O.3     1  UNL1       -0.4739
      7 C         -21.0879   -8.3040  -14.4952 C.ar    1  UNL1        0.1362
      8 C         -20.5372   -8.2396  -15.7772 C.ar    1  UNL1        0.0366
      9 C         -21.3514   -8.0006  -16.8843 C.ar    1  UNL1        0.0031
     10 C         -22.7371   -7.8370  -16.7260 C.ar    1  UNL1       -0.0000
     11 C         -23.2917   -7.9286  -15.4368 C.ar    1  UNL1        0.0004
     12 C         -22.4789   -8.1575  -14.3109 C.ar    1  UNL1        0.0322
     13 C         -23.1392   -8.3964  -12.9546 C.3     1  UNL1        0.1304
     14 C         -23.6065   -7.5867  -17.9035 C.ar    1  UNL1        0.0015
     15 C         -24.2825   -6.3428  -18.0497 C.ar    1  UNL1        0.0016
     16 C         -25.1085   -6.0968  -19.1624 C.ar    1  UNL1        0.0206
     17 C         -25.2392   -7.1076  -20.1084 C.ar    1  UNL1        0.0985
     18 N         -25.9710   -7.0902  -21.2370 N.ar    1  UNL1       -0.2241
     19 C         -25.7361   -8.3192  -21.7680 C.ar    1  UNL1        0.1750
     20 N         -24.9009   -9.0804  -21.0208 N.ar    1  UNL1       -0.3349
     21 C         -24.5966   -8.2994  -19.9778 C.ar    1  UNL1        0.0757
     22 C         -23.7704   -8.5853  -18.8946 C.ar    1  UNL1        0.0185
     23 H         -24.5723  -10.0520  -21.2167 H       1  UNL1        0.1675
     24 C         -22.6079   -8.6494   -8.1374 C.ar    1  UNL1        0.0503
     25 C         -21.7298   -8.7537   -7.0406 C.ar    1  UNL1        0.0328
     26 C         -20.4594   -8.1675   -7.0800 C.ar    1  UNL1        0.1069
     27 C         -20.0504   -7.4765   -8.2235 C.ar    1  UNL1        0.0186
     28 C         -20.9063   -7.3646   -9.3183 C.ar    1  UNL1        0.0071
     29 C         -22.1847   -7.9421   -9.2894 C.ar    1  UNL1        0.0667
     30 S         -19.3750   -8.3300   -5.7023 S.O2    1  UNL1        0.0105
     31 C         -18.1609   -9.5804   -6.0544 C.3     1  UNL1        0.1816
     32 O         -18.6830   -7.0230   -5.4336 O.2     1  UNL1       -0.1686
     33 O         -20.1625   -8.7188   -4.4826 O.2     1  UNL1       -0.1686
     34 N         -23.9390   -9.2040   -8.0672 N.pl3   1  UNL1       -0.3325
     35 H         -24.7256   -8.5943   -7.7497 H       1  UNL1        0.1468
     36 C         -25.7418  -10.6896   -8.8440 C.3     1  UNL1        0.0229
     37 C         -24.2778  -10.5816   -8.4291 C.3     1  UNL1        0.0871
     38 C         -23.3030   -9.9112  -12.7219 C.3     1  UNL1        0.1615
     39 O         -22.0913  -10.4840  -12.3142 O.3     1  UNL1       -0.3799
     40 H         -22.2742  -11.4498  -12.1786 H       1  UNL1        0.2105
@<TRIPOS>BOND
     1    36    37    1
     2    37    34    1
     3    34    24    1
     4    24    25   ar
     5    25    26   ar
     6    26    30    1
     7    30    31    1
     8    30    32    2
     9    30    33    2
    10    26    27   ar
    11    27    28   ar
    12    28    29   ar
    13    29     1    1
    14     1     2    2
    15     1     3   am
    16     3     4    1
    17     4     5    1
    18     5     6    1
    19     6     7    1
    20     7     8   ar
    21     8     9   ar
    22     9    10   ar
    23    10    14    1
    24    14    15   ar
    25    15    16   ar
    26    16    17   ar
    27    17    18   ar
    28    18    19   ar
    29    19    20   ar
    30    20    21   ar
    31    21    22   ar
    32    10    11   ar
    33    11    12   ar
    34    12    13    1
    35    13    38    1
    36    38    39    1
    37    29    24   ar
    38    13     3    1
    39    12     7   ar
    40    22    14   ar
    41    21    17   ar
    42    34    35    1
    43    20    23    1
    44    39    40    1
@<TRIPOS>MOLECULE
*****
 40 44 0 0 0
SMALL
GASTEIGER

@<TRIPOS>ATOM
      1 C         -22.2237   -9.3302  -11.3964 C.2     1  UNL1        0.2506
      2 O         -23.1869   -9.2116  -10.5905 O.2     1  UNL1       -0.2699
      3 N         -22.2866   -8.6911  -12.6892 N.am    1  UNL1       -0.2675
      4 C         -21.1003   -7.9582  -13.1603 C.3     1  UNL1        0.1413
      5 C         -20.5216   -8.5887  -14.4300 C.3     1  UNL1        0.2268
      6 O         -21.5264   -8.8897  -15.3949 O.3     1  UNL1       -0.4739
      7 C         -22.5937   -8.0303  -15.6537 C.ar    1  UNL1        0.1362
      8 C         -22.6842   -7.4218  -16.9077 C.ar    1  UNL1        0.0366
      9 C         -23.7226   -6.5337  -17.1884 C.ar    1  UNL1        0.0031
     10 C         -24.6989   -6.2518  -16.2192 C.ar    1  UNL1       -0.0000
     11 C         -24.6195   -6.8864  -14.9666 C.ar    1  UNL1        0.0004
     12 C         -23.5700   -7.7751  -14.6677 C.ar    1  UNL1        0.0322
     13 C         -23.6061   -8.5516  -13.3531 C.3     1  UNL1        0.1304
     14 C         -25.8076   -5.3100  -16.5171 C.ar    1  UNL1        0.0015
     15 C         -26.7157   -4.9180  -15.4937 C.ar    1  UNL1        0.0016
     16 C         -27.7695   -4.0258  -15.7669 C.ar    1  UNL1        0.0206
     17 C         -27.8902   -3.5440  -17.0658 C.ar    1  UNL1        0.0985
     18 N         -28.8141   -2.6925  -17.5460 N.ar    1  UNL1       -0.2241
     19 C         -28.4632   -2.5725  -18.8537 C.ar    1  UNL1        0.1750
     20 N         -27.3756   -3.3064  -19.1912 N.ar    1  UNL1       -0.3349
     21 C         -27.0268   -3.9123  -18.0503 C.ar    1  UNL1        0.0757
     22 C         -25.9712   -4.7912  -17.8249 C.ar    1  UNL1        0.0185
     23 H         -26.9177   -3.3799  -20.1267 H       1  UNL1        0.1675
     24 C         -20.0200   -9.6408  -10.1930 C.ar    1  UNL1        0.0503
     25 C         -18.9673  -10.4960   -9.8117 C.ar    1  UNL1        0.0328
     26 C         -18.9387  -11.8307  -10.2321 C.ar    1  UNL1        0.1069
     27 C         -19.9703  -12.3270  -11.0334 C.ar    1  UNL1        0.0186
     28 C         -21.0204  -11.4949  -11.4189 C.ar    1  UNL1        0.0071
     29 C         -21.0579  -10.1534  -11.0097 C.ar    1  UNL1        0.0667
     30 S         -17.6208  -12.8824   -9.7248 S.O2    1  UNL1        0.0105
     31 C         -16.2625  -11.8880   -9.1525 C.3     1  UNL1        0.1816
     32 O         -18.0803  -13.7868   -8.6156 O.2     1  UNL1       -0.1686
     33 O         -17.1749  -13.7287  -10.8841 O.2     1  UNL1       -0.1686
     34 N         -20.0124   -8.2499   -9.8065 N.pl3   1  UNL1       -0.3325
     35 H         -19.6612   -7.5376  -10.4852 H       1  UNL1        0.1468
     36 C         -19.5859   -8.2441   -7.3819 C.3     1  UNL1        0.0229
     37 C         -20.4832   -7.7515   -8.5129 C.3     1  UNL1        0.0871
     38 C         -24.2537   -9.9305  -13.5877 C.3     1  UNL1        0.1615
     39 O         -23.3790  -10.7775  -14.2807 O.3     1  UNL1       -0.3799
     40 H         -23.8574  -11.6401  -14.3884 H       1  UNL1        0.2105
@<TRIPOS>BOND
     1    36    37    1
     2    37    34    1
     3    34    24    1
     4    24    25   ar
     5    25    26   ar
     6    26    30    1
     7    30    31    1
     8    30    32    2
     9    30    33    2
    10    26    27   ar
    11    27    28   ar
    12    28    29   ar
    13    29     1    1
    14     1     2    2
    15     1     3   am
    16     3     4    1
    17     4     5    1
    18     5     6    1
    19     6     7    1
    20     7     8   ar
    21     8     9   ar
    22     9    10   ar
    23    10    14    1
    24    14    15   ar
    25    15    16   ar
    26    16    17   ar
    27    17    18   ar
    28    18    19   ar
    29    19    20   ar
    30    20    21   ar
    31    21    22   ar
    32    10    11   ar
    33    11    12   ar
    34    12    13    1
    35    13    38    1
    36    38    39    1
    37    29    24   ar
    38    13     3    1
    39    12     7   ar
    40    22    14   ar
    41    21    17   ar
    42    34    35    1
    43    20    23    1
    44    39    40    1
@<TRIPOS>MOLECULE
*****
 40 44 0 0 0
SMALL
GASTEIGER

@<TRIPOS>ATOM
      1 C         -24.9434   -6.7543  -12.5622 C.2     1  UNL1        0.2506
      2 O         -24.3551   -5.9267  -11.8136 O.2     1  UNL1       -0.2699
      3 N         -24.4141   -8.0888  -12.7126 N.am    1  UNL1       -0.2675
      4 C         -25.3525   -9.2205  -12.6414 C.3     1  UNL1        0.1413
      5 C         -25.3998   -9.9911  -13.9637 C.3     1  UNL1        0.2268
      6 O         -24.1006  -10.2548  -14.4869 O.3     1  UNL1       -0.4739
      7 C         -23.0324  -10.6351  -13.6751 C.ar    1  UNL1        0.1362
      8 C         -22.4914  -11.9143  -13.8233 C.ar    1  UNL1        0.0366
      9 C         -21.4423  -12.3364  -13.0065 C.ar    1  UNL1        0.0031
     10 C         -20.9065  -11.4754  -12.0351 C.ar    1  UNL1       -0.0000
     11 C         -21.4362  -10.1789  -11.9064 C.ar    1  UNL1        0.0004
     12 C         -22.5024   -9.7459  -12.7166 C.ar    1  UNL1        0.0322
     13 C         -22.9452   -8.2860  -12.6436 C.3     1  UNL1        0.1304
     14 C         -19.7870  -11.9209  -11.1673 C.ar    1  UNL1        0.0015
     15 C         -19.2445  -13.2295  -11.3048 C.ar    1  UNL1        0.0016
     16 C         -18.1833  -13.6604  -10.4865 C.ar    1  UNL1        0.0206
     17 C         -17.6872  -12.7659   -9.5444 C.ar    1  UNL1        0.0985
     18 N         -16.6884  -12.9647   -8.6656 N.ar    1  UNL1       -0.2241
     19 C         -16.6302  -11.7800   -8.0017 C.ar    1  UNL1        0.1750
     20 N         -17.5409  -10.8739   -8.4317 N.ar    1  UNL1       -0.3349
     21 C         -18.1987  -11.5130   -9.4061 C.ar    1  UNL1        0.0757
     22 C         -19.2470  -11.0454  -10.1936 C.ar    1  UNL1        0.0185
     23 H         -17.6920   -9.9019   -8.0815 H       1  UNL1        0.1675
     24 C         -27.4478   -6.7551  -12.9211 C.ar    1  UNL1        0.0503
     25 C         -28.5621   -6.2631  -13.6290 C.ar    1  UNL1        0.0328
     26 C         -28.3988   -5.3679  -14.6924 C.ar    1  UNL1        0.1069
     27 C         -27.1159   -4.9481  -15.0538 C.ar    1  UNL1        0.0186
     28 C         -26.0023   -5.4242  -14.3633 C.ar    1  UNL1        0.0071
     29 C         -26.1517   -6.3267  -13.2995 C.ar    1  UNL1        0.0667
     30 S         -29.8103   -4.7539  -15.5473 S.O2    1  UNL1        0.0105
     31 C         -29.2784   -3.7411  -16.9085 C.3     1  UNL1        0.1816
     32 O         -30.6359   -5.8972  -16.0678 O.2     1  UNL1       -0.1686
     33 O         -30.6538   -3.9375  -14.6088 O.2     1  UNL1       -0.1686
     34 N         -27.6188   -7.7245  -11.8651 N.pl3   1  UNL1       -0.3325
     35 H         -27.7563   -8.7290  -12.1172 H       1  UNL1        0.1468
     36 C         -26.8599   -8.4750   -9.6467 C.3     1  UNL1        0.0229
     37 C         -27.5990   -7.4002  -10.4376 C.3     1  UNL1        0.0871
     38 C         -22.2281   -7.4755  -13.7412 C.3     1  UNL1        0.1615
     39 O         -22.7820   -7.7462  -14.9992 O.3     1  UNL1       -0.3799
     40 H         -22.2788   -7.1891  -15.6481 H       1  UNL1        0.2105
@<TRIPOS>BOND
     1    36    37    1
     2    37    34    1
     3    34    24    1
     4    24    25   ar
     5    25    26   ar
     6    26    30    1
     7    30    31    1
     8    30    32    2
     9    30    33    2
    10    26    27   ar
    11    27    28   ar
    12    28    29   ar
    13    29     1    1
    14     1     2    2
    15     1     3   am
    16     3     4    1
    17     4     5    1
    18     5     6    1
    19     6     7    1
    20     7     8   ar
    21     8     9   ar
    22     9    10   ar
    23    10    14    1
    24    14    15   ar
    25    15    16   ar
    26    16    17   ar
    27    17    18   ar
    28    18    19   ar
    29    19    20   ar
    30    20    21   ar
    31    21    22   ar
    32    10    11   ar
    33    11    12   ar
    34    12    13    1
    35    13    38    1
    36    38    39    1
    37    29    24   ar
    38    13     3    1
    39    12     7   ar
    40    22    14   ar
    41    21    17   ar
    42    34    35    1
    43    20    23    1
    44    39    40    1
@<TRIPOS>MOLECULE
*****
 40 44 0 0 0
SMALL
GASTEIGER

@<TRIPOS>ATOM
      1 C         -23.2183   -6.4437  -11.5962 C.2     1  UNL1        0.2506
      2 O         -22.5955   -5.4753  -11.0808 O.2     1  UNL1       -0.2699
      3 N         -22.7158   -7.7874  -11.4358 N.am    1  UNL1       -0.2675
      4 C         -23.6707   -8.8476  -11.0745 C.3     1  UNL1        0.1413
      5 C         -23.7681   -9.9099  -12.1730 C.3     1  UNL1        0.2268
      6 O         -22.4887  -10.3204  -12.6483 O.3     1  UNL1       -0.4739
      7 C         -21.4046  -10.5207  -11.7943 C.ar    1  UNL1        0.1362
      8 C         -20.8894  -11.8104  -11.6454 C.ar    1  UNL1        0.0366
      9 C         -19.8249  -12.0497  -10.7762 C.ar    1  UNL1        0.0031
     10 C         -19.2476  -10.9945  -10.0514 C.ar    1  UNL1       -0.0000
     11 C         -19.7518   -9.6929  -10.2236 C.ar    1  UNL1        0.0004
     12 C         -20.8329   -9.4410  -11.0886 C.ar    1  UNL1        0.0322
     13 C         -21.2491   -7.9961  -11.3561 C.3     1  UNL1        0.1304
     14 C         -18.1117  -11.2459   -9.1287 C.ar    1  UNL1        0.0015
     15 C         -18.1318  -10.7297   -7.8025 C.ar    1  UNL1        0.0016
     16 C         -17.0595  -10.9630   -6.9210 C.ar    1  UNL1        0.0206
     17 C         -15.9861  -11.7121   -7.3905 C.ar    1  UNL1        0.0985
     18 N         -14.8659  -12.0517   -6.7276 N.ar    1  UNL1       -0.2241
     19 C         -14.1744  -12.7698   -7.6516 C.ar    1  UNL1        0.1750
     20 N         -14.8162  -12.8831   -8.8393 N.ar    1  UNL1       -0.3349
     21 C         -15.9582  -12.2103   -8.6560 C.ar    1  UNL1        0.0757
     22 C         -16.9961  -12.0043   -9.5605 C.ar    1  UNL1        0.0185
     23 H         -14.4918  -13.3813   -9.6977 H       1  UNL1        0.1675
     24 C         -24.5975   -6.6666  -13.7055 C.ar    1  UNL1        0.0503
     25 C         -25.8104   -6.4270  -14.3810 C.ar    1  UNL1        0.0328
     26 C         -26.8460   -5.7141  -13.7659 C.ar    1  UNL1        0.1069
     27 C         -26.6812   -5.2398  -12.4619 C.ar    1  UNL1        0.0186
     28 C         -25.4879   -5.4689  -11.7784 C.ar    1  UNL1        0.0071
     29 C         -24.4396   -6.1765  -12.3858 C.ar    1  UNL1        0.0667
     30 S         -28.3585   -5.4460  -14.6264 S.O2    1  UNL1        0.0105
     31 C         -28.0272   -4.5719  -16.1389 C.3     1  UNL1        0.1816
     32 O         -29.0124   -6.7620  -14.9426 O.2     1  UNL1       -0.1686
     33 O         -29.2912   -4.6375  -13.7688 O.2     1  UNL1       -0.1686
     34 N         -23.5113   -7.3495  -14.3672 N.pl3   1  UNL1       -0.3325
     35 H         -22.5625   -7.3342  -13.9304 H       1  UNL1        0.1468
     36 C         -22.7348   -7.5056  -16.6981 C.3     1  UNL1        0.0229
     37 C         -23.6465   -8.0893  -15.6234 C.3     1  UNL1        0.0871
     38 C         -20.5497   -7.4872  -12.6319 C.3     1  UNL1        0.1615
     39 O         -21.0082   -8.1813  -13.7591 O.3     1  UNL1       -0.3799
     40 H         -20.5230   -7.7985  -14.5353 H       1  UNL1        0.2105
@<TRIPOS>BOND
     1    36    37    1
     2    37    34    1
     3    34    24    1
     4    24    25   ar
     5    25    26   ar
     6    26    30    1
     7    30    31    1
     8    30    32    2
     9    30    33    2
    10    26    27   ar
    11    27    28   ar
    12    28    29   ar
    13    29     1    1
    14     1     2    2
    15     1     3   am
    16     3     4    1
    17     4     5    1
    18     5     6    1
    19     6     7    1
    20     7     8   ar
    21     8     9   ar
    22     9    10   ar
    23    10    14    1
    24    14    15   ar
    25    15    16   ar
    26    16    17   ar
    27    17    18   ar
    28    18    19   ar
    29    19    20   ar
    30    20    21   ar
    31    21    22   ar
    32    10    11   ar
    33    11    12   ar
    34    12    13    1
    35    13    38    1
    36    38    39    1
    37    29    24   ar
    38    13     3    1
    39    12     7   ar
    40    22    14   ar
    41    21    17   ar
    42    34    35    1
    43    20    23    1
    44    39    40    1
@<TRIPOS>MOLECULE
*****
 40 44 0 0 0
SMALL
GASTEIGER

@<TRIPOS>ATOM
      1 C         -24.7720   -6.2874  -12.9736 C.2     1  UNL1        0.2506
      2 O         -23.9768   -5.4388  -12.4849 O.2     1  UNL1       -0.2699
      3 N         -24.4391   -7.6914  -12.9303 N.am    1  UNL1       -0.2675
      4 C         -25.4850   -8.6408  -12.5167 C.3     1  UNL1        0.1413
      5 C         -25.8338   -9.6146  -13.6457 C.3     1  UNL1        0.2268
      6 O         -24.6752  -10.1559  -14.2751 O.3     1  UNL1       -0.4739
      7 C         -23.5465  -10.5433  -13.5536 C.ar    1  UNL1        0.1362
      8 C         -23.1951  -11.8948  -13.5207 C.ar    1  UNL1        0.0366
      9 C         -22.0894  -12.3192  -12.7836 C.ar    1  UNL1        0.0031
     10 C         -21.3063  -11.3913  -12.0780 C.ar    1  UNL1       -0.0000
     11 C         -21.6476  -10.0281  -12.1349 C.ar    1  UNL1        0.0004
     12 C         -22.7677   -9.5894  -12.8652 C.ar    1  UNL1        0.0322
     13 C         -23.0128   -8.0898  -13.0196 C.3     1  UNL1        0.1304
     14 C         -20.1264  -11.8401  -11.2962 C.ar    1  UNL1        0.0015
     15 C         -19.6250  -13.1640  -11.4429 C.ar    1  UNL1        0.0016
     16 C         -18.5071  -13.5981  -10.7060 C.ar    1  UNL1        0.0206
     17 C         -17.9138  -12.6913   -9.8344 C.ar    1  UNL1        0.0985
     18 N         -16.8481  -12.8905   -9.0382 N.ar    1  UNL1       -0.2241
     19 C         -16.7086  -11.6908   -8.4147 C.ar    1  UNL1        0.1750
     20 N         -17.6337  -10.7752   -8.7909 N.ar    1  UNL1       -0.3349
     21 C         -18.3854  -11.4238   -9.6880 C.ar    1  UNL1        0.0757
     22 C         -19.4871  -10.9526  -10.3963 C.ar    1  UNL1        0.0185
     23 H         -17.7340   -9.7913   -8.4562 H       1  UNL1        0.1675
     24 C         -26.1232   -5.6523  -15.0161 C.ar    1  UNL1        0.0503
     25 C         -27.3595   -5.2616  -15.5672 C.ar    1  UNL1        0.0328
     26 C         -28.4719   -5.0375  -14.7478 C.ar    1  UNL1        0.1069
     27 C         -28.3605   -5.2110  -13.3658 C.ar    1  UNL1        0.0186
     28 C         -27.1449   -5.5984  -12.8039 C.ar    1  UNL1        0.0071
     29 C         -26.0205   -5.8201  -13.6133 C.ar    1  UNL1        0.0667
     30 S         -30.0100   -4.5686  -15.4652 S.O2    1  UNL1        0.0105
     31 C         -29.7070   -3.6650  -16.9663 C.3     1  UNL1        0.1816
     32 O         -30.8290   -5.7906  -15.7741 O.2     1  UNL1       -0.1686
     33 O         -30.7750   -3.7059  -14.5012 O.2     1  UNL1       -0.1686
     34 N         -24.9645   -5.8228  -15.8602 N.pl3   1  UNL1       -0.3325
     35 H         -24.1652   -6.3987  -15.5127 H       1  UNL1        0.1468
     36 C         -24.4868   -6.3285  -18.2216 C.3     1  UNL1        0.0229
     37 C         -24.8294   -5.2486  -17.2002 C.3     1  UNL1        0.0871
     38 C         -22.3849   -7.5991  -14.3389 C.3     1  UNL1        0.1615
     39 O         -23.1856   -7.9557  -15.4318 O.3     1  UNL1       -0.3799
     40 H         -22.7255   -7.6041  -16.2375 H       1  UNL1        0.2105
@<TRIPOS>BOND
     1    36    37    1
     2    37    34    1
     3    34    24    1
     4    24    25   ar
     5    25    26   ar
     6    26    30    1
     7    30    31    1
     8    30    32    2
     9    30    33    2
    10    26    27   ar
    11    27    28   ar
    12    28    29   ar
    13    29     1    1
    14     1     2    2
    15     1     3   am
    16     3     4    1
    17     4     5    1
    18     5     6    1
    19     6     7    1
    20     7     8   ar
    21     8     9   ar
    22     9    10   ar
    23    10    14    1
    24    14    15   ar
    25    15    16   ar
    26    16    17   ar
    27    17    18   ar
    28    18    19   ar
    29    19    20   ar
    30    20    21   ar
    31    21    22   ar
    32    10    11   ar
    33    11    12   ar
    34    12    13    1
    35    13    38    1
    36    38    39    1
    37    29    24   ar
    38    13     3    1
    39    12     7   ar
    40    22    14   ar
    41    21    17   ar
    42    34    35    1
    43    20    23    1
    44    39    40    1
