@<TRIPOS>MOLECULE
*****
 52 58 0 0 0
SMALL
GASTEIGER

@<TRIPOS>ATOM
      1 C          59.7312   83.6379   12.7769 C.ar    1  UNL1        0.0486
      2 C          58.4775   83.7846   12.1645 C.ar    1  UNL1        0.0176
      3 C          57.8147   82.6755   11.6314 C.ar    1  UNL1        0.0382
      4 C          58.4015   81.3972   11.6997 C.ar    1  UNL1        0.1388
      5 C          59.6447   81.2515   12.3251 C.ar    1  UNL1        0.0382
      6 C          60.3072   82.3599   12.8587 C.ar    1  UNL1        0.0176
      7 N          61.4467   87.0035   14.6275 N.pl3   1  UNL1       -0.3035
      8 C          61.6521   85.6877   15.2403 C.3     1  UNL1        0.1123
      9 C          61.5971   84.6024   14.1665 C.3     1  UNL1        0.1128
     10 N          60.4135   84.7869   13.3139 N.pl3   1  UNL1       -0.2975
     11 C          60.1510   86.1161   12.7390 C.3     1  UNL1        0.1458
     12 I          61.5461   86.5176   11.1573 I       1  UNL1       -0.0513
     13 C          60.2374   87.1965   13.8214 C.3     1  UNL1        0.1215
     14 C          63.9414   90.2893   15.6946 C.ar    1  UNL1        0.0699
     15 C          63.8417   89.8759   14.3550 C.ar    1  UNL1        0.0190
     16 C          63.0245   88.7981   14.0036 C.ar    1  UNL1        0.0160
     17 C          62.2845   88.1186   14.9837 C.ar    1  UNL1        0.0481
     18 C          62.3772   88.5332   16.3206 C.ar    1  UNL1        0.0160
     19 C          63.1959   89.6095   16.6733 C.ar    1  UNL1        0.0190
     20 N          66.4039   92.9239   16.0914 N.ar    1  UNL1       -0.2024
     21 N          65.5791   93.2192   17.0859 N.ar    1  UNL1       -0.1442
     22 C          64.6000   92.2889   17.0565 C.ar    1  UNL1        0.2073
     23 N          64.7832   91.4032   16.0503 N.ar    1  UNL1       -0.2398
     24 C          65.9143   91.8405   15.4623 C.ar    1  UNL1        0.3522
     25 O          66.4264   91.3306   14.4292 O.2     1  UNL1       -0.2444
     26 C          67.5734   93.7238   15.7134 C.3     1  UNL1        0.1099
     27 C          67.4482   94.1636   14.2487 C.3     1  UNL1        0.0265
     28 C          69.4916   92.3815   14.6825 C.3     1  UNL1        0.0021
     29 C          68.8552   92.9069   15.9694 C.3     1  UNL1        0.0245
     30 O          57.7894   80.2504   11.1684 O.3     1  UNL1       -0.4727
     31 C          57.6454   79.9544    9.7788 C.3     1  UNL1        0.2374
     32 C          57.8754   81.2126    8.9307 C.3     1  UNL1        0.1909
     33 C          57.8789   80.9250    7.4575 C.3     1  UNL1        0.1783
     34 O          58.8225   81.7855    6.9022 O.3     1  UNL1       -0.3266
     35 C          59.5804   82.3029    7.9797 C.3     1  UNL1        0.2314
     36 O          59.1257   81.7567    9.2034 O.3     1  UNL1       -0.3254
     37 C          59.4609   83.8298    8.0069 C.ar    1  UNL1        0.0410
     38 C          58.5133   84.4426    8.8573 C.ar    1  UNL1        0.0022
     39 C          58.3913   85.8318    8.9148 C.ar    1  UNL1        0.0113
     40 C          59.2216   86.6411    8.1416 C.ar    1  UNL1        0.0585
     41 CL         59.0660   88.3868    8.2188 Cl      1  UNL1       -0.0822
     42 C          60.1854   86.0611    7.3163 C.ar    1  UNL1        0.0226
     43 C          60.3211   84.6687    7.2470 C.ar    1  UNL1        0.0591
     44 CL         61.6018   84.0419    6.2100 Cl      1  UNL1       -0.0824
     45 C          61.0604   81.9127    7.8010 C.3     1  UNL1        0.1893
     46 N          61.5655   81.2251    8.9903 N.ar    1  UNL1       -0.2313
     47 N          61.4006   79.9347    9.2166 N.ar    1  UNL1       -0.1532
     48 C          62.0676   79.6791   10.3588 C.ar    1  UNL1        0.1604
     49 C          62.2006   78.3145   10.9436 C.3     1  UNL1        0.0756
     50 N          62.6840   80.7705   10.8638 N.ar    1  UNL1       -0.2146
     51 C          62.3386   81.7242    9.9760 C.ar    1  UNL1        0.1381
     52 C          62.7803   83.1491   10.0871 C.3     1  UNL1        0.0734
@<TRIPOS>BOND
     1    28    29    1
     2    29    26    1
     3    26    27    1
     4    26    20    1
     5    20    21   ar
     6    21    22   ar
     7    22    23   ar
     8    23    14    1
     9    14    15   ar
    10    15    16   ar
    11    16    17   ar
    12    17     7    1
    13     7     8    1
    14     8     9    1
    15     9    10    1
    16    10     1    1
    17     1     2   ar
    18     2     3   ar
    19     3     4   ar
    20     4    30    1
    21    30    31    1
    22    31    32    1
    23    32    33    1
    24    33    34    1
    25    34    35    1
    26    35    45    1
    27    45    46    1
    28    46    47   ar
    29    47    48   ar
    30    48    49    1
    31    48    50   ar
    32    50    51   ar
    33    51    52    1
    34    35    37    1
    35    37    38   ar
    36    38    39   ar
    37    39    40   ar
    38    40    41    1
    39    40    42   ar
    40    42    43   ar
    41    43    44    1
    42    35    36    1
    43     4     5   ar
    44     5     6   ar
    45    10    11    1
    46    11    12    1
    47    11    13    1
    48    17    18   ar
    49    18    19   ar
    50    23    24   ar
    51    24    25    2
    52    24    20   ar
    53    19    14   ar
    54    13     7    1
    55     6     1   ar
    56    36    32    1
    57    51    46   ar
    58    43    37   ar
@<TRIPOS>MOLECULE
*****
 52 58 0 0 0
SMALL
GASTEIGER

@<TRIPOS>ATOM
      1 C          59.2765   85.9655   10.6957 C.ar    1  UNL1        0.0486
      2 C          58.2178   85.2596   11.2867 C.ar    1  UNL1        0.0176
      3 C          57.4159   84.4105   10.5190 C.ar    1  UNL1        0.0382
      4 C          57.6599   84.2575    9.1406 C.ar    1  UNL1        0.1388
      5 C          58.7263   84.9505    8.5571 C.ar    1  UNL1        0.0382
      6 C          59.5286   85.7990    9.3244 C.ar    1  UNL1        0.0176
      7 N          61.3330   88.6190   13.2304 N.pl3   1  UNL1       -0.3035
      8 C          61.0209   87.2762   13.7287 C.3     1  UNL1        0.1123
      9 C          60.9378   86.2965   12.5594 C.3     1  UNL1        0.1128
     10 N          60.0916   86.8475   11.4906 N.pl3   1  UNL1       -0.2975
     11 C          60.3450   88.2180   11.0178 C.3     1  UNL1        0.1458
     12 I          62.1374   88.2651    9.8369 I       1  UNL1       -0.0513
     13 C          60.4539   89.1837   12.2018 C.3     1  UNL1        0.1215
     14 C          64.2912   91.0028   15.1606 C.ar    1  UNL1        0.0699
     15 C          64.0609   91.1325   13.7803 C.ar    1  UNL1        0.0190
     16 C          63.0916   90.3509   13.1457 C.ar    1  UNL1        0.0160
     17 C          62.3279   89.4311   13.8808 C.ar    1  UNL1        0.0481
     18 C          62.5512   89.3042   15.2599 C.ar    1  UNL1        0.0160
     19 C          63.5219   90.0837   15.8949 C.ar    1  UNL1        0.0190
     20 N          67.2069   92.7763   16.3919 N.ar    1  UNL1       -0.2024
     21 N          66.2647   93.3110   17.1555 N.ar    1  UNL1       -0.1442
     22 C          65.1044   92.7183   16.7984 C.ar    1  UNL1        0.2073
     23 N          65.2898   91.8136   15.8098 N.ar    1  UNL1       -0.2398
     24 C          66.6148   91.8873   15.5744 C.ar    1  UNL1        0.3522
     25 O          67.2184   91.2417   14.6752 O.2     1  UNL1       -0.2444
     26 C          68.6151   93.1853   16.3968 C.3     1  UNL1        0.1099
     27 C          68.7603   94.5491   15.7089 C.3     1  UNL1        0.0265
     28 C          69.9031   92.4796   14.3023 C.3     1  UNL1        0.0021
     29 C          69.4659   92.0952   15.7159 C.3     1  UNL1        0.0245
     30 O          56.8784   83.4306    8.3174 O.3     1  UNL1       -0.4727
     31 C          57.3292   82.2411    7.6683 C.3     1  UNL1        0.2374
     32 C          58.8056   81.9745    7.9910 C.3     1  UNL1        0.1909
     33 C          59.3030   80.6858    7.4038 C.3     1  UNL1        0.1783
     34 O          60.2067   80.1680    8.3282 O.3     1  UNL1       -0.3266
     35 C          60.0148   80.8919    9.5291 C.3     1  UNL1        0.2314
     36 O          58.9843   81.8475    9.3641 O.3     1  UNL1       -0.3254
     37 C          61.3208   81.5876    9.9251 C.ar    1  UNL1        0.0410
     38 C          61.2938   82.9317   10.3601 C.ar    1  UNL1        0.0022
     39 C          62.4652   83.5877   10.7416 C.ar    1  UNL1        0.0113
     40 C          63.6855   82.9149   10.7159 C.ar    1  UNL1        0.0585
     41 CL         65.1550   83.7428   11.1983 Cl      1  UNL1       -0.0822
     42 C          63.7344   81.5784   10.3188 C.ar    1  UNL1        0.0226
     43 C          62.5681   80.9054    9.9331 C.ar    1  UNL1        0.0591
     44 CL         62.7346   79.2056    9.4958 Cl      1  UNL1       -0.0824
     45 C          59.5952   79.9230   10.6515 C.3     1  UNL1        0.1893
     46 N          60.1691   80.3318   11.9345 N.ar    1  UNL1       -0.2313
     47 N          61.3694   79.9700   12.3493 N.ar    1  UNL1       -0.1532
     48 C          61.5540   80.6057   13.5225 C.ar    1  UNL1        0.1604
     49 C          62.8202   80.5318   14.3056 C.3     1  UNL1        0.0756
     50 N          60.5103   81.3931   13.8644 N.ar    1  UNL1       -0.2146
     51 C          59.6569   81.1883   12.8414 C.ar    1  UNL1        0.1381
     52 C          58.3187   81.8495   12.7425 C.3     1  UNL1        0.0734
@<TRIPOS>BOND
     1    28    29    1
     2    29    26    1
     3    26    27    1
     4    26    20    1
     5    20    21   ar
     6    21    22   ar
     7    22    23   ar
     8    23    14    1
     9    14    15   ar
    10    15    16   ar
    11    16    17   ar
    12    17     7    1
    13     7     8    1
    14     8     9    1
    15     9    10    1
    16    10     1    1
    17     1     2   ar
    18     2     3   ar
    19     3     4   ar
    20     4    30    1
    21    30    31    1
    22    31    32    1
    23    32    33    1
    24    33    34    1
    25    34    35    1
    26    35    45    1
    27    45    46    1
    28    46    47   ar
    29    47    48   ar
    30    48    49    1
    31    48    50   ar
    32    50    51   ar
    33    51    52    1
    34    35    37    1
    35    37    38   ar
    36    38    39   ar
    37    39    40   ar
    38    40    41    1
    39    40    42   ar
    40    42    43   ar
    41    43    44    1
    42    35    36    1
    43     4     5   ar
    44     5     6   ar
    45    10    11    1
    46    11    12    1
    47    11    13    1
    48    17    18   ar
    49    18    19   ar
    50    23    24   ar
    51    24    25    2
    52    24    20   ar
    53    19    14   ar
    54    13     7    1
    55     6     1   ar
    56    36    32    1
    57    51    46   ar
    58    43    37   ar
@<TRIPOS>MOLECULE
*****
 52 58 0 0 0
SMALL
GASTEIGER

@<TRIPOS>ATOM
      1 C          59.9711   86.5953   10.6410 C.ar    1  UNL1        0.0486
      2 C          61.1755   86.3532   11.3185 C.ar    1  UNL1        0.0176
      3 C          61.2106   85.4866   12.4146 C.ar    1  UNL1        0.0382
      4 C          60.0342   84.8494   12.8539 C.ar    1  UNL1        0.1388
      5 C          58.8376   85.0805   12.1664 C.ar    1  UNL1        0.0382
      6 C          58.8023   85.9462   11.0703 C.ar    1  UNL1        0.0176
      7 N          59.5650   89.4012    7.5334 N.pl3   1  UNL1       -0.3035
      8 C          60.1502   89.8432    8.8027 C.3     1  UNL1        0.1123
      9 C          60.8339   88.6655    9.4953 C.3     1  UNL1        0.1128
     10 N          59.9402   87.4982    9.5194 N.pl3   1  UNL1       -0.2975
     11 C          59.2902   87.0739    8.2689 C.3     1  UNL1        0.1458
     12 I          60.7287   86.1418    6.9762 I       1  UNL1       -0.0513
     13 C          58.6337   88.2695    7.5718 C.3     1  UNL1        0.1215
     14 C          60.0448   91.7394    4.0034 C.ar    1  UNL1        0.0699
     15 C          61.1499   91.0985    4.5892 C.ar    1  UNL1        0.0190
     16 C          60.9943   90.3319    5.7473 C.ar    1  UNL1        0.0160
     17 C          59.7291   90.1842    6.3366 C.ar    1  UNL1        0.0481
     18 C          58.6233   90.8176    5.7504 C.ar    1  UNL1        0.0160
     19 C          58.7783   91.5863    4.5936 C.ar    1  UNL1        0.0190
     20 N          61.0732   93.7250    1.1463 N.ar    1  UNL1       -0.2024
     21 N          59.7772   93.6042    0.8964 N.ar    1  UNL1       -0.1442
     22 C          59.2604   92.8782    1.9118 C.ar    1  UNL1        0.2073
     23 N          60.2110   92.5259    2.8076 N.ar    1  UNL1       -0.2398
     24 C          61.3326   93.0632    2.2882 C.ar    1  UNL1        0.3522
     25 O          62.4851   92.9277    2.7812 O.2     1  UNL1       -0.2444
     26 C          62.0357   94.3817    0.2561 C.3     1  UNL1        0.1099
     27 C          61.3152   94.8925   -0.9987 C.3     1  UNL1        0.0265
     28 C          64.5612   94.0060    0.0995 C.3     1  UNL1        0.0021
     29 C          63.1714   93.3965   -0.0841 C.3     1  UNL1        0.0245
     30 O          60.0066   83.9812   13.9573 O.3     1  UNL1       -0.4727
     31 C          60.4906   82.6377   13.9688 C.3     1  UNL1        0.2374
     32 C          60.0738   81.9011   12.6887 C.3     1  UNL1        0.1909
     33 C          60.4166   80.4402   12.7237 C.3     1  UNL1        0.1783
     34 O          60.7717   80.0995   11.4210 O.3     1  UNL1       -0.3266
     35 C          60.9704   81.3160   10.7256 C.3     1  UNL1        0.2314
     36 O          60.7576   82.4143   11.5920 O.3     1  UNL1       -0.3254
     37 C          60.0107   81.3905    9.5340 C.ar    1  UNL1        0.0410
     38 C          60.4273   82.0171    8.3380 C.ar    1  UNL1        0.0022
     39 C          59.5808   82.0874    7.2305 C.ar    1  UNL1        0.0113
     40 C          58.3090   81.5198    7.2831 C.ar    1  UNL1        0.0585
     41 CL         57.2493   81.6088    5.8879 Cl      1  UNL1       -0.0822
     42 C          57.8854   80.8694    8.4423 C.ar    1  UNL1        0.0226
     43 C          58.7225   80.7898    9.5624 C.ar    1  UNL1        0.0591
     44 CL         58.1077   79.9041   10.9574 Cl      1  UNL1       -0.0824
     45 C          62.4221   81.3837   10.2131 C.3     1  UNL1        0.1893
     46 N          63.1747   82.4243   10.9153 N.ar    1  UNL1       -0.2313
     47 N          63.6097   82.3036   12.1562 N.ar    1  UNL1       -0.1532
     48 C          64.3117   83.4262   12.4048 C.ar    1  UNL1        0.1604
     49 C          65.0432   83.6711   13.6802 C.3     1  UNL1        0.0756
     50 N          64.3639   84.2602   11.3427 N.ar    1  UNL1       -0.2146
     51 C          63.6312   83.5955   10.4272 C.ar    1  UNL1        0.1381
     52 C          63.3797   84.1098    9.0451 C.3     1  UNL1        0.0734
@<TRIPOS>BOND
     1    28    29    1
     2    29    26    1
     3    26    27    1
     4    26    20    1
     5    20    21   ar
     6    21    22   ar
     7    22    23   ar
     8    23    14    1
     9    14    15   ar
    10    15    16   ar
    11    16    17   ar
    12    17     7    1
    13     7     8    1
    14     8     9    1
    15     9    10    1
    16    10     1    1
    17     1     2   ar
    18     2     3   ar
    19     3     4   ar
    20     4    30    1
    21    30    31    1
    22    31    32    1
    23    32    33    1
    24    33    34    1
    25    34    35    1
    26    35    45    1
    27    45    46    1
    28    46    47   ar
    29    47    48   ar
    30    48    49    1
    31    48    50   ar
    32    50    51   ar
    33    51    52    1
    34    35    37    1
    35    37    38   ar
    36    38    39   ar
    37    39    40   ar
    38    40    41    1
    39    40    42   ar
    40    42    43   ar
    41    43    44    1
    42    35    36    1
    43     4     5   ar
    44     5     6   ar
    45    10    11    1
    46    11    12    1
    47    11    13    1
    48    17    18   ar
    49    18    19   ar
    50    23    24   ar
    51    24    25    2
    52    24    20   ar
    53    19    14   ar
    54    13     7    1
    55     6     1   ar
    56    36    32    1
    57    51    46   ar
    58    43    37   ar
@<TRIPOS>MOLECULE
*****
 52 58 0 0 0
SMALL
GASTEIGER

@<TRIPOS>ATOM
      1 C          60.6295   86.7332   10.1978 C.ar    1  UNL1        0.0486
      2 C          61.9181   86.4821   10.6926 C.ar    1  UNL1        0.0176
      3 C          62.1099   85.5877   11.7494 C.ar    1  UNL1        0.0382
      4 C          61.0091   84.9310   12.3326 C.ar    1  UNL1        0.1388
      5 C          59.7269   85.1715   11.8265 C.ar    1  UNL1        0.0382
      6 C          59.5349   86.0650   10.7697 C.ar    1  UNL1        0.0176
      7 N          59.7688   89.6040    7.2460 N.pl3   1  UNL1       -0.3035
      8 C          60.4736   90.0355    8.4568 C.3     1  UNL1        0.1123
      9 C          61.2764   88.8697    9.0316 C.3     1  UNL1        0.1128
     10 N          60.4381   87.6647    9.1162 N.pl3   1  UNL1       -0.2975
     11 C          59.6704   87.2475    7.9318 C.3     1  UNL1        0.1458
     12 I          60.9920   86.4145    6.4593 I       1  UNL1       -0.0513
     13 C          58.8933   88.4325    7.3501 C.3     1  UNL1        0.1215
     14 C          59.7588   92.0574    3.7619 C.ar    1  UNL1        0.0699
     15 C          60.9534   91.4764    4.2208 C.ar    1  UNL1        0.0190
     16 C          60.9584   90.6722    5.3637 C.ar    1  UNL1        0.0160
     17 C          59.7675   90.4262    6.0644 C.ar    1  UNL1        0.0481
     18 C          58.5726   90.9996    5.6048 C.ar    1  UNL1        0.0160
     19 C          58.5670   91.8059    4.4633 C.ar    1  UNL1        0.0190
     20 N          59.6707   93.5973    0.4780 N.ar    1  UNL1       -0.2024
     21 N          59.8101   94.6727    1.2400 N.ar    1  UNL1       -0.1442
     22 C          59.8671   94.2302    2.5152 C.ar    1  UNL1        0.2073
     23 N          59.7595   92.8832    2.5811 N.ar    1  UNL1       -0.2398
     24 C          59.6260   92.5249    1.2888 C.ar    1  UNL1        0.3522
     25 O          59.4383   91.3437    0.8898 O.2     1  UNL1       -0.2444
     26 C          59.4944   93.6246   -0.9775 C.3     1  UNL1        0.1099
     27 C          60.5578   94.5318   -1.6107 C.3     1  UNL1        0.0265
     28 C          57.0477   92.9421   -1.2801 C.3     1  UNL1        0.0021
     29 C          58.0617   94.0858   -1.3099 C.3     1  UNL1        0.0245
     30 O          61.1399   84.0343   13.4054 O.3     1  UNL1       -0.4727
     31 C          61.1976   84.3946   14.7860 C.3     1  UNL1        0.2374
     32 C          61.9304   85.7307   14.9667 C.3     1  UNL1        0.1909
     33 C          62.0208   86.1517   16.4047 C.3     1  UNL1        0.1783
     34 O          61.9064   87.5395   16.4048 O.3     1  UNL1       -0.3266
     35 C          61.4342   87.9056   15.1218 C.3     1  UNL1        0.2314
     36 O          61.2372   86.7520   14.3263 O.3     1  UNL1       -0.3254
     37 C          62.4423   88.8434   14.4505 C.ar    1  UNL1        0.0410
     38 C          62.5103   88.9039   13.0404 C.ar    1  UNL1        0.0022
     39 C          63.4082   89.7595   12.4000 C.ar    1  UNL1        0.0113
     40 C          64.2441   90.5861   13.1484 C.ar    1  UNL1        0.0585
     41 CL         65.3695   91.6613   12.3391 Cl      1  UNL1       -0.0822
     42 C          64.1751   90.5666   14.5417 C.ar    1  UNL1        0.0226
     43 C          63.2797   89.7142   15.2000 C.ar    1  UNL1        0.0591
     44 CL         63.2396   89.8037   16.9603 Cl      1  UNL1       -0.0824
     45 C          60.0810   88.6298   15.2598 C.3     1  UNL1        0.1893
     46 N          59.0987   88.0818   14.3233 N.ar    1  UNL1       -0.2313
     47 N          58.3068   87.0632   14.6042 N.ar    1  UNL1       -0.1532
     48 C          57.5092   86.9170   13.5284 C.ar    1  UNL1        0.1604
     49 C          56.4074   85.9158   13.4537 C.3     1  UNL1        0.0756
     50 N          57.7487   87.8359   12.5670 N.ar    1  UNL1       -0.2146
     51 C          58.7602   88.5470   13.1037 C.ar    1  UNL1        0.1381
     52 C          59.4027   89.7099   12.4161 C.3     1  UNL1        0.0734
@<TRIPOS>BOND
     1    28    29    1
     2    29    26    1
     3    26    27    1
     4    26    20    1
     5    20    21   ar
     6    21    22   ar
     7    22    23   ar
     8    23    14    1
     9    14    15   ar
    10    15    16   ar
    11    16    17   ar
    12    17     7    1
    13     7     8    1
    14     8     9    1
    15     9    10    1
    16    10     1    1
    17     1     2   ar
    18     2     3   ar
    19     3     4   ar
    20     4    30    1
    21    30    31    1
    22    31    32    1
    23    32    33    1
    24    33    34    1
    25    34    35    1
    26    35    45    1
    27    45    46    1
    28    46    47   ar
    29    47    48   ar
    30    48    49    1
    31    48    50   ar
    32    50    51   ar
    33    51    52    1
    34    35    37    1
    35    37    38   ar
    36    38    39   ar
    37    39    40   ar
    38    40    41    1
    39    40    42   ar
    40    42    43   ar
    41    43    44    1
    42    35    36    1
    43     4     5   ar
    44     5     6   ar
    45    10    11    1
    46    11    12    1
    47    11    13    1
    48    17    18   ar
    49    18    19   ar
    50    23    24   ar
    51    24    25    2
    52    24    20   ar
    53    19    14   ar
    54    13     7    1
    55     6     1   ar
    56    36    32    1
    57    51    46   ar
    58    43    37   ar
@<TRIPOS>MOLECULE
*****
 52 58 0 0 0
SMALL
GASTEIGER

@<TRIPOS>ATOM
      1 C          60.2506   86.0472   10.0505 C.ar    1  UNL1        0.0486
      2 C          59.1105   85.3847   10.5296 C.ar    1  UNL1        0.0176
      3 C          59.2282   84.3728   11.4865 C.ar    1  UNL1        0.0382
      4 C          60.4953   84.0039   11.9777 C.ar    1  UNL1        0.1388
      5 C          61.6291   84.6773   11.5097 C.ar    1  UNL1        0.0382
      6 C          61.5118   85.6894   10.5536 C.ar    1  UNL1        0.0176
      7 N          59.5734   89.2068    7.3573 N.pl3   1  UNL1       -0.3035
      8 C          60.2495   89.5007    8.6243 C.3     1  UNL1        0.1123
      9 C          60.9983   88.2611    9.1110 C.3     1  UNL1        0.1128
     10 N          60.1228   87.0811    9.0561 N.pl3   1  UNL1       -0.2975
     11 C          59.3833   86.8011    7.8147 C.3     1  UNL1        0.1458
     12 I          60.7285   86.0668    6.3113 I       1  UNL1       -0.0513
     13 C          58.6611   88.0596    7.3238 C.3     1  UNL1        0.1215
     14 C          59.7512   91.9733    4.1210 C.ar    1  UNL1        0.0699
     15 C          60.9157   91.3284    4.5719 C.ar    1  UNL1        0.0190
     16 C          60.8591   90.4215    5.6336 C.ar    1  UNL1        0.0160
     17 C          59.6356   90.1352    6.2588 C.ar    1  UNL1        0.0481
     18 C          58.4707   90.7726    5.8065 C.ar    1  UNL1        0.0160
     19 C          58.5267   91.6815    4.7464 C.ar    1  UNL1        0.0190
     20 N          59.8989   93.8072    0.9940 N.ar    1  UNL1       -0.2024
     21 N          59.8722   94.8127    1.8570 N.ar    1  UNL1       -0.1442
     22 C          59.8254   94.2565    3.0873 C.ar    1  UNL1        0.2073
     23 N          59.8154   92.9051    3.0239 N.ar    1  UNL1       -0.2398
     24 C          59.8499   92.6624    1.6986 C.ar    1  UNL1        0.3522
     25 O          59.7978   91.5143    1.1802 O.2     1  UNL1       -0.2444
     26 C          59.8789   93.9600   -0.4643 C.3     1  UNL1        0.1099
     27 C          61.0933   94.7824   -0.9152 C.3     1  UNL1        0.0265
     28 C          57.4208   93.5857   -1.0657 C.3     1  UNL1        0.0021
     29 C          58.5461   94.6057   -0.8919 C.3     1  UNL1        0.0245
     30 O          60.6755   82.9854   12.9276 O.3     1  UNL1       -0.4727
     31 C          61.8984   82.6856   13.6013 C.3     1  UNL1        0.2374
     32 C          62.5013   83.9544   14.2192 C.3     1  UNL1        0.1909
     33 C          62.6521   83.8573   15.7095 C.3     1  UNL1        0.1783
     34 O          62.3961   85.1337   16.2036 O.3     1  UNL1       -0.3266
     35 C          61.7969   85.8623   15.1486 C.3     1  UNL1        0.2314
     36 O          61.6622   85.0420   14.0034 O.3     1  UNL1       -0.3254
     37 C          62.6520   87.0902   14.8203 C.ar    1  UNL1        0.0410
     38 C          62.9014   87.4288   13.4713 C.ar    1  UNL1        0.0022
     39 C          63.6642   88.5500   13.1407 C.ar    1  UNL1        0.0113
     40 C          64.1796   89.3680   14.1445 C.ar    1  UNL1        0.0585
     41 CL         65.1361   90.7772   13.7242 Cl      1  UNL1       -0.0822
     42 C          63.9224   89.0718   15.4833 C.ar    1  UNL1        0.0226
     43 C          63.1586   87.9507   15.8322 C.ar    1  UNL1        0.0591
     44 CL         62.8533   87.6955   17.5497 Cl      1  UNL1       -0.0824
     45 C          60.3901   86.3232   15.5766 C.3     1  UNL1        0.1893
     46 N          59.7614   87.1237   14.5248 N.ar    1  UNL1       -0.2313
     47 N          60.2859   88.2320   14.0346 N.ar    1  UNL1       -0.1532
     48 C          59.4550   88.6204   13.0479 C.ar    1  UNL1        0.1604
     49 C          59.7129   89.8007   12.1749 C.3     1  UNL1        0.0756
     50 N          58.4174   87.7732   12.8698 N.ar    1  UNL1       -0.2146
     51 C          58.6438   86.8473   13.8228 C.ar    1  UNL1        0.1381
     52 C          57.7564   85.6638   14.0462 C.3     1  UNL1        0.0734
@<TRIPOS>BOND
     1    28    29    1
     2    29    26    1
     3    26    27    1
     4    26    20    1
     5    20    21   ar
     6    21    22   ar
     7    22    23   ar
     8    23    14    1
     9    14    15   ar
    10    15    16   ar
    11    16    17   ar
    12    17     7    1
    13     7     8    1
    14     8     9    1
    15     9    10    1
    16    10     1    1
    17     1     2   ar
    18     2     3   ar
    19     3     4   ar
    20     4    30    1
    21    30    31    1
    22    31    32    1
    23    32    33    1
    24    33    34    1
    25    34    35    1
    26    35    45    1
    27    45    46    1
    28    46    47   ar
    29    47    48   ar
    30    48    49    1
    31    48    50   ar
    32    50    51   ar
    33    51    52    1
    34    35    37    1
    35    37    38   ar
    36    38    39   ar
    37    39    40   ar
    38    40    41    1
    39    40    42   ar
    40    42    43   ar
    41    43    44    1
    42    35    36    1
    43     4     5   ar
    44     5     6   ar
    45    10    11    1
    46    11    12    1
    47    11    13    1
    48    17    18   ar
    49    18    19   ar
    50    23    24   ar
    51    24    25    2
    52    24    20   ar
    53    19    14   ar
    54    13     7    1
    55     6     1   ar
    56    36    32    1
    57    51    46   ar
    58    43    37   ar
@<TRIPOS>MOLECULE
*****
 52 58 0 0 0
SMALL
GASTEIGER

@<TRIPOS>ATOM
      1 C          59.9790   86.8400   10.5316 C.ar    1  UNL1        0.0486
      2 C          58.7986   86.2113   10.9555 C.ar    1  UNL1        0.0176
      3 C          58.8127   85.3390   12.0474 C.ar    1  UNL1        0.0382
      4 C          60.0151   85.0780   12.7323 C.ar    1  UNL1        0.1388
      5 C          61.1877   85.7188   12.3171 C.ar    1  UNL1        0.0382
      6 C          61.1738   86.5914   11.2260 C.ar    1  UNL1        0.0176
      7 N          59.6202   89.6236    7.3982 N.pl3   1  UNL1       -0.3035
      8 C          60.2692   90.0500    8.6416 C.3     1  UNL1        0.1123
      9 C          60.9121   88.8465    9.3289 C.3     1  UNL1        0.1128
     10 N          59.9592   87.7289    9.3986 N.pl3   1  UNL1       -0.2975
     11 C          59.2470   87.3239    8.1758 C.3     1  UNL1        0.1458
     12 I          60.5911   86.3000    6.8514 I       1  UNL1       -0.0513
     13 C          58.6321   88.5437    7.4829 C.3     1  UNL1        0.1215
     14 C          60.1057   91.8875    3.8208 C.ar    1  UNL1        0.0699
     15 C          61.2089   91.2545    4.4187 C.ar    1  UNL1        0.0190
     16 C          61.0514   90.5123    5.5923 C.ar    1  UNL1        0.0160
     17 C          59.7862   90.3814    6.1856 C.ar    1  UNL1        0.0481
     18 C          58.6822   91.0068    5.5873 C.ar    1  UNL1        0.0160
     19 C          58.8391   91.7512    4.4150 C.ar    1  UNL1        0.0190
     20 N          60.7530   93.2683    0.5288 N.ar    1  UNL1       -0.2024
     21 N          60.2183   94.3232    1.1269 N.ar    1  UNL1       -0.1442
     22 C          59.9337   93.9398    2.3907 C.ar    1  UNL1        0.2073
     23 N          60.2738   92.6487    2.6091 N.ar    1  UNL1       -0.2398
     24 C          60.7713   92.2596    1.4185 C.ar    1  UNL1        0.3522
     25 O          61.1626   91.0904    1.1545 O.2     1  UNL1       -0.2444
     26 C          61.1445   93.2207   -0.8836 C.3     1  UNL1        0.1099
     27 C          62.3790   94.1039   -1.1084 C.3     1  UNL1        0.0265
     28 C          58.7590   92.7023   -1.6482 C.3     1  UNL1        0.0021
     29 C          59.9516   93.6523   -1.7591 C.3     1  UNL1        0.0245
     30 O          60.0921   84.2001   13.8257 O.3     1  UNL1       -0.4727
     31 C          60.6513   82.8864   13.7976 C.3     1  UNL1        0.2374
     32 C          60.1174   82.0964   12.5951 C.3     1  UNL1        0.1909
     33 C          60.2671   80.6125   12.7646 C.3     1  UNL1        0.1783
     34 O          60.5497   80.1094   11.4973 O.3     1  UNL1       -0.3266
     35 C          60.8921   81.2199   10.6894 C.3     1  UNL1        0.2314
     36 O          60.8412   82.4118   11.4504 O.3     1  UNL1       -0.3254
     37 C          59.9277   81.3101    9.5027 C.ar    1  UNL1        0.0410
     38 C          60.3406   81.9502    8.3125 C.ar    1  UNL1        0.0022
     39 C          59.4897   82.0350    7.2094 C.ar    1  UNL1        0.0113
     40 C          58.2171   81.4690    7.2605 C.ar    1  UNL1        0.0585
     41 CL         57.1519   81.5764    5.8708 Cl      1  UNL1       -0.0822
     42 C          57.7970   80.8057    8.4137 C.ar    1  UNL1        0.0226
     43 C          58.6385   80.7114    9.5293 C.ar    1  UNL1        0.0591
     44 CL         58.0279   79.8104   10.9163 Cl      1  UNL1       -0.0824
     45 C          62.3301   81.0482   10.1629 C.3     1  UNL1        0.1893
     46 N          62.9978   82.3447   10.0380 N.ar    1  UNL1       -0.2313
     47 N          62.7227   83.2229    9.0910 N.ar    1  UNL1       -0.1532
     48 C          63.4834   84.3005    9.3642 C.ar    1  UNL1        0.1604
     49 C          63.4295   85.5643    8.5757 C.3     1  UNL1        0.0756
     50 N          64.2259   84.1505   10.4833 N.ar    1  UNL1       -0.2146
     51 C          63.8957   82.9037   10.8746 C.ar    1  UNL1        0.1381
     52 C          64.4608   82.2485   12.0949 C.3     1  UNL1        0.0734
@<TRIPOS>BOND
     1    28    29    1
     2    29    26    1
     3    26    27    1
     4    26    20    1
     5    20    21   ar
     6    21    22   ar
     7    22    23   ar
     8    23    14    1
     9    14    15   ar
    10    15    16   ar
    11    16    17   ar
    12    17     7    1
    13     7     8    1
    14     8     9    1
    15     9    10    1
    16    10     1    1
    17     1     2   ar
    18     2     3   ar
    19     3     4   ar
    20     4    30    1
    21    30    31    1
    22    31    32    1
    23    32    33    1
    24    33    34    1
    25    34    35    1
    26    35    45    1
    27    45    46    1
    28    46    47   ar
    29    47    48   ar
    30    48    49    1
    31    48    50   ar
    32    50    51   ar
    33    51    52    1
    34    35    37    1
    35    37    38   ar
    36    38    39   ar
    37    39    40   ar
    38    40    41    1
    39    40    42   ar
    40    42    43   ar
    41    43    44    1
    42    35    36    1
    43     4     5   ar
    44     5     6   ar
    45    10    11    1
    46    11    12    1
    47    11    13    1
    48    17    18   ar
    49    18    19   ar
    50    23    24   ar
    51    24    25    2
    52    24    20   ar
    53    19    14   ar
    54    13     7    1
    55     6     1   ar
    56    36    32    1
    57    51    46   ar
    58    43    37   ar
@<TRIPOS>MOLECULE
*****
 52 58 0 0 0
SMALL
GASTEIGER

@<TRIPOS>ATOM
      1 C          60.2983   86.4172   10.5456 C.ar    1  UNL1        0.0486
      2 C          59.1451   86.0059   11.2306 C.ar    1  UNL1        0.0176
      3 C          59.2348   85.0949   12.2869 C.ar    1  UNL1        0.0382
      4 C          60.4857   84.5760   12.6727 C.ar    1  UNL1        0.1388
      5 C          61.6359   85.0001   11.9980 C.ar    1  UNL1        0.0382
      6 C          61.5466   85.9113   10.9425 C.ar    1  UNL1        0.0176
      7 N          59.6903   89.2904    7.5340 N.pl3   1  UNL1       -0.3035
      8 C          60.3189   89.7145    8.7886 C.3     1  UNL1        0.1123
      9 C          61.0603   88.5373    9.4198 C.3     1  UNL1        0.1128
     10 N          60.1970   87.3474    9.4509 N.pl3   1  UNL1       -0.2975
     11 C          59.5041   86.9388    8.2183 C.3     1  UNL1        0.1458
     12 I          60.9075   86.0769    6.8412 I       1  UNL1       -0.0513
     13 C          58.7892   88.1348    7.5819 C.3     1  UNL1        0.1215
     14 C          59.9593   91.7294    4.0501 C.ar    1  UNL1        0.0699
     15 C          61.1108   91.1357    4.5949 C.ar    1  UNL1        0.0190
     16 C          61.0243   90.3362    5.7379 C.ar    1  UNL1        0.0160
     17 C          59.7834   90.1077    6.3526 C.ar    1  UNL1        0.0481
     18 C          58.6316   90.6938    5.8072 C.ar    1  UNL1        0.0160
     19 C          58.7174   91.4954    4.6656 C.ar    1  UNL1        0.0190
     20 N          60.8200   93.7593    1.1689 N.ar    1  UNL1       -0.2024
     21 N          59.5005   93.7254    1.0488 N.ar    1  UNL1       -0.1442
     22 C          59.0431   92.9926    2.0875 C.ar    1  UNL1        0.2073
     23 N          60.0544   92.5502    2.8698 N.ar    1  UNL1       -0.2398
     24 C          61.1501   93.0396    2.2563 C.ar    1  UNL1        0.3522
     25 O          62.3352   92.8171    2.6244 O.2     1  UNL1       -0.2444
     26 C          61.7282   94.3916    0.2068 C.3     1  UNL1        0.1099
     27 C          62.0568   93.4042   -0.9209 C.3     1  UNL1        0.0265
     28 C          64.2851   94.3953    0.2847 C.3     1  UNL1        0.0021
     29 C          62.9924   94.8788    0.9420 C.3     1  UNL1        0.0245
     30 O          60.6347   83.6475   13.7156 O.3     1  UNL1       -0.4727
     31 C          59.7607   82.5497   13.9808 C.3     1  UNL1        0.2374
     32 C          59.3536   81.8541   12.6749 C.3     1  UNL1        0.1909
     33 C          59.2838   80.3609   12.8116 C.3     1  UNL1        0.1783
     34 O          59.7211   79.8447   11.5945 O.3     1  UNL1       -0.3266
     35 C          60.3376   80.9133   10.9010 C.3     1  UNL1        0.2314
     36 O          60.3024   82.0901   11.6861 O.3     1  UNL1       -0.3254
     37 C          59.6177   81.1461    9.5691 C.ar    1  UNL1        0.0410
     38 C          58.4282   80.4388    9.2836 C.ar    1  UNL1        0.0022
     39 C          57.7419   80.6405    8.0850 C.ar    1  UNL1        0.0113
     40 C          58.2143   81.5632    7.1535 C.ar    1  UNL1        0.0585
     41 CL         57.3472   81.8148    5.6494 Cl      1  UNL1       -0.0822
     42 C          59.3701   82.2957    7.4249 C.ar    1  UNL1        0.0226
     43 C          60.0706   82.1056    8.6228 C.ar    1  UNL1        0.0591
     44 CL         61.4905   83.1168    8.8867 Cl      1  UNL1       -0.0824
     45 C          61.8131   80.5642   10.6262 C.3     1  UNL1        0.1893
     46 N          62.6719   81.0374   11.7129 N.ar    1  UNL1       -0.2313
     47 N          62.5931   80.5960   12.9549 N.ar    1  UNL1       -0.1532
     48 C          63.5885   81.2115   13.6220 C.ar    1  UNL1        0.1604
     49 C          63.9061   80.9428   15.0533 C.3     1  UNL1        0.0756
     50 N          64.3279   82.0223   12.8332 N.ar    1  UNL1       -0.2146
     51 C          63.7149   81.8890   11.6402 C.ar    1  UNL1        0.1381
     52 C          64.1624   82.5999   10.4023 C.3     1  UNL1        0.0734
@<TRIPOS>BOND
     1    28    29    1
     2    29    26    1
     3    26    27    1
     4    26    20    1
     5    20    21   ar
     6    21    22   ar
     7    22    23   ar
     8    23    14    1
     9    14    15   ar
    10    15    16   ar
    11    16    17   ar
    12    17     7    1
    13     7     8    1
    14     8     9    1
    15     9    10    1
    16    10     1    1
    17     1     2   ar
    18     2     3   ar
    19     3     4   ar
    20     4    30    1
    21    30    31    1
    22    31    32    1
    23    32    33    1
    24    33    34    1
    25    34    35    1
    26    35    45    1
    27    45    46    1
    28    46    47   ar
    29    47    48   ar
    30    48    49    1
    31    48    50   ar
    32    50    51   ar
    33    51    52    1
    34    35    37    1
    35    37    38   ar
    36    38    39   ar
    37    39    40   ar
    38    40    41    1
    39    40    42   ar
    40    42    43   ar
    41    43    44    1
    42    35    36    1
    43     4     5   ar
    44     5     6   ar
    45    10    11    1
    46    11    12    1
    47    11    13    1
    48    17    18   ar
    49    18    19   ar
    50    23    24   ar
    51    24    25    2
    52    24    20   ar
    53    19    14   ar
    54    13     7    1
    55     6     1   ar
    56    36    32    1
    57    51    46   ar
    58    43    37   ar
