@<TRIPOS>MOLECULE
*****
 53 58 0 0 0
SMALL
GASTEIGER

@<TRIPOS>ATOM
      1 O          60.7139   84.2032   10.8326 O.2     1  UNL1       -0.2701
      2 C          59.8451   85.1179   10.8236 C.2     1  UNL1        0.2483
      3 N          58.9090   85.2240   11.9087 N.am    1  UNL1       -0.2945
      4 H          58.3615   86.1089   12.0088 H       1  UNL1        0.1501
      5 C          59.8280   86.0897    9.7071 C.ar    1  UNL1        0.0808
      6 C          59.2982   85.7085    8.4639 C.ar    1  UNL1        0.0080
      7 C          59.2747   86.6073    7.3948 C.ar    1  UNL1        0.0148
      8 C          59.7724   87.9131    7.5468 C.ar    1  UNL1        0.0502
      9 C          60.2820   88.3012    8.7981 C.ar    1  UNL1        0.0443
     10 C          60.3087   87.4029    9.8697 C.ar    1  UNL1        0.1457
     11 F          60.7612   87.8379   11.0730 F       1  UNL1       -0.2040
     12 N          59.7441   88.8458    6.4433 N.pl3   1  UNL1       -0.3040
     13 C          58.5691   89.7020    6.2269 C.3     1  UNL1        0.1123
     14 C          58.3711   89.9864    4.7339 C.3     1  UNL1        0.1136
     15 N          59.6156   90.4425    4.0919 N.pl3   1  UNL1       -0.2897
     16 C          60.8902   90.3336    4.8158 C.3     1  UNL1        0.1136
     17 C          60.9454   89.0269    5.6132 C.3     1  UNL1        0.1123
     18 C          59.5747   91.1200    2.8154 C.ar    1  UNL1        0.1318
     19 C          60.5518   92.0647    2.4553 C.ar    1  UNL1        0.0343
     20 C          60.4774   92.6970    1.2132 C.ar    1  UNL1        0.0083
     21 C          59.4225   92.4097    0.3349 C.ar    1  UNL1        0.0906
     22 C          58.4792   91.4456    0.7205 C.ar    1  UNL1        0.1041
     23 N          58.5733   90.8409    1.9339 N.ar    1  UNL1       -0.2292
     24 C          59.3591   93.0487   -1.0290 C.3     1  UNL1        0.4200
     25 F          59.3211   92.0594   -1.9937 F       1  UNL1       -0.1658
     26 F          60.4684   93.8477   -1.2455 F       1  UNL1       -0.1658
     27 F          58.2277   93.8374   -1.1466 F       1  UNL1       -0.1658
     28 C          58.7465   84.1601   12.9059 C.3     1  UNL1        0.1535
     29 C          58.6644   82.8178   12.2186 C.2     1  UNL1        0.2443
     30 O          57.6538   82.5428   11.5148 O.2     1  UNL1       -0.2730
     31 N          59.7388   81.8718   12.3431 N.am    1  UNL1       -0.2823
     32 H          60.6080   82.1660   12.8417 H       1  UNL1        0.1549
     33 C          59.6749   80.5372   11.8108 C.ar    1  UNL1        0.0597
     34 C          58.5847   79.7144   12.1385 C.ar    1  UNL1        0.0356
     35 C          58.5496   78.3950   11.6930 C.ar    1  UNL1        0.1002
     36 N          59.5734   77.8993   10.9549 N.ar    1  UNL1       -0.2420
     37 C          60.6503   78.6582   10.6257 C.ar    1  UNL1        0.1065
     38 C          60.7358   80.0012   11.0383 C.ar    1  UNL1        0.1080
     39 C          61.9113   80.8071   10.6237 C.2     1  UNL1        0.3408
     40 O          63.0447   80.2641   10.5219 O.2     1  UNL1       -0.2450
     41 O          61.7799   82.1564   10.3121 O.3     1  UNL1       -0.4770
     42 H          62.5839   82.7046   10.0311 H       1  UNL1        0.2954
     43 C          59.9159   84.1986   13.9078 C.3     1  UNL1        0.0569
     44 C          60.2622   85.6062   14.3027 C.ar    1  UNL1       -0.0017
     45 C          59.3619   86.6029   14.6670 C.ar    1  UNL1        0.0681
     46 N          60.0216   87.7288   15.0219 N.ar    1  UNL1       -0.3523
     47 C          61.3301   87.4485   14.8951 C.ar    1  UNL1        0.0563
     48 C          62.4043   88.2904   15.1797 C.ar    1  UNL1        0.0170
     49 C          63.7036   87.7793   15.0091 C.ar    1  UNL1        0.0015
     50 C          63.8979   86.4537   14.5623 C.ar    1  UNL1        0.0001
     51 C          62.7952   85.6266   14.2826 C.ar    1  UNL1        0.0012
     52 C          61.5184   86.1599   14.4635 C.ar    1  UNL1        0.0131
     53 H          59.5969   88.6258   15.3464 H       1  UNL1        0.1660
@<TRIPOS>BOND
     1     1     2    2
     2     2     3   am
     3     3    28    1
     4    28    43    1
     5    43    44    1
     6    44    45   ar
     7    45    46   ar
     8    46    47   ar
     9    47    48   ar
    10    48    49   ar
    11    49    50   ar
    12    50    51   ar
    13    51    52   ar
    14    28    29    1
    15    29    30    2
    16    29    31   am
    17    31    33    1
    18    33    34   ar
    19    34    35   ar
    20    35    36   ar
    21    36    37   ar
    22    37    38   ar
    23    38    39    1
    24    39    40    2
    25    39    41    1
    26     2     5    1
    27     5     6   ar
    28     6     7   ar
    29     7     8   ar
    30     8    12    1
    31    12    13    1
    32    13    14    1
    33    14    15    1
    34    15    18    1
    35    18    19   ar
    36    19    20   ar
    37    20    21   ar
    38    21    24    1
    39    24    25    1
    40    24    26    1
    41    24    27    1
    42    21    22   ar
    43    22    23   ar
    44    15    16    1
    45    16    17    1
    46     8     9   ar
    47     9    10   ar
    48    10    11    1
    49    52    44   ar
    50    38    33   ar
    51    10     5   ar
    52    52    47   ar
    53    17    12    1
    54    23    18   ar
    55     3     4    1
    56    46    53    1
    57    31    32    1
    58    41    42    1
@<TRIPOS>MOLECULE
*****
 53 58 0 0 0
SMALL
GASTEIGER

@<TRIPOS>ATOM
      1 O          60.1902   84.1596   11.3276 O.2     1  UNL1       -0.2701
      2 C          59.1492   84.6712   10.8313 C.2     1  UNL1        0.2483
      3 N          57.8600   84.3235   11.3626 N.am    1  UNL1       -0.2945
      4 H          57.0403   84.9212   11.1106 H       1  UNL1        0.1501
      5 C          59.2780   85.6502    9.7285 C.ar    1  UNL1        0.0808
      6 C          60.0012   86.8359    9.9347 C.ar    1  UNL1        0.0080
      7 C          60.1332   87.7760    8.9099 C.ar    1  UNL1        0.0148
      8 C          59.5523   87.5478    7.6504 C.ar    1  UNL1        0.0502
      9 C          58.8475   86.3502    7.4378 C.ar    1  UNL1        0.0443
     10 C          58.7120   85.4081    8.4625 C.ar    1  UNL1        0.1457
     11 F          58.0682   84.2435    8.1955 F       1  UNL1       -0.2040
     12 N          59.6923   88.5169    6.5875 N.pl3   1  UNL1       -0.3040
     13 C          58.5952   89.4467    6.2836 C.3     1  UNL1        0.1123
     14 C          58.5729   89.7919    4.7905 C.3     1  UNL1        0.1136
     15 N          59.9015   90.1961    4.3003 N.pl3   1  UNL1       -0.2897
     16 C          61.0841   89.9891    5.1484 C.3     1  UNL1        0.1136
     17 C          60.9831   88.6555    5.8951 C.3     1  UNL1        0.1123
     18 C          60.0334   90.9171    3.0542 C.ar    1  UNL1        0.1318
     19 C          61.2927   91.1623    2.4789 C.ar    1  UNL1        0.0343
     20 C          61.3781   91.8619    1.2742 C.ar    1  UNL1        0.0083
     21 C          60.2167   92.3382    0.6487 C.ar    1  UNL1        0.0906
     22 C          58.9774   92.0550    1.2418 C.ar    1  UNL1        0.1041
     23 N          58.9186   91.3696    2.4139 N.ar    1  UNL1       -0.2292
     24 C          60.2923   93.0512   -0.6773 C.3     1  UNL1        0.4200
     25 F          59.1728   93.8473   -0.8305 F       1  UNL1       -0.1658
     26 F          60.3445   92.1407   -1.7186 F       1  UNL1       -0.1658
     27 F          61.4236   93.8464   -0.7404 F       1  UNL1       -0.1658
     28 C          57.6748   83.2008   12.2889 C.3     1  UNL1        0.1535
     29 C          58.7863   82.1945   12.1079 C.2     1  UNL1        0.2443
     30 O          59.6196   82.0175   13.0388 O.2     1  UNL1       -0.2730
     31 N          58.8797   81.4262   10.8972 N.am    1  UNL1       -0.2823
     32 H          58.1170   81.5152   10.1892 H       1  UNL1        0.1549
     33 C          59.9742   80.5372   10.6143 C.ar    1  UNL1        0.0597
     34 C          61.1582   81.0534   10.0621 C.ar    1  UNL1        0.0356
     35 C          62.1959   80.1927    9.7117 C.ar    1  UNL1        0.1002
     36 N          62.0595   78.8554    9.8899 N.ar    1  UNL1       -0.2420
     37 C          60.9275   78.3154   10.4105 C.ar    1  UNL1        0.1065
     38 C          59.8501   79.1364   10.7931 C.ar    1  UNL1        0.1080
     39 C          58.6467   78.5094   11.3944 C.2     1  UNL1        0.3408
     40 O          58.6781   78.0973   12.5857 O.2     1  UNL1       -0.2450
     41 O          57.4633   78.3941   10.6724 O.3     1  UNL1       -0.4770
     42 H          56.6440   77.9642   11.0844 H       1  UNL1        0.2954
     43 C          57.6285   83.7201   13.7384 C.3     1  UNL1        0.0569
     44 C          58.2824   85.0666   13.8665 C.ar    1  UNL1       -0.0017
     45 C          57.7188   86.2906   13.5191 C.ar    1  UNL1        0.0681
     46 N          58.5614   87.3029   13.8257 N.ar    1  UNL1       -0.3523
     47 C          59.6471   86.7298   14.3732 C.ar    1  UNL1        0.0563
     48 C          60.7763   87.3732   14.8781 C.ar    1  UNL1        0.0170
     49 C          61.7888   86.5774   15.4437 C.ar    1  UNL1        0.0015
     50 C          61.6521   85.1725   15.4909 C.ar    1  UNL1        0.0001
     51 C          60.5016   84.5503   14.9736 C.ar    1  UNL1        0.0012
     52 C          59.5127   85.3653   14.4212 C.ar    1  UNL1        0.0131
     53 H          58.3910   88.3230   13.6821 H       1  UNL1        0.1660
@<TRIPOS>BOND
     1     1     2    2
     2     2     3   am
     3     3    28    1
     4    28    43    1
     5    43    44    1
     6    44    45   ar
     7    45    46   ar
     8    46    47   ar
     9    47    48   ar
    10    48    49   ar
    11    49    50   ar
    12    50    51   ar
    13    51    52   ar
    14    28    29    1
    15    29    30    2
    16    29    31   am
    17    31    33    1
    18    33    34   ar
    19    34    35   ar
    20    35    36   ar
    21    36    37   ar
    22    37    38   ar
    23    38    39    1
    24    39    40    2
    25    39    41    1
    26     2     5    1
    27     5     6   ar
    28     6     7   ar
    29     7     8   ar
    30     8    12    1
    31    12    13    1
    32    13    14    1
    33    14    15    1
    34    15    18    1
    35    18    19   ar
    36    19    20   ar
    37    20    21   ar
    38    21    24    1
    39    24    25    1
    40    24    26    1
    41    24    27    1
    42    21    22   ar
    43    22    23   ar
    44    15    16    1
    45    16    17    1
    46     8     9   ar
    47     9    10   ar
    48    10    11    1
    49    52    44   ar
    50    38    33   ar
    51    10     5   ar
    52    52    47   ar
    53    17    12    1
    54    23    18   ar
    55     3     4    1
    56    46    53    1
    57    31    32    1
    58    41    42    1
@<TRIPOS>MOLECULE
*****
 53 58 0 0 0
SMALL
GASTEIGER

@<TRIPOS>ATOM
      1 O          57.7834   84.4447   10.7644 O.2     1  UNL1       -0.2701
      2 C          58.8194   85.1645   10.7526 C.2     1  UNL1        0.2483
      3 N          59.7755   85.0568   11.8200 N.am    1  UNL1       -0.2945
      4 H          60.7247   85.4726   11.6816 H       1  UNL1        0.1501
      5 C          59.0482   86.0862    9.6172 C.ar    1  UNL1        0.0808
      6 C          59.8159   87.2461    9.8093 C.ar    1  UNL1        0.0080
      7 C          60.0423   88.1324    8.7535 C.ar    1  UNL1        0.0148
      8 C          59.5134   87.8744    7.4769 C.ar    1  UNL1        0.0502
      9 C          58.7638   86.7016    7.2798 C.ar    1  UNL1        0.0443
     10 C          58.5338   85.8135    8.3354 C.ar    1  UNL1        0.1457
     11 F          57.8493   84.6684    8.0858 F       1  UNL1       -0.2040
     12 N          59.7509   88.7876    6.3823 N.pl3   1  UNL1       -0.3040
     13 C          58.7782   89.8462    6.0764 C.3     1  UNL1        0.1123
     14 C          58.7608   90.1512    4.5745 C.3     1  UNL1        0.1136
     15 N          60.1173   90.3623    4.0411 N.pl3   1  UNL1       -0.2897
     16 C          61.2849   90.0230    4.8670 C.3     1  UNL1        0.1136
     17 C          61.0293   88.7351    5.6558 C.3     1  UNL1        0.1123
     18 C          60.3091   91.0259    2.7711 C.ar    1  UNL1        0.1318
     19 C          59.2437   91.6578    2.1059 C.ar    1  UNL1        0.0343
     20 C          59.4698   92.2882    0.8814 C.ar    1  UNL1        0.0083
     21 C          60.7478   92.2747    0.3039 C.ar    1  UNL1        0.0906
     22 C          61.7898   91.6531    1.0080 C.ar    1  UNL1        0.1041
     23 N          61.5465   91.0480    2.2003 N.ar    1  UNL1       -0.2292
     24 C          61.0152   92.9947   -0.9933 C.3     1  UNL1        0.4200
     25 F          62.0902   93.8476   -0.8271 F       1  UNL1       -0.1658
     26 F          59.9093   93.7324   -1.3790 F       1  UNL1       -0.1658
     27 F          61.3068   92.0922   -2.0015 F       1  UNL1       -0.1658
     28 C          59.4805   84.3333   13.0618 C.3     1  UNL1        0.1535
     29 C          58.7986   83.0234   12.7455 C.2     1  UNL1        0.2443
     30 O          57.6987   82.7479   13.2993 O.2     1  UNL1       -0.2730
     31 N          59.3831   82.1100   11.8028 N.am    1  UNL1       -0.2823
     32 H          60.2362   82.4097   11.2802 H       1  UNL1        0.1549
     33 C          58.8470   80.8011   11.5425 C.ar    1  UNL1        0.0597
     34 C          58.8551   79.8360   12.5630 C.ar    1  UNL1        0.0356
     35 C          58.4105   78.5421   12.3011 C.ar    1  UNL1        0.1002
     36 N          57.9828   78.2088   11.0583 N.ar    1  UNL1       -0.2420
     37 C          57.9692   79.1089   10.0417 C.ar    1  UNL1        0.1065
     38 C          58.3963   80.4338   10.2496 C.ar    1  UNL1        0.1080
     39 C          58.3283   81.3964    9.1218 C.2     1  UNL1        0.3408
     40 O          57.4297   81.2789    8.2450 O.2     1  UNL1       -0.2450
     41 O          59.2264   82.4545    9.0289 O.3     1  UNL1       -0.4770
     42 H          59.1790   83.1090    8.2573 H       1  UNL1        0.2954
     43 C          60.7807   84.1034   13.8553 C.3     1  UNL1        0.0569
     44 C          61.7443   85.2432   13.6840 C.ar    1  UNL1       -0.0017
     45 C          62.2946   85.6810   12.4831 C.ar    1  UNL1        0.0681
     46 N          63.0715   86.7687   12.6881 N.ar    1  UNL1       -0.3523
     47 C          63.0081   87.0278   14.0056 C.ar    1  UNL1        0.0563
     48 C          63.6210   88.0770   14.6892 C.ar    1  UNL1        0.0170
     49 C          63.3912   88.1836   16.0728 C.ar    1  UNL1        0.0015
     50 C          62.5643   87.2494   16.7347 C.ar    1  UNL1        0.0001
     51 C          61.9588   86.2006   16.0194 C.ar    1  UNL1        0.0012
     52 C          62.2026   86.1217   14.6476 C.ar    1  UNL1        0.0131
     53 H          63.5971   87.3067   11.9637 H       1  UNL1        0.1660
@<TRIPOS>BOND
     1     1     2    2
     2     2     3   am
     3     3    28    1
     4    28    43    1
     5    43    44    1
     6    44    45   ar
     7    45    46   ar
     8    46    47   ar
     9    47    48   ar
    10    48    49   ar
    11    49    50   ar
    12    50    51   ar
    13    51    52   ar
    14    28    29    1
    15    29    30    2
    16    29    31   am
    17    31    33    1
    18    33    34   ar
    19    34    35   ar
    20    35    36   ar
    21    36    37   ar
    22    37    38   ar
    23    38    39    1
    24    39    40    2
    25    39    41    1
    26     2     5    1
    27     5     6   ar
    28     6     7   ar
    29     7     8   ar
    30     8    12    1
    31    12    13    1
    32    13    14    1
    33    14    15    1
    34    15    18    1
    35    18    19   ar
    36    19    20   ar
    37    20    21   ar
    38    21    24    1
    39    24    25    1
    40    24    26    1
    41    24    27    1
    42    21    22   ar
    43    22    23   ar
    44    15    16    1
    45    16    17    1
    46     8     9   ar
    47     9    10   ar
    48    10    11    1
    49    52    44   ar
    50    38    33   ar
    51    10     5   ar
    52    52    47   ar
    53    17    12    1
    54    23    18   ar
    55     3     4    1
    56    46    53    1
    57    31    32    1
    58    41    42    1
@<TRIPOS>MOLECULE
*****
 53 58 0 0 0
SMALL
GASTEIGER

@<TRIPOS>ATOM
      1 O          57.7522   84.9989   11.1910 O.2     1  UNL1       -0.2701
      2 C          58.9152   85.4145   10.9335 C.2     1  UNL1        0.2483
      3 N          60.0154   85.0205   11.7698 N.am    1  UNL1       -0.2945
      4 H          60.9877   85.1707   11.4164 H       1  UNL1        0.1501
      5 C          59.1309   86.2768    9.7498 C.ar    1  UNL1        0.0808
      6 C          59.8557   87.4718    9.8851 C.ar    1  UNL1        0.0080
      7 C          60.0688   88.3032    8.7829 C.ar    1  UNL1        0.0148
      8 C          59.5694   87.9540    7.5161 C.ar    1  UNL1        0.0502
      9 C          58.8633   86.7464    7.3769 C.ar    1  UNL1        0.0443
     10 C          58.6466   85.9131    8.4789 C.ar    1  UNL1        0.1457
     11 F          58.0054   84.7325    8.2866 F       1  UNL1       -0.2040
     12 N          59.7934   88.8104    6.3738 N.pl3   1  UNL1       -0.3040
     13 C          58.7976   89.8258    6.0026 C.3     1  UNL1        0.1123
     14 C          58.7850   90.0461    4.4859 C.3     1  UNL1        0.1136
     15 N          60.1401   90.2609    3.9508 N.pl3   1  UNL1       -0.2897
     16 C          61.3090   89.9973    4.8022 C.3     1  UNL1        0.1136
     17 C          61.0786   88.7493    5.6600 C.3     1  UNL1        0.1123
     18 C          60.3260   90.8572    2.6470 C.ar    1  UNL1        0.1318
     19 C          59.2597   91.4632    1.9594 C.ar    1  UNL1        0.0343
     20 C          59.4800   92.0284    0.7024 C.ar    1  UNL1        0.0083
     21 C          60.7527   91.9750    0.1156 C.ar    1  UNL1        0.0906
     22 C          61.7960   91.3815    0.8418 C.ar    1  UNL1        0.1041
     23 N          61.5585   90.8399    2.0654 N.ar    1  UNL1       -0.2292
     24 C          61.0143   92.6256   -1.2188 C.3     1  UNL1        0.4200
     25 F          59.8125   92.8220   -1.8728 F       1  UNL1       -0.1658
     26 F          61.8281   91.8245   -2.0011 F       1  UNL1       -0.1658
     27 F          61.6420   93.8479   -1.0514 F       1  UNL1       -0.1658
     28 C          59.8140   84.3634   13.0661 C.3     1  UNL1        0.1535
     29 C          59.1378   83.0277   12.8673 C.2     1  UNL1        0.2443
     30 O          58.3133   82.6162   13.7292 O.2     1  UNL1       -0.2730
     31 N          59.4106   82.2437   11.6944 N.am    1  UNL1       -0.2823
     32 H          60.0133   82.6555   10.9474 H       1  UNL1        0.1549
     33 C          58.8904   80.9172   11.4987 C.ar    1  UNL1        0.0597
     34 C          59.1391   79.9284   12.4648 C.ar    1  UNL1        0.0356
     35 C          58.7075   78.6214   12.2503 C.ar    1  UNL1        0.1002
     36 N          58.0598   78.2989   11.1035 N.ar    1  UNL1       -0.2420
     37 C          57.8092   79.2225   10.1401 C.ar    1  UNL1        0.1065
     38 C          58.2118   80.5610   10.3061 C.ar    1  UNL1        0.1080
     39 C          57.8835   81.5471    9.2464 C.2     1  UNL1        0.3408
     40 O          57.8634   81.1909    8.0370 O.2     1  UNL1       -0.2450
     41 O          57.5643   82.8625    9.5670 O.3     1  UNL1       -0.4770
     42 H          57.3424   83.5340    8.8419 H       1  UNL1        0.2954
     43 C          61.1663   84.1981   13.7850 C.3     1  UNL1        0.0569
     44 C          61.9353   83.0206   13.2564 C.ar    1  UNL1       -0.0017
     45 C          62.0957   81.7921   13.8901 C.ar    1  UNL1        0.0681
     46 N          62.7929   80.9418   13.1029 N.ar    1  UNL1       -0.3523
     47 C          63.0647   81.6189   11.9739 C.ar    1  UNL1        0.0563
     48 C          63.7381   81.1460   10.8484 C.ar    1  UNL1        0.0170
     49 C          63.8829   82.0179    9.7542 C.ar    1  UNL1        0.0015
     50 C          63.3583   83.3280    9.8090 C.ar    1  UNL1        0.0001
     51 C          62.6834   83.7783   10.9579 C.ar    1  UNL1        0.0012
     52 C          62.5526   82.8905   12.0266 C.ar    1  UNL1        0.0131
     53 H          63.0492   79.9539   13.3236 H       1  UNL1        0.1660
@<TRIPOS>BOND
     1     1     2    2
     2     2     3   am
     3     3    28    1
     4    28    43    1
     5    43    44    1
     6    44    45   ar
     7    45    46   ar
     8    46    47   ar
     9    47    48   ar
    10    48    49   ar
    11    49    50   ar
    12    50    51   ar
    13    51    52   ar
    14    28    29    1
    15    29    30    2
    16    29    31   am
    17    31    33    1
    18    33    34   ar
    19    34    35   ar
    20    35    36   ar
    21    36    37   ar
    22    37    38   ar
    23    38    39    1
    24    39    40    2
    25    39    41    1
    26     2     5    1
    27     5     6   ar
    28     6     7   ar
    29     7     8   ar
    30     8    12    1
    31    12    13    1
    32    13    14    1
    33    14    15    1
    34    15    18    1
    35    18    19   ar
    36    19    20   ar
    37    20    21   ar
    38    21    24    1
    39    24    25    1
    40    24    26    1
    41    24    27    1
    42    21    22   ar
    43    22    23   ar
    44    15    16    1
    45    16    17    1
    46     8     9   ar
    47     9    10   ar
    48    10    11    1
    49    52    44   ar
    50    38    33   ar
    51    10     5   ar
    52    52    47   ar
    53    17    12    1
    54    23    18   ar
    55     3     4    1
    56    46    53    1
    57    31    32    1
    58    41    42    1
