@<TRIPOS>MOLECULE
*****
 60 64 0 0 0
SMALL
GASTEIGER

@<TRIPOS>ATOM
      1 C         -18.8831   -9.9536   -9.2924 C.ar    1  UNL1        0.1744
      2 C         -18.8705   -9.7332   -7.9009 C.ar    1  UNL1        0.0447
      3 C         -19.4323   -8.5717   -7.3480 C.ar    1  UNL1        0.0578
      4 C         -20.0251   -7.6306   -8.1995 C.ar    1  UNL1        0.0237
      5 C         -20.0634   -7.8436   -9.5797 C.ar    1  UNL1        0.1024
      6 C         -19.5212   -9.0117  -10.1376 C.ar    1  UNL1        0.1934
      7 C         -19.4035   -8.3310   -5.8860 C.2     1  UNL1        0.2459
      8 O         -20.4903   -8.3155   -5.2474 O.2     1  UNL1       -0.2701
      9 N         -18.1570   -8.0924   -5.2022 N.am    1  UNL1       -0.3040
     10 H         -17.3223   -7.8769   -5.7937 H       1  UNL1        0.1496
     11 C         -17.9805   -8.1166   -3.7365 C.3     1  UNL1        0.0572
     12 C         -16.4769   -8.2401   -3.4140 C.3     1  UNL1        0.0196
     13 C         -18.5082   -6.8096   -3.1131 C.3     1  UNL1        0.0196
     14 C         -18.7107   -9.3319   -3.1321 C.3     1  UNL1        0.0196
     15 C         -17.3687  -11.9515   -9.1619 C.3     1  UNL1        0.2526
     16 O         -18.2501  -11.0740   -9.8547 O.3     1  UNL1       -0.4683
     17 N         -20.5786   -6.8219  -10.4333 N.pl3   1  UNL1       -0.2119
     18 H         -19.9093   -6.2918  -11.0343 H       1  UNL1        0.1738
     19 S         -22.0547   -6.0300   -9.9979 S.O2    1  UNL1        0.0745
     20 O         -21.9289   -4.5479  -10.2127 O.2     1  UNL1       -0.1499
     21 O         -22.3232   -6.2669   -8.5381 O.2     1  UNL1       -0.1499
     22 C         -23.3743   -6.7076  -10.9657 C.ar    1  UNL1        0.1356
     23 C         -23.9472   -5.9116  -11.9664 C.ar    1  UNL1        0.0207
     24 C         -25.0501   -6.3616  -12.6942 C.ar    1  UNL1       -0.0028
     25 C         -25.6220   -7.6207  -12.4220 C.ar    1  UNL1       -0.0216
     26 C         -25.0412   -8.4198  -11.4263 C.ar    1  UNL1        0.0085
     27 C         -23.9266   -7.9799  -10.7026 C.ar    1  UNL1        0.0762
     28 CL        -23.2822   -9.0557   -9.4675 Cl      1  UNL1       -0.0809
     29 C         -26.8626   -8.1526  -13.1195 C.3     1  UNL1        0.0224
     30 C         -28.2048   -7.8416  -12.4694 C.3     1  UNL1        0.0047
     31 C         -27.8010   -7.1396  -13.7600 C.3     1  UNL1        0.0047
     32 O         -19.5897   -9.1534  -11.5377 O.3     1  UNL1       -0.4482
     33 C         -20.7547   -9.3409  -12.2891 C.ar    1  UNL1        0.1582
     34 C         -21.1737   -8.3110  -13.1353 C.ar    1  UNL1        0.0677
     35 C         -22.2612   -8.4933  -13.9902 C.ar    1  UNL1        0.1398
     36 F         -22.6010   -7.5017  -14.8522 F       1  UNL1       -0.2044
     37 C         -22.9604   -9.7118  -13.9896 C.ar    1  UNL1        0.0175
     38 C         -22.5898  -10.7179  -13.0823 C.ar    1  UNL1        0.0130
     39 C         -21.5070  -10.5292  -12.2163 C.ar    1  UNL1        0.0919
     40 CL        -21.1058  -11.7970  -11.0659 Cl      1  UNL1       -0.0791
     41 C         -24.0053   -9.9873  -15.0344 C.3     1  UNL1        0.1382
     42 C         -23.3424  -10.5632  -16.2443 C.2     1  UNL1        0.3234
     43 O         -23.7072  -10.1912  -17.3932 O.2     1  UNL1       -0.2497
     44 O         -22.3746  -11.5612  -16.0896 O.3     1  UNL1       -0.4215
     45 C         -22.2996  -12.7077  -16.9358 C.3     1  UNL1        0.3207
     46 O         -23.5704  -13.3579  -16.9564 O.3     1  UNL1       -0.3070
     47 C         -23.6369  -14.5796  -16.2325 C.3     1  UNL1        0.2456
     48 C         -22.8728  -14.5284  -14.8912 C.3     1  UNL1        0.1781
     49 O         -23.0151  -15.7577  -14.2245 O.3     1  UNL1       -0.3790
     50 C         -21.3702  -14.2242  -15.1171 C.3     1  UNL1        0.1733
     51 O         -20.9075  -13.3548  -14.1144 O.3     1  UNL1       -0.3793
     52 C         -21.1092  -13.5869  -16.4989 C.3     1  UNL1        0.2106
     53 O         -20.8905  -14.5819  -17.4678 O.3     1  UNL1       -0.3766
     54 H         -22.6951  -15.6201  -13.2955 H       1  UNL1        0.2106
     55 H         -20.8385  -13.8881  -13.2797 H       1  UNL1        0.2105
     56 H         -19.9657  -14.9177  -17.3335 H       1  UNL1        0.2107
     57 C         -25.0851  -14.9057  -15.9868 C.2     1  UNL1        0.3439
     58 O         -25.6709  -14.4415  -14.9732 O.2     1  UNL1       -0.2475
     59 O         -25.7985  -15.6992  -16.8803 O.3     1  UNL1       -0.4785
     60 H         -25.3546  -16.0944  -17.6991 H       1  UNL1        0.2951
@<TRIPOS>BOND
     1    15    16    1
     2    16     1    1
     3     1     2   ar
     4     2     3   ar
     5     3     7    1
     6     7     8    2
     7     7     9   am
     8     9    11    1
     9    11    12    1
    10    11    13    1
    11    11    14    1
    12     3     4   ar
    13     4     5   ar
    14     5    17    1
    15    17    19    1
    16    19    20    2
    17    19    21    2
    18    19    22    1
    19    22    23   ar
    20    23    24   ar
    21    24    25   ar
    22    25    29    1
    23    29    30    1
    24    30    31    1
    25    25    26   ar
    26    26    27   ar
    27    27    28    1
    28     5     6   ar
    29     6    32    1
    30    32    33    1
    31    33    34   ar
    32    34    35   ar
    33    35    36    1
    34    35    37   ar
    35    37    41    1
    36    41    42    1
    37    42    43    2
    38    42    44    1
    39    44    45    1
    40    45    46    1
    41    46    47    1
    42    47    57    1
    43    57    58    2
    44    57    59    1
    45    47    48    1
    46    48    49    1
    47    48    50    1
    48    50    51    1
    49    50    52    1
    50    52    53    1
    51    37    38   ar
    52    38    39   ar
    53    39    40    1
    54     6     1   ar
    55    39    33   ar
    56    27    22   ar
    57    52    45    1
    58    31    29    1
    59     9    10    1
    60    17    18    1
    61    59    60    1
    62    49    54    1
    63    51    55    1
    64    53    56    1
@<TRIPOS>MOLECULE
*****
 60 64 0 0 0
SMALL
GASTEIGER

@<TRIPOS>ATOM
      1 C         -25.4862   -8.2002  -12.3791 C.ar    1  UNL1        0.1744
      2 C         -26.2327   -7.1319  -12.9145 C.ar    1  UNL1        0.0447
      3 C         -25.7796   -6.4263  -14.0402 C.ar    1  UNL1        0.0578
      4 C         -24.5734   -6.8072  -14.6421 C.ar    1  UNL1        0.0237
      5 C         -23.8313   -7.8768  -14.1353 C.ar    1  UNL1        0.1024
      6 C         -24.2879   -8.5993  -13.0221 C.ar    1  UNL1        0.1934
      7 C         -26.5556   -5.2912  -14.5931 C.2     1  UNL1        0.2459
      8 O         -27.1631   -4.5222  -13.8002 O.2     1  UNL1       -0.2701
      9 N         -26.6391   -5.0787  -16.0165 N.am    1  UNL1       -0.3040
     10 H         -26.3289   -5.8627  -16.6346 H       1  UNL1        0.1496
     11 C         -27.1414   -3.8473  -16.6577 C.3     1  UNL1        0.0572
     12 C         -26.9214   -3.9491  -18.1814 C.3     1  UNL1        0.0196
     13 C         -28.6506   -3.6837  -16.3919 C.3     1  UNL1        0.0196
     14 C         -26.3687   -2.6208  -16.1341 C.3     1  UNL1        0.0196
     15 C         -26.7703   -8.3072  -10.2246 C.3     1  UNL1        0.2526
     16 O         -25.8955   -8.8541  -11.2057 O.3     1  UNL1       -0.4683
     17 N         -22.5560   -8.1769  -14.7022 N.pl3   1  UNL1       -0.2119
     18 H         -21.8028   -7.4563  -14.6414 H       1  UNL1        0.1738
     19 S         -22.4623   -9.3168  -16.0012 S.O2    1  UNL1        0.0745
     20 O         -21.0252   -9.6011  -16.3367 O.2     1  UNL1       -0.1499
     21 O         -23.1152   -8.7240  -17.2184 O.2     1  UNL1       -0.1499
     22 C         -23.3138  -10.7957  -15.5269 C.ar    1  UNL1        0.1356
     23 C         -24.6784  -10.9068  -15.8249 C.ar    1  UNL1        0.0207
     24 C         -25.4176  -12.0088  -15.3914 C.ar    1  UNL1       -0.0028
     25 C         -24.8078  -13.0238  -14.6268 C.ar    1  UNL1       -0.0216
     26 C         -23.4397  -12.9151  -14.3376 C.ar    1  UNL1        0.0085
     27 C         -22.6899  -11.8193  -14.7814 C.ar    1  UNL1        0.0762
     28 CL        -20.9830  -11.7749  -14.3543 Cl      1  UNL1       -0.0809
     29 C         -25.5566  -14.2176  -14.0590 C.3     1  UNL1        0.0224
     30 C         -25.8069  -14.2224  -12.5563 C.3     1  UNL1        0.0047
     31 C         -26.9606  -13.9794  -13.5214 C.3     1  UNL1        0.0047
     32 O         -23.4823   -9.6601  -12.5630 O.3     1  UNL1       -0.4482
     33 C         -22.4534   -9.5625  -11.6202 C.ar    1  UNL1        0.1582
     34 C         -21.2042   -9.1018  -12.0437 C.ar    1  UNL1        0.0677
     35 C         -20.1812   -8.8767  -11.1220 C.ar    1  UNL1        0.1398
     36 F         -19.0020   -8.3609  -11.5524 F       1  UNL1       -0.2044
     37 C         -20.3937   -9.1349   -9.7575 C.ar    1  UNL1        0.0175
     38 C         -21.6224   -9.6742   -9.3420 C.ar    1  UNL1        0.0130
     39 C         -22.6433   -9.9117  -10.2691 C.ar    1  UNL1        0.0919
     40 CL        -24.1488  -10.6294   -9.7124 Cl      1  UNL1       -0.0791
     41 C         -19.3711   -8.7175   -8.7382 C.3     1  UNL1        0.1382
     42 C         -19.9512   -7.6379   -7.8821 C.2     1  UNL1        0.3234
     43 O         -20.6545   -6.7328   -8.4090 O.2     1  UNL1       -0.2497
     44 O         -19.6476   -7.6039   -6.5170 O.3     1  UNL1       -0.4215
     45 C         -19.4370   -8.7812   -5.7390 C.3     1  UNL1        0.3207
     46 O         -20.2716   -8.7327   -4.5817 O.3     1  UNL1       -0.3070
     47 C         -19.5960   -8.4690   -3.3590 C.3     1  UNL1        0.2456
     48 C         -18.4912   -7.3987   -3.4989 C.3     1  UNL1        0.1781
     49 O         -17.8974   -7.1727   -2.2450 O.3     1  UNL1       -0.3790
     50 C         -17.4122   -7.8417   -4.5190 C.3     1  UNL1        0.1733
     51 O         -17.0022   -6.7364   -5.2841 O.3     1  UNL1       -0.3793
     52 C         -17.9277   -8.9479   -5.4645 C.3     1  UNL1        0.2106
     53 O         -17.6975  -10.2188   -4.9090 O.3     1  UNL1       -0.3766
     54 H         -17.3499   -6.3496   -2.3299 H       1  UNL1        0.2106
     55 H         -16.4402   -6.1694   -4.6936 H       1  UNL1        0.2105
     56 H         -16.7329  -10.4184   -5.0342 H       1  UNL1        0.2107
     57 C         -20.6134   -8.0275   -2.3421 C.2     1  UNL1        0.3439
     58 O         -21.4907   -8.8359   -1.9384 O.2     1  UNL1       -0.2475
     59 O         -20.5859   -6.7377   -1.8200 O.3     1  UNL1       -0.4785
     60 H         -19.8996   -6.0621   -2.1300 H       1  UNL1        0.2951
@<TRIPOS>BOND
     1    15    16    1
     2    16     1    1
     3     1     2   ar
     4     2     3   ar
     5     3     7    1
     6     7     8    2
     7     7     9   am
     8     9    11    1
     9    11    12    1
    10    11    13    1
    11    11    14    1
    12     3     4   ar
    13     4     5   ar
    14     5    17    1
    15    17    19    1
    16    19    20    2
    17    19    21    2
    18    19    22    1
    19    22    23   ar
    20    23    24   ar
    21    24    25   ar
    22    25    29    1
    23    29    30    1
    24    30    31    1
    25    25    26   ar
    26    26    27   ar
    27    27    28    1
    28     5     6   ar
    29     6    32    1
    30    32    33    1
    31    33    34   ar
    32    34    35   ar
    33    35    36    1
    34    35    37   ar
    35    37    41    1
    36    41    42    1
    37    42    43    2
    38    42    44    1
    39    44    45    1
    40    45    46    1
    41    46    47    1
    42    47    57    1
    43    57    58    2
    44    57    59    1
    45    47    48    1
    46    48    49    1
    47    48    50    1
    48    50    51    1
    49    50    52    1
    50    52    53    1
    51    37    38   ar
    52    38    39   ar
    53    39    40    1
    54     6     1   ar
    55    39    33   ar
    56    27    22   ar
    57    52    45    1
    58    31    29    1
    59     9    10    1
    60    17    18    1
    61    59    60    1
    62    49    54    1
    63    51    55    1
    64    53    56    1
@<TRIPOS>MOLECULE
*****
 60 64 0 0 0
SMALL
GASTEIGER

@<TRIPOS>ATOM
      1 C         -21.0360   -6.6400   -9.9008 C.ar    1  UNL1        0.1744
      2 C         -20.5819   -6.7507   -8.5716 C.ar    1  UNL1        0.0447
      3 C         -19.9238   -7.9078   -8.1266 C.ar    1  UNL1        0.0578
      4 C         -19.7067   -8.9569   -9.0292 C.ar    1  UNL1        0.0237
      5 C         -20.1333   -8.8549  -10.3556 C.ar    1  UNL1        0.1024
      6 C         -20.7745   -7.6931  -10.8125 C.ar    1  UNL1        0.1934
      7 C         -19.4617   -8.0319   -6.7240 C.2     1  UNL1        0.2459
      8 O         -20.2472   -8.5099   -5.8616 O.2     1  UNL1       -0.2701
      9 N         -18.1440   -7.5913   -6.3399 N.am    1  UNL1       -0.3040
     10 H         -17.6249   -6.9907   -7.0202 H       1  UNL1        0.1496
     11 C         -17.4868   -7.9139   -5.0577 C.3     1  UNL1        0.0572
     12 C         -16.0882   -7.2630   -5.0328 C.3     1  UNL1        0.0196
     13 C         -18.3078   -7.3526   -3.8804 C.3     1  UNL1        0.0196
     14 C         -17.3178   -9.4391   -4.9146 C.3     1  UNL1        0.0196
     15 C         -21.2641   -4.4823  -11.1635 C.3     1  UNL1        0.2526
     16 O         -21.7663   -5.5186  -10.3263 O.3     1  UNL1       -0.4683
     17 N         -19.9938   -9.9779  -11.2258 N.pl3   1  UNL1       -0.2119
     18 H         -19.4881   -9.8465  -12.1299 H       1  UNL1        0.1738
     19 S         -21.1639  -11.2508  -11.1474 S.O2    1  UNL1        0.0745
     20 O         -22.1561  -10.9741  -10.0530 O.2     1  UNL1       -0.1499
     21 O         -20.4617  -12.5396  -10.8231 O.2     1  UNL1       -0.1499
     22 C         -21.9668  -11.3873  -12.7202 C.ar    1  UNL1        0.1356
     23 C         -21.1729  -11.5092  -13.8683 C.ar    1  UNL1        0.0207
     24 C         -21.7509  -11.5258  -15.1389 C.ar    1  UNL1       -0.0028
     25 C         -23.1464  -11.4002  -15.2922 C.ar    1  UNL1       -0.0216
     26 C         -23.9399  -11.2876  -14.1412 C.ar    1  UNL1        0.0085
     27 C         -23.3674  -11.2843  -12.8637 C.ar    1  UNL1        0.0762
     28 CL        -24.4521  -11.1270  -11.4865 Cl      1  UNL1       -0.0809
     29 C         -23.8451  -11.3391  -16.6400 C.3     1  UNL1        0.0224
     30 C         -23.3857  -10.2538  -17.6053 C.3     1  UNL1        0.0047
     31 C         -23.0339  -11.7119  -17.8729 C.3     1  UNL1        0.0047
     32 O         -21.1831   -7.6659  -12.1606 O.3     1  UNL1       -0.4482
     33 C         -22.5010   -7.7497  -12.6220 C.ar    1  UNL1        0.1582
     34 C         -23.5348   -7.7726  -11.6824 C.ar    1  UNL1        0.0677
     35 C         -24.8678   -7.7383  -12.0931 C.ar    1  UNL1        0.1398
     36 F         -25.8494   -7.6889  -11.1573 F       1  UNL1       -0.2044
     37 C         -25.1818   -7.7035  -13.4620 C.ar    1  UNL1        0.0175
     38 C         -24.1452   -7.7617  -14.4080 C.ar    1  UNL1        0.0130
     39 C         -22.8090   -7.8092  -13.9949 C.ar    1  UNL1        0.0919
     40 CL        -21.5454   -7.9267  -15.2119 Cl      1  UNL1       -0.0791
     41 C         -26.5981   -7.4736  -13.9098 C.3     1  UNL1        0.1382
     42 C         -26.8728   -6.0041  -13.9170 C.2     1  UNL1        0.3234
     43 O         -26.8514   -5.3592  -12.8331 O.2     1  UNL1       -0.2497
     44 O         -27.2213   -5.3747  -15.1167 O.3     1  UNL1       -0.4215
     45 C         -27.1651   -3.9603  -15.2962 C.3     1  UNL1        0.3207
     46 O         -28.3806   -3.5167  -15.8994 O.3     1  UNL1       -0.3070
     47 C         -28.2757   -3.1407  -17.2665 C.3     1  UNL1        0.2456
     48 C         -27.3655   -4.0840  -18.0834 C.3     1  UNL1        0.1781
     49 O         -27.3420   -3.6652  -19.4251 O.3     1  UNL1       -0.3790
     50 C         -25.9249   -4.1005  -17.5129 C.3     1  UNL1        0.1733
     51 O         -25.4106   -5.4075  -17.5643 O.3     1  UNL1       -0.3793
     52 C         -25.8727   -3.5937  -16.0556 C.3     1  UNL1        0.2106
     53 O         -25.6993   -2.1989  -16.0241 O.3     1  UNL1       -0.3766
     54 H         -26.9260   -4.3985  -19.9483 H       1  UNL1        0.2106
     55 H         -25.2070   -5.6000  -18.5170 H       1  UNL1        0.2105
     56 H         -24.7438   -2.0219  -16.2283 H       1  UNL1        0.2107
     57 C         -29.6586   -3.1205  -17.8590 C.2     1  UNL1        0.3439
     58 O         -30.0890   -4.1246  -18.4854 O.2     1  UNL1       -0.2475
     59 O         -30.4838   -2.0104  -17.7049 O.3     1  UNL1       -0.4785
     60 H         -30.1646   -1.1848  -17.2148 H       1  UNL1        0.2951
@<TRIPOS>BOND
     1    15    16    1
     2    16     1    1
     3     1     2   ar
     4     2     3   ar
     5     3     7    1
     6     7     8    2
     7     7     9   am
     8     9    11    1
     9    11    12    1
    10    11    13    1
    11    11    14    1
    12     3     4   ar
    13     4     5   ar
    14     5    17    1
    15    17    19    1
    16    19    20    2
    17    19    21    2
    18    19    22    1
    19    22    23   ar
    20    23    24   ar
    21    24    25   ar
    22    25    29    1
    23    29    30    1
    24    30    31    1
    25    25    26   ar
    26    26    27   ar
    27    27    28    1
    28     5     6   ar
    29     6    32    1
    30    32    33    1
    31    33    34   ar
    32    34    35   ar
    33    35    36    1
    34    35    37   ar
    35    37    41    1
    36    41    42    1
    37    42    43    2
    38    42    44    1
    39    44    45    1
    40    45    46    1
    41    46    47    1
    42    47    57    1
    43    57    58    2
    44    57    59    1
    45    47    48    1
    46    48    49    1
    47    48    50    1
    48    50    51    1
    49    50    52    1
    50    52    53    1
    51    37    38   ar
    52    38    39   ar
    53    39    40    1
    54     6     1   ar
    55    39    33   ar
    56    27    22   ar
    57    52    45    1
    58    31    29    1
    59     9    10    1
    60    17    18    1
    61    59    60    1
    62    49    54    1
    63    51    55    1
    64    53    56    1
@<TRIPOS>MOLECULE
*****
 60 64 0 0 0
SMALL
GASTEIGER

@<TRIPOS>ATOM
      1 C         -19.0081   -9.9435   -9.5053 C.ar    1  UNL1        0.1744
      2 C         -18.9816   -9.7565   -8.1090 C.ar    1  UNL1        0.0447
      3 C         -19.4558   -8.5691   -7.5297 C.ar    1  UNL1        0.0578
      4 C         -19.9750   -7.5671   -8.3595 C.ar    1  UNL1        0.0237
      5 C         -20.0266   -7.7450   -9.7442 C.ar    1  UNL1        0.1024
      6 C         -19.5724   -8.9374  -10.3287 C.ar    1  UNL1        0.1934
      7 C         -19.4116   -8.3647   -6.0626 C.2     1  UNL1        0.2459
      8 O         -20.4872   -8.4091   -5.4066 O.2     1  UNL1       -0.2701
      9 N         -18.1642   -8.0937   -5.3929 N.am    1  UNL1       -0.3040
     10 H         -17.3489   -7.8299   -5.9918 H       1  UNL1        0.1496
     11 C         -17.9619   -8.1480   -3.9314 C.3     1  UNL1        0.0572
     12 C         -18.6520   -9.4112   -3.3758 C.3     1  UNL1        0.0196
     13 C         -16.4584   -8.2281   -3.6025 C.3     1  UNL1        0.0196
     14 C         -18.5926   -6.9122   -3.2601 C.3     1  UNL1        0.0196
     15 C         -17.6592  -12.0588   -9.4170 C.3     1  UNL1        0.2526
     16 O         -18.4598  -11.0950  -10.0930 O.3     1  UNL1       -0.4683
     17 N         -20.4624   -6.6685  -10.5742 N.pl3   1  UNL1       -0.2119
     18 H         -19.7472   -6.1463  -11.1276 H       1  UNL1        0.1738
     19 S         -21.9181   -5.8276  -10.1627 S.O2    1  UNL1        0.0745
     20 O         -21.8091   -4.3817  -10.5577 O.2     1  UNL1       -0.1499
     21 O         -22.1127   -5.8892   -8.6735 O.2     1  UNL1       -0.1499
     22 C         -23.2815   -6.6127  -10.9762 C.ar    1  UNL1        0.1356
     23 C         -23.8400   -5.9883  -12.0994 C.ar    1  UNL1        0.0207
     24 C         -24.9733   -6.5154  -12.7210 C.ar    1  UNL1       -0.0028
     25 C         -25.5906   -7.6781  -12.2171 C.ar    1  UNL1       -0.0216
     26 C         -25.0245   -8.3066  -11.0984 C.ar    1  UNL1        0.0085
     27 C         -23.8799   -7.7907  -10.4791 C.ar    1  UNL1        0.0762
     28 CL        -23.2570   -8.6503   -9.0751 Cl      1  UNL1       -0.0809
     29 C         -26.8643   -8.2741  -12.7924 C.3     1  UNL1        0.0224
     30 C         -28.1790   -7.8195  -12.1714 C.3     1  UNL1        0.0047
     31 C         -27.7903   -7.3468  -13.5668 C.3     1  UNL1        0.0047
     32 O         -19.6488   -9.0416  -11.7317 O.3     1  UNL1       -0.4482
     33 C         -20.8235   -9.0955  -12.4894 C.ar    1  UNL1        0.1582
     34 C         -21.0140   -8.1397  -13.4906 C.ar    1  UNL1        0.0677
     35 C         -22.1113   -8.2200  -14.3486 C.ar    1  UNL1        0.1398
     36 F         -22.2323   -7.3199  -15.3570 F       1  UNL1       -0.2044
     37 C         -23.0496   -9.2545  -14.1964 C.ar    1  UNL1        0.0175
     38 C         -22.9018  -10.1682  -13.1399 C.ar    1  UNL1        0.0130
     39 C         -21.8077  -10.0790  -12.2720 C.ar    1  UNL1        0.0919
     40 CL        -21.6858  -11.2158  -10.9361 Cl      1  UNL1       -0.0791
     41 C         -24.1238   -9.4620  -15.2270 C.3     1  UNL1        0.1382
     42 C         -23.9349  -10.8020  -15.8624 C.2     1  UNL1        0.3234
     43 O         -23.0225  -10.9646  -16.7182 O.2     1  UNL1       -0.2497
     44 O         -24.8187  -11.8412  -15.5532 O.3     1  UNL1       -0.4215
     45 C         -24.6998  -12.6365  -14.3744 C.3     1  UNL1        0.3207
     46 O         -23.3210  -12.7449  -14.0203 O.3     1  UNL1       -0.3070
     47 C         -22.7297  -14.0132  -14.2712 C.3     1  UNL1        0.2456
     48 C         -23.1835  -14.6361  -15.6098 C.3     1  UNL1        0.1781
     49 O         -22.5310  -15.8669  -15.7980 O.3     1  UNL1       -0.3790
     50 C         -24.7185  -14.8461  -15.6347 C.3     1  UNL1        0.1733
     51 O         -25.2178  -14.5368  -16.9116 O.3     1  UNL1       -0.3793
     52 C         -25.4400  -13.9740  -14.5848 C.3     1  UNL1        0.2106
     53 O         -25.5268  -14.6514  -13.3559 O.3     1  UNL1       -0.3766
     54 H         -22.6832  -16.1320  -16.7419 H       1  UNL1        0.2106
     55 H         -24.9457  -15.2772  -17.5147 H       1  UNL1        0.2105
     56 H         -26.2522  -15.3233  -13.4470 H       1  UNL1        0.2107
     57 C         -21.2342  -13.8480  -14.2621 C.2     1  UNL1        0.3439
     58 O         -20.5748  -14.0319  -15.3192 O.2     1  UNL1       -0.2475
     59 O         -20.5659  -13.4704  -13.1011 O.3     1  UNL1       -0.4785
     60 H         -21.0656  -13.3238  -12.2337 H       1  UNL1        0.2951
@<TRIPOS>BOND
     1    15    16    1
     2    16     1    1
     3     1     2   ar
     4     2     3   ar
     5     3     7    1
     6     7     8    2
     7     7     9   am
     8     9    11    1
     9    11    12    1
    10    11    13    1
    11    11    14    1
    12     3     4   ar
    13     4     5   ar
    14     5    17    1
    15    17    19    1
    16    19    20    2
    17    19    21    2
    18    19    22    1
    19    22    23   ar
    20    23    24   ar
    21    24    25   ar
    22    25    29    1
    23    29    30    1
    24    30    31    1
    25    25    26   ar
    26    26    27   ar
    27    27    28    1
    28     5     6   ar
    29     6    32    1
    30    32    33    1
    31    33    34   ar
    32    34    35   ar
    33    35    36    1
    34    35    37   ar
    35    37    41    1
    36    41    42    1
    37    42    43    2
    38    42    44    1
    39    44    45    1
    40    45    46    1
    41    46    47    1
    42    47    57    1
    43    57    58    2
    44    57    59    1
    45    47    48    1
    46    48    49    1
    47    48    50    1
    48    50    51    1
    49    50    52    1
    50    52    53    1
    51    37    38   ar
    52    38    39   ar
    53    39    40    1
    54     6     1   ar
    55    39    33   ar
    56    27    22   ar
    57    52    45    1
    58    31    29    1
    59     9    10    1
    60    17    18    1
    61    59    60    1
    62    49    54    1
    63    51    55    1
    64    53    56    1
@<TRIPOS>MOLECULE
*****
 60 64 0 0 0
SMALL
GASTEIGER

@<TRIPOS>ATOM
      1 C         -18.3150  -10.4407   -8.9328 C.ar    1  UNL1        0.1744
      2 C         -18.1554  -10.2186   -7.5506 C.ar    1  UNL1        0.0447
      3 C         -18.7923   -9.1423   -6.9132 C.ar    1  UNL1        0.0578
      4 C         -19.6085   -8.2904   -7.6685 C.ar    1  UNL1        0.0237
      5 C         -19.7928   -8.5085   -9.0360 C.ar    1  UNL1        0.1024
      6 C         -19.1750   -9.5940   -9.6761 C.ar    1  UNL1        0.1934
      7 C         -18.6106   -8.8979   -5.4629 C.2     1  UNL1        0.2459
      8 O         -17.4467   -8.9252   -4.9795 O.2     1  UNL1       -0.2701
      9 N         -19.7457   -8.6568   -4.6077 N.am    1  UNL1       -0.3040
     10 H         -20.6908   -8.8788   -4.9958 H       1  UNL1        0.1496
     11 C         -19.6675   -8.1363   -3.2283 C.3     1  UNL1        0.0572
     12 C         -18.5988   -8.9328   -2.4512 C.3     1  UNL1        0.0196
     13 C         -19.2570   -6.6509   -3.2401 C.3     1  UNL1        0.0196
     14 C         -21.0222   -8.3126   -2.5148 C.3     1  UNL1        0.0196
     15 C         -16.6385  -12.3085   -8.9836 C.3     1  UNL1        0.2526
     16 O         -17.6148  -11.4666   -9.5878 O.3     1  UNL1       -0.4683
     17 N         -20.5437   -7.5664   -9.8018 N.pl3   1  UNL1       -0.2119
     18 H         -20.0432   -6.9989  -10.5213 H       1  UNL1        0.1738
     19 S         -21.9884   -6.8958   -9.1246 S.O2    1  UNL1        0.0745
     20 O         -21.6794   -5.6011   -8.4267 O.2     1  UNL1       -0.1499
     21 O         -22.5395   -7.8532   -8.1053 O.2     1  UNL1       -0.1499
     22 C         -23.1710   -6.6578  -10.4214 C.ar    1  UNL1        0.1356
     23 C         -24.3085   -7.4754  -10.4479 C.ar    1  UNL1        0.0207
     24 C         -25.2239   -7.3934  -11.4986 C.ar    1  UNL1       -0.0028
     25 C         -25.0103   -6.4977  -12.5657 C.ar    1  UNL1       -0.0216
     26 C         -23.8759   -5.6737  -12.5326 C.ar    1  UNL1        0.0085
     27 C         -22.9616   -5.7414  -11.4746 C.ar    1  UNL1        0.0762
     28 CL        -21.5657   -4.6710  -11.5360 Cl      1  UNL1       -0.0809
     29 C         -25.9201   -6.3978  -13.7784 C.3     1  UNL1        0.0224
     30 C         -27.3265   -6.9650  -13.6329 C.3     1  UNL1        0.0047
     31 C         -27.1137   -5.4573  -13.6895 C.3     1  UNL1        0.0047
     32 O         -19.4010   -9.7456  -11.0585 O.3     1  UNL1       -0.4482
     33 C         -20.6463   -9.9069  -11.6751 C.ar    1  UNL1        0.1582
     34 C         -21.3541  -11.0895  -11.4457 C.ar    1  UNL1        0.0677
     35 C         -22.6481  -11.2495  -11.9424 C.ar    1  UNL1        0.1398
     36 F         -23.3387  -12.3789  -11.6434 F       1  UNL1       -0.2044
     37 C         -23.2427  -10.2267  -12.7000 C.ar    1  UNL1        0.0175
     38 C         -22.5018   -9.0714  -12.9987 C.ar    1  UNL1        0.0130
     39 C         -21.1993   -8.9175  -12.5109 C.ar    1  UNL1        0.0919
     40 CL        -20.2918   -7.4758  -12.9464 Cl      1  UNL1       -0.0791
     41 C         -24.6961  -10.3072  -13.0749 C.3     1  UNL1        0.1382
     42 C         -24.8070  -10.7597  -14.4954 C.2     1  UNL1        0.3234
     43 O         -25.9110  -11.1878  -14.9304 O.2     1  UNL1       -0.2497
     44 O         -23.6666  -10.7703  -15.3055 O.3     1  UNL1       -0.4215
     45 C         -23.5972  -11.4843  -16.5389 C.3     1  UNL1        0.3207
     46 O         -24.5765  -12.5232  -16.5339 O.3     1  UNL1       -0.3070
     47 C         -24.0619  -13.8392  -16.3780 C.3     1  UNL1        0.2456
     48 C         -22.9163  -13.9205  -15.3451 C.3     1  UNL1        0.1781
     49 O         -22.4880  -15.2540  -15.2257 O.3     1  UNL1       -0.3790
     50 C         -21.7251  -13.0215  -15.7622 C.3     1  UNL1        0.1733
     51 O         -21.1836  -12.3962  -14.6259 O.3     1  UNL1       -0.3793
     52 C         -22.1436  -11.9412  -16.7826 C.3     1  UNL1        0.2106
     53 O         -22.0280  -12.4310  -18.0953 O.3     1  UNL1       -0.3766
     54 H         -21.9093  -15.2995  -14.4210 H       1  UNL1        0.2106
     55 H         -20.6883  -13.0935  -14.1216 H       1  UNL1        0.2105
     56 H         -21.0618  -12.4192  -18.3241 H       1  UNL1        0.2107
     57 C         -25.1915  -14.7430  -15.9647 C.2     1  UNL1        0.3439
     58 O         -25.7172  -14.6129  -14.8277 O.2     1  UNL1       -0.2475
     59 O         -25.6832  -15.7124  -16.8340 O.3     1  UNL1       -0.4785
     60 H         -25.2769  -15.8481  -17.7506 H       1  UNL1        0.2951
@<TRIPOS>BOND
     1    15    16    1
     2    16     1    1
     3     1     2   ar
     4     2     3   ar
     5     3     7    1
     6     7     8    2
     7     7     9   am
     8     9    11    1
     9    11    12    1
    10    11    13    1
    11    11    14    1
    12     3     4   ar
    13     4     5   ar
    14     5    17    1
    15    17    19    1
    16    19    20    2
    17    19    21    2
    18    19    22    1
    19    22    23   ar
    20    23    24   ar
    21    24    25   ar
    22    25    29    1
    23    29    30    1
    24    30    31    1
    25    25    26   ar
    26    26    27   ar
    27    27    28    1
    28     5     6   ar
    29     6    32    1
    30    32    33    1
    31    33    34   ar
    32    34    35   ar
    33    35    36    1
    34    35    37   ar
    35    37    41    1
    36    41    42    1
    37    42    43    2
    38    42    44    1
    39    44    45    1
    40    45    46    1
    41    46    47    1
    42    47    57    1
    43    57    58    2
    44    57    59    1
    45    47    48    1
    46    48    49    1
    47    48    50    1
    48    50    51    1
    49    50    52    1
    50    52    53    1
    51    37    38   ar
    52    38    39   ar
    53    39    40    1
    54     6     1   ar
    55    39    33   ar
    56    27    22   ar
    57    52    45    1
    58    31    29    1
    59     9    10    1
    60    17    18    1
    61    59    60    1
    62    49    54    1
    63    51    55    1
    64    53    56    1
@<TRIPOS>MOLECULE
*****
 60 64 0 0 0
SMALL
GASTEIGER

@<TRIPOS>ATOM
      1 C         -25.0273   -8.3746  -12.4791 C.ar    1  UNL1        0.1744
      2 C         -25.9041   -7.4058  -13.0062 C.ar    1  UNL1        0.0447
      3 C         -25.5035   -6.5622  -14.0541 C.ar    1  UNL1        0.0578
      4 C         -24.2157   -6.7033  -14.5870 C.ar    1  UNL1        0.0237
      5 C         -23.3411   -7.6722  -14.0889 C.ar    1  UNL1        0.1024
      6 C         -23.7417   -8.5322  -13.0546 C.ar    1  UNL1        0.1934
      7 C         -26.4192   -5.5311  -14.5968 C.2     1  UNL1        0.2459
      8 O         -27.2285   -4.9605  -13.8167 O.2     1  UNL1       -0.2701
      9 N         -26.4072   -5.1989  -15.9995 N.am    1  UNL1       -0.3040
     10 H         -25.9025   -5.8529  -16.6402 H       1  UNL1        0.1496
     11 C         -27.0645   -4.0172  -16.5924 C.3     1  UNL1        0.0572
     12 C         -26.4011   -2.7410  -16.0342 C.3     1  UNL1        0.0196
     13 C         -26.8969   -4.0248  -18.1244 C.3     1  UNL1        0.0196
     14 C         -28.5591   -3.9945  -16.2166 C.3     1  UNL1        0.0196
     15 C         -25.8733   -8.6628  -10.1332 C.3     1  UNL1        0.2526
     16 O         -25.3963   -9.1636  -11.3776 O.3     1  UNL1       -0.4683
     17 N         -22.0008   -7.7251  -14.5773 N.pl3   1  UNL1       -0.2119
     18 H         -21.3170   -7.0162  -14.2308 H       1  UNL1        0.1738
     19 S         -21.7011   -8.4251  -16.1315 S.O2    1  UNL1        0.0745
     20 O         -20.2583   -8.2431  -16.5108 O.2     1  UNL1       -0.1499
     21 O         -22.5437   -7.7179  -17.1558 O.2     1  UNL1       -0.1499
     22 C         -22.1381  -10.1408  -16.0800 C.ar    1  UNL1        0.1356
     23 C         -21.6234  -10.9315  -15.0442 C.ar    1  UNL1        0.0207
     24 C         -21.8598  -12.3068  -15.0093 C.ar    1  UNL1       -0.0028
     25 C         -22.6065  -12.9309  -16.0289 C.ar    1  UNL1       -0.0216
     26 C         -23.1286  -12.1361  -17.0598 C.ar    1  UNL1        0.0085
     27 C         -22.9067  -10.7543  -17.0928 C.ar    1  UNL1        0.0762
     28 CL        -23.5973   -9.8513  -18.4366 Cl      1  UNL1       -0.0809
     29 C         -22.8487  -14.4291  -16.1010 C.3     1  UNL1        0.0224
     30 C         -23.1527  -15.1415  -14.7893 C.3     1  UNL1        0.0047
     31 C         -24.2575  -14.9307  -15.8172 C.3     1  UNL1        0.0047
     32 O         -22.8031   -9.4789  -12.5988 O.3     1  UNL1       -0.4482
     33 C         -21.8616   -9.2801  -11.5835 C.ar    1  UNL1        0.1582
     34 C         -21.6894   -7.9884  -11.0792 C.ar    1  UNL1        0.0677
     35 C         -20.8492   -7.7584   -9.9894 C.ar    1  UNL1        0.1398
     36 F         -20.7569   -6.5058   -9.4756 F       1  UNL1       -0.2044
     37 C         -20.1488   -8.8258   -9.4030 C.ar    1  UNL1        0.0175
     38 C         -20.2592  -10.1105   -9.9600 C.ar    1  UNL1        0.0130
     39 C         -21.0923  -10.3377  -11.0611 C.ar    1  UNL1        0.0919
     40 CL        -21.1659  -11.9520  -11.7542 Cl      1  UNL1       -0.0791
     41 C         -19.3958   -8.6241   -8.1178 C.3     1  UNL1        0.1382
     42 C         -20.3287   -8.8380   -6.9695 C.2     1  UNL1        0.3234
     43 O         -21.5644   -8.6356   -7.1224 O.2     1  UNL1       -0.2497
     44 O         -19.8113   -9.1907   -5.7186 O.3     1  UNL1       -0.4215
     45 C         -19.5626   -8.2391   -4.6849 C.3     1  UNL1        0.3207
     46 O         -18.5733   -7.3115   -5.1312 O.3     1  UNL1       -0.3070
     47 C         -17.2893   -7.4655   -4.5407 C.3     1  UNL1        0.2456
     48 C         -16.8731   -8.9442   -4.3790 C.3     1  UNL1        0.1781
     49 O         -15.5841   -9.0090   -3.8220 O.3     1  UNL1       -0.3790
     50 C         -17.8742   -9.7093   -3.4771 C.3     1  UNL1        0.1733
     51 O         -18.0798  -11.0020   -3.9890 O.3     1  UNL1       -0.3793
     52 C         -19.2333   -8.9841   -3.3744 C.3     1  UNL1        0.2106
     53 O         -19.2228   -8.0644   -2.3111 O.3     1  UNL1       -0.3766
     54 H         -15.2731   -9.9456   -3.9245 H       1  UNL1        0.2106
     55 H         -17.2579  -11.5237   -3.7933 H       1  UNL1        0.2105
     56 H         -19.3233   -8.5893   -1.4741 H       1  UNL1        0.2107
     57 C         -16.2857   -6.7397   -5.3950 C.2     1  UNL1        0.3439
     58 O         -16.6753   -5.8855   -6.2345 O.2     1  UNL1       -0.2475
     59 O         -14.9225   -6.9827   -5.2552 O.3     1  UNL1       -0.4785
     60 H         -14.5779   -7.6688   -4.5964 H       1  UNL1        0.2951
@<TRIPOS>BOND
     1    15    16    1
     2    16     1    1
     3     1     2   ar
     4     2     3   ar
     5     3     7    1
     6     7     8    2
     7     7     9   am
     8     9    11    1
     9    11    12    1
    10    11    13    1
    11    11    14    1
    12     3     4   ar
    13     4     5   ar
    14     5    17    1
    15    17    19    1
    16    19    20    2
    17    19    21    2
    18    19    22    1
    19    22    23   ar
    20    23    24   ar
    21    24    25   ar
    22    25    29    1
    23    29    30    1
    24    30    31    1
    25    25    26   ar
    26    26    27   ar
    27    27    28    1
    28     5     6   ar
    29     6    32    1
    30    32    33    1
    31    33    34   ar
    32    34    35   ar
    33    35    36    1
    34    35    37   ar
    35    37    41    1
    36    41    42    1
    37    42    43    2
    38    42    44    1
    39    44    45    1
    40    45    46    1
    41    46    47    1
    42    47    57    1
    43    57    58    2
    44    57    59    1
    45    47    48    1
    46    48    49    1
    47    48    50    1
    48    50    51    1
    49    50    52    1
    50    52    53    1
    51    37    38   ar
    52    38    39   ar
    53    39    40    1
    54     6     1   ar
    55    39    33   ar
    56    27    22   ar
    57    52    45    1
    58    31    29    1
    59     9    10    1
    60    17    18    1
    61    59    60    1
    62    49    54    1
    63    51    55    1
    64    53    56    1
@<TRIPOS>MOLECULE
*****
 60 64 0 0 0
SMALL
GASTEIGER

@<TRIPOS>ATOM
      1 C         -26.6504   -7.5025  -13.4708 C.ar    1  UNL1        0.1744
      2 C         -27.2827   -6.4065  -14.0906 C.ar    1  UNL1        0.0447
      3 C         -26.5927   -5.5973  -15.0068 C.ar    1  UNL1        0.0578
      4 C         -25.2602   -5.9011  -15.3142 C.ar    1  UNL1        0.0237
      5 C         -24.6249   -6.9960  -14.7232 C.ar    1  UNL1        0.1024
      6 C         -25.3146   -7.8210  -13.8213 C.ar    1  UNL1        0.1934
      7 C         -27.2520   -4.4339  -15.6455 C.2     1  UNL1        0.2459
      8 O         -26.6312   -3.3386  -15.7094 O.2     1  UNL1       -0.2701
      9 N         -28.5923   -4.5394  -16.1655 N.am    1  UNL1       -0.3040
     10 H         -29.1496   -5.3769  -15.8810 H       1  UNL1        0.1496
     11 C         -29.2336   -3.5487  -17.0528 C.3     1  UNL1        0.0572
     12 C         -30.0045   -2.5275  -16.1907 C.3     1  UNL1        0.0196
     13 C         -28.1669   -2.7927  -17.8687 C.3     1  UNL1        0.0196
     14 C         -30.2344   -4.2463  -17.9948 C.3     1  UNL1        0.0196
     15 C         -27.5295   -7.8576  -11.1464 C.3     1  UNL1        0.2526
     16 O         -27.3120   -8.2635  -12.4935 O.3     1  UNL1       -0.4683
     17 N         -23.2375   -7.2210  -14.9730 N.pl3   1  UNL1       -0.2119
     18 H         -22.5449   -6.5504  -14.5719 H       1  UNL1        0.1738
     19 S         -22.7710   -8.0891  -16.3957 S.O2    1  UNL1        0.0745
     20 O         -21.3666   -7.7240  -16.7869 O.2     1  UNL1       -0.1499
     21 O         -23.6838   -7.7012  -17.5252 O.2     1  UNL1       -0.1499
     22 C         -22.9167   -9.8258  -16.0796 C.ar    1  UNL1        0.1356
     23 C         -23.7145  -10.5970  -16.9351 C.ar    1  UNL1        0.0207
     24 C         -23.9386  -11.9505  -16.6772 C.ar    1  UNL1       -0.0028
     25 C         -23.3808  -12.5639  -15.5374 C.ar    1  UNL1       -0.0216
     26 C         -22.5749  -11.7924  -14.6875 C.ar    1  UNL1        0.0085
     27 C         -22.3351  -10.4380  -14.9483 C.ar    1  UNL1        0.0762
     28 CL        -21.3183   -9.5584  -13.8123 Cl      1  UNL1       -0.0809
     29 C         -23.6334  -14.0109  -15.1491 C.3     1  UNL1        0.0224
     30 C         -24.9592  -14.3189  -14.4648 C.3     1  UNL1        0.0047
     31 C         -24.7207  -14.7642  -15.9023 C.3     1  UNL1        0.0047
     32 O         -24.6063   -8.9017  -13.2596 O.3     1  UNL1       -0.4482
     33 C         -23.9464   -8.9000  -12.0261 C.ar    1  UNL1        0.1582
     34 C         -23.4082   -7.6974  -11.5611 C.ar    1  UNL1        0.0677
     35 C         -22.8440   -7.6181  -10.2874 C.ar    1  UNL1        0.1398
     36 F         -22.3942   -6.4206   -9.8344 F       1  UNL1       -0.2044
     37 C         -22.7921   -8.7584   -9.4684 C.ar    1  UNL1        0.0175
     38 C         -23.2598   -9.9857   -9.9663 C.ar    1  UNL1        0.0130
     39 C         -23.8138  -10.0668  -11.2488 C.ar    1  UNL1        0.0919
     40 CL        -24.3457  -11.6315  -11.8491 Cl      1  UNL1       -0.0791
     41 C         -22.3646   -8.6420   -8.0321 C.3     1  UNL1        0.1382
     42 C         -20.8729   -8.5616   -7.9743 C.2     1  UNL1        0.3234
     43 O         -20.1895   -8.9015   -8.9787 O.2     1  UNL1       -0.2497
     44 O         -20.2498   -8.1785   -6.7819 O.3     1  UNL1       -0.4215
     45 C         -19.6733   -9.1141   -5.8718 C.3     1  UNL1        0.3207
     46 O         -20.2667   -8.9413   -4.5849 O.3     1  UNL1       -0.3070
     47 C         -19.4348   -8.3207   -3.6133 C.3     1  UNL1        0.2456
     48 C         -18.6031   -7.1532   -4.1886 C.3     1  UNL1        0.1781
     49 O         -17.8368   -6.5744   -3.1620 O.3     1  UNL1       -0.3790
     50 C         -17.6726   -7.6402   -5.3279 C.3     1  UNL1        0.1733
     51 O         -17.6353   -6.6784   -6.3522 O.3     1  UNL1       -0.3793
     52 C         -18.1360   -8.9895   -5.9180 C.3     1  UNL1        0.2106
     53 O         -17.5649  -10.0605   -5.2086 O.3     1  UNL1       -0.3766
     54 H         -17.4838   -5.7169   -3.5149 H       1  UNL1        0.2106
     55 H         -17.0910   -5.9194   -6.0152 H       1  UNL1        0.2105
     56 H         -16.6215  -10.1359   -5.5093 H       1  UNL1        0.2107
     57 C         -20.3061   -7.8266   -2.4906 C.2     1  UNL1        0.3439
     58 O         -21.0635   -8.6285   -1.8829 O.2     1  UNL1       -0.2475
     59 O         -20.2712   -6.4926   -2.0954 O.3     1  UNL1       -0.4785
     60 H         -19.6802   -5.8217   -2.5689 H       1  UNL1        0.2951
@<TRIPOS>BOND
     1    15    16    1
     2    16     1    1
     3     1     2   ar
     4     2     3   ar
     5     3     7    1
     6     7     8    2
     7     7     9   am
     8     9    11    1
     9    11    12    1
    10    11    13    1
    11    11    14    1
    12     3     4   ar
    13     4     5   ar
    14     5    17    1
    15    17    19    1
    16    19    20    2
    17    19    21    2
    18    19    22    1
    19    22    23   ar
    20    23    24   ar
    21    24    25   ar
    22    25    29    1
    23    29    30    1
    24    30    31    1
    25    25    26   ar
    26    26    27   ar
    27    27    28    1
    28     5     6   ar
    29     6    32    1
    30    32    33    1
    31    33    34   ar
    32    34    35   ar
    33    35    36    1
    34    35    37   ar
    35    37    41    1
    36    41    42    1
    37    42    43    2
    38    42    44    1
    39    44    45    1
    40    45    46    1
    41    46    47    1
    42    47    57    1
    43    57    58    2
    44    57    59    1
    45    47    48    1
    46    48    49    1
    47    48    50    1
    48    50    51    1
    49    50    52    1
    50    52    53    1
    51    37    38   ar
    52    38    39   ar
    53    39    40    1
    54     6     1   ar
    55    39    33   ar
    56    27    22   ar
    57    52    45    1
    58    31    29    1
    59     9    10    1
    60    17    18    1
    61    59    60    1
    62    49    54    1
    63    51    55    1
    64    53    56    1
@<TRIPOS>MOLECULE
*****
 60 64 0 0 0
SMALL
GASTEIGER

@<TRIPOS>ATOM
      1 C         -18.2403  -10.0300   -7.7192 C.ar    1  UNL1        0.1744
      2 C         -18.4640   -9.7528   -6.3560 C.ar    1  UNL1        0.0447
      3 C         -19.6074   -9.0538   -5.9387 C.ar    1  UNL1        0.0578
      4 C         -20.5417   -8.6428   -6.8981 C.ar    1  UNL1        0.0237
      5 C         -20.3445   -8.9269   -8.2516 C.ar    1  UNL1        0.1024
      6 C         -19.2135   -9.6425   -8.6740 C.ar    1  UNL1        0.1934
      7 C         -19.8343   -8.7465   -4.5068 C.2     1  UNL1        0.2459
      8 O         -20.4532   -9.5812   -3.7931 O.2     1  UNL1       -0.2701
      9 N         -19.3787   -7.5026   -3.9382 N.am    1  UNL1       -0.3040
     10 H         -19.0917   -6.7504   -4.6051 H       1  UNL1        0.1496
     11 C         -19.3031   -7.2133   -2.4924 C.3     1  UNL1        0.0572
     12 C         -19.0131   -5.7108   -2.2956 C.3     1  UNL1        0.0196
     13 C         -20.6446   -7.5453   -1.8101 C.3     1  UNL1        0.0196
     14 C         -18.1593   -8.0198   -1.8468 C.3     1  UNL1        0.0196
     15 C         -16.9575  -12.0092   -8.5789 C.3     1  UNL1        0.2526
     16 O         -17.0586  -10.6563   -8.1473 O.3     1  UNL1       -0.4683
     17 N         -21.2571   -8.4063   -9.2180 N.pl3   1  UNL1       -0.2119
     18 H         -20.9677   -7.5732   -9.7770 H       1  UNL1        0.1738
     19 S         -22.9540   -8.6619   -8.9929 S.O2    1  UNL1        0.0745
     20 O         -23.4013   -8.0494   -7.6954 O.2     1  UNL1       -0.1499
     21 O         -23.2201  -10.1397   -8.9254 O.2     1  UNL1       -0.1499
     22 C         -23.8252   -7.9601  -10.3661 C.ar    1  UNL1        0.1356
     23 C         -24.7763   -8.7476  -11.0281 C.ar    1  UNL1        0.0207
     24 C         -25.4230   -8.2771  -12.1723 C.ar    1  UNL1       -0.0028
     25 C         -25.1161   -7.0050  -12.6959 C.ar    1  UNL1       -0.0216
     26 C         -24.1706   -6.2146  -12.0264 C.ar    1  UNL1        0.0085
     27 C         -23.5289   -6.6753  -10.8706 C.ar    1  UNL1        0.0762
     28 CL        -22.3508   -5.6086  -10.1141 Cl      1  UNL1       -0.0809
     29 C         -25.7228   -6.4496  -13.9734 C.3     1  UNL1        0.0224
     30 C         -27.2435   -6.3980  -14.0478 C.3     1  UNL1        0.0047
     31 C         -26.4431   -5.1113  -13.8887 C.3     1  UNL1        0.0047
     32 O         -19.0784   -9.8848  -10.0554 O.3     1  UNL1       -0.4482
     33 C         -19.9886   -9.5088  -11.0488 C.ar    1  UNL1        0.1582
     34 C         -20.0191   -8.1713  -11.4518 C.ar    1  UNL1        0.0677
     35 C         -20.8250   -7.7696  -12.5175 C.ar    1  UNL1        0.1398
     36 F         -20.7802   -6.4785  -12.9332 F       1  UNL1       -0.2044
     37 C         -21.6331   -8.7075  -13.1814 C.ar    1  UNL1        0.0175
     38 C         -21.6636  -10.0356  -12.7251 C.ar    1  UNL1        0.0130
     39 C         -20.8645  -10.4347  -11.6479 C.ar    1  UNL1        0.0919
     40 CL        -20.9674  -12.0959  -11.0810 Cl      1  UNL1       -0.0791
     41 C         -22.3545   -8.3282  -14.4444 C.3     1  UNL1        0.1382
     42 C         -22.4698   -9.5351  -15.3191 C.2     1  UNL1        0.3234
     43 O         -21.8460   -9.5744  -16.4148 O.2     1  UNL1       -0.2497
     44 O         -23.3253  -10.5769  -14.9456 O.3     1  UNL1       -0.4215
     45 C         -24.2183  -11.2132  -15.8585 C.3     1  UNL1        0.3207
     46 O         -25.2422  -11.8821  -15.1220 O.3     1  UNL1       -0.3070
     47 C         -25.1389  -13.2997  -15.0927 C.3     1  UNL1        0.2456
     48 C         -23.6857  -13.7953  -14.9239 C.3     1  UNL1        0.1781
     49 O         -23.6737  -15.1999  -14.8707 O.3     1  UNL1       -0.3790
     50 C         -22.7911  -13.3062  -16.0908 C.3     1  UNL1        0.1733
     51 O         -21.5256  -12.9448  -15.5975 O.3     1  UNL1       -0.3793
     52 C         -23.4095  -12.0994  -16.8289 C.3     1  UNL1        0.2106
     53 O         -24.2519  -12.5347  -17.8670 O.3     1  UNL1       -0.3766
     54 H         -22.7708  -15.4684  -14.5591 H       1  UNL1        0.2106
     55 H         -21.0511  -13.7883  -15.3754 H       1  UNL1        0.2105
     56 H         -23.6646  -12.8219  -18.6144 H       1  UNL1        0.2107
     57 C         -25.9912  -13.8129  -13.9640 C.2     1  UNL1        0.3439
     58 O         -27.2466  -13.7802  -14.0588 O.2     1  UNL1       -0.2475
     59 O         -25.4099  -14.3478  -12.8182 O.3     1  UNL1       -0.4785
     60 H         -24.4047  -14.3803  -12.7075 H       1  UNL1        0.2951
@<TRIPOS>BOND
     1    15    16    1
     2    16     1    1
     3     1     2   ar
     4     2     3   ar
     5     3     7    1
     6     7     8    2
     7     7     9   am
     8     9    11    1
     9    11    12    1
    10    11    13    1
    11    11    14    1
    12     3     4   ar
    13     4     5   ar
    14     5    17    1
    15    17    19    1
    16    19    20    2
    17    19    21    2
    18    19    22    1
    19    22    23   ar
    20    23    24   ar
    21    24    25   ar
    22    25    29    1
    23    29    30    1
    24    30    31    1
    25    25    26   ar
    26    26    27   ar
    27    27    28    1
    28     5     6   ar
    29     6    32    1
    30    32    33    1
    31    33    34   ar
    32    34    35   ar
    33    35    36    1
    34    35    37   ar
    35    37    41    1
    36    41    42    1
    37    42    43    2
    38    42    44    1
    39    44    45    1
    40    45    46    1
    41    46    47    1
    42    47    57    1
    43    57    58    2
    44    57    59    1
    45    47    48    1
    46    48    49    1
    47    48    50    1
    48    50    51    1
    49    50    52    1
    50    52    53    1
    51    37    38   ar
    52    38    39   ar
    53    39    40    1
    54     6     1   ar
    55    39    33   ar
    56    27    22   ar
    57    52    45    1
    58    31    29    1
    59     9    10    1
    60    17    18    1
    61    59    60    1
    62    49    54    1
    63    51    55    1
    64    53    56    1
@<TRIPOS>MOLECULE
*****
 60 64 0 0 0
SMALL
GASTEIGER

@<TRIPOS>ATOM
      1 C         -25.5268   -5.7961  -15.7635 C.ar    1  UNL1        0.1744
      2 C         -26.6354   -4.9919  -16.0945 C.ar    1  UNL1        0.0447
      3 C         -27.6238   -4.6965  -15.1427 C.ar    1  UNL1        0.0578
      4 C         -27.4895   -5.2012  -13.8429 C.ar    1  UNL1        0.0237
      5 C         -26.3864   -5.9838  -13.4933 C.ar    1  UNL1        0.1024
      6 C         -25.3843   -6.2669  -14.4343 C.ar    1  UNL1        0.1934
      7 C         -28.7991   -3.8653  -15.4952 C.2     1  UNL1        0.2459
      8 O         -28.7276   -3.0971  -16.4922 O.2     1  UNL1       -0.2701
      9 N         -30.0002   -3.9112  -14.6994 N.am    1  UNL1       -0.3040
     10 H         -29.9337   -4.3685  -13.7617 H       1  UNL1        0.1496
     11 C         -31.3037   -3.3495  -15.1060 C.3     1  UNL1        0.0572
     12 C         -31.6687   -2.1898  -14.1562 C.3     1  UNL1        0.0196
     13 C         -31.2229   -2.7973  -16.5426 C.3     1  UNL1        0.0196
     14 C         -32.4021   -4.4261  -15.0063 C.3     1  UNL1        0.0196
     15 C         -24.6288   -5.7886  -18.1078 C.3     1  UNL1        0.2526
     16 O         -24.5799   -6.1605  -16.7344 O.3     1  UNL1       -0.4683
     17 N         -26.3268   -6.5719  -12.1939 N.pl3   1  UNL1       -0.2119
     18 H         -25.6695   -6.1632  -11.4929 H       1  UNL1        0.1738
     19 S         -26.7522   -8.2390  -12.0070 S.O2    1  UNL1        0.0745
     20 O         -27.3235   -8.7737  -13.2901 O.2     1  UNL1       -0.1499
     21 O         -27.8079   -8.3568  -10.9435 O.2     1  UNL1       -0.1499
     22 C         -25.3106   -9.1461  -11.5208 C.ar    1  UNL1        0.1356
     23 C         -24.7630   -8.9033  -10.2542 C.ar    1  UNL1        0.0207
     24 C         -23.5755   -9.5210   -9.8582 C.ar    1  UNL1       -0.0028
     25 C         -22.8926  -10.3880  -10.7350 C.ar    1  UNL1       -0.0216
     26 C         -23.4475  -10.6369  -11.9988 C.ar    1  UNL1        0.0085
     27 C         -24.6453  -10.0312  -12.3965 C.ar    1  UNL1        0.0762
     28 CL        -25.2492  -10.4029  -14.0075 Cl      1  UNL1       -0.0809
     29 C         -21.5618  -11.0434  -10.4069 C.3     1  UNL1        0.0224
     30 C         -20.7549  -11.5880  -11.5787 C.3     1  UNL1        0.0047
     31 C         -20.2942  -10.3293  -10.8542 C.3     1  UNL1        0.0047
     32 O         -24.3058   -7.0688  -14.0113 O.3     1  UNL1       -0.4482
     33 C         -23.3383   -6.7132  -13.0656 C.ar    1  UNL1        0.1582
     34 C         -23.6040   -5.6380  -12.2137 C.ar    1  UNL1        0.0677
     35 C         -22.7239   -5.3180  -11.1795 C.ar    1  UNL1        0.1398
     36 F         -23.0430   -4.3144  -10.3235 F       1  UNL1       -0.2044
     37 C         -21.5470   -6.0640  -11.0006 C.ar    1  UNL1        0.0175
     38 C         -21.2399   -7.0933  -11.9057 C.ar    1  UNL1        0.0130
     39 C         -22.1171   -7.4051  -12.9504 C.ar    1  UNL1        0.0919
     40 CL        -21.6720   -8.6709  -14.0867 Cl      1  UNL1       -0.0791
     41 C         -20.6928   -5.8529   -9.7819 C.3     1  UNL1        0.1382
     42 C         -21.1857   -6.7397   -8.6839 C.2     1  UNL1        0.3234
     43 O         -22.3902   -7.1141   -8.6763 O.2     1  UNL1       -0.2497
     44 O         -20.3228   -7.0852   -7.6385 O.3     1  UNL1       -0.4215
     45 C         -20.0948   -8.4344   -7.2339 C.3     1  UNL1        0.3207
     46 O         -20.8120   -8.6882   -6.0259 O.3     1  UNL1       -0.3070
     47 C         -20.0113   -8.7822   -4.8550 C.3     1  UNL1        0.2456
     48 C         -18.8757   -7.7360   -4.8153 C.3     1  UNL1        0.1781
     49 O         -18.1551   -7.8732   -3.6162 O.3     1  UNL1       -0.3790
     50 C         -17.9209   -7.9038   -6.0241 C.3     1  UNL1        0.1733
     51 O         -17.5340   -6.6394   -6.5007 O.3     1  UNL1       -0.3793
     52 C         -18.5757   -8.6990   -7.1740 C.3     1  UNL1        0.2106
     53 O         -18.3537  -10.0775   -7.0098 O.3     1  UNL1       -0.3766
     54 H         -17.5800   -7.0690   -3.5323 H       1  UNL1        0.2106
     55 H         -16.8923   -6.2666   -5.8410 H       1  UNL1        0.2105
     56 H         -17.4159  -10.2538   -7.2844 H       1  UNL1        0.2107
     57 C         -20.9051   -8.6162   -3.6560 C.2     1  UNL1        0.3439
     58 O         -21.9357   -9.3301   -3.5364 O.2     1  UNL1       -0.2475
     59 O         -20.5965   -7.6955   -2.6591 O.3     1  UNL1       -0.4785
     60 H         -19.7809   -7.1010   -2.7298 H       1  UNL1        0.2951
@<TRIPOS>BOND
     1    15    16    1
     2    16     1    1
     3     1     2   ar
     4     2     3   ar
     5     3     7    1
     6     7     8    2
     7     7     9   am
     8     9    11    1
     9    11    12    1
    10    11    13    1
    11    11    14    1
    12     3     4   ar
    13     4     5   ar
    14     5    17    1
    15    17    19    1
    16    19    20    2
    17    19    21    2
    18    19    22    1
    19    22    23   ar
    20    23    24   ar
    21    24    25   ar
    22    25    29    1
    23    29    30    1
    24    30    31    1
    25    25    26   ar
    26    26    27   ar
    27    27    28    1
    28     5     6   ar
    29     6    32    1
    30    32    33    1
    31    33    34   ar
    32    34    35   ar
    33    35    36    1
    34    35    37   ar
    35    37    41    1
    36    41    42    1
    37    42    43    2
    38    42    44    1
    39    44    45    1
    40    45    46    1
    41    46    47    1
    42    47    57    1
    43    57    58    2
    44    57    59    1
    45    47    48    1
    46    48    49    1
    47    48    50    1
    48    50    51    1
    49    50    52    1
    50    52    53    1
    51    37    38   ar
    52    38    39   ar
    53    39    40    1
    54     6     1   ar
    55    39    33   ar
    56    27    22   ar
    57    52    45    1
    58    31    29    1
    59     9    10    1
    60    17    18    1
    61    59    60    1
    62    49    54    1
    63    51    55    1
    64    53    56    1
