@<TRIPOS>MOLECULE
*****
 34 38 0 0 0
SMALL
GASTEIGER

@<TRIPOS>ATOM
      1 C          -9.2555   -6.7950   30.9544 C.ar    1  UNL1        0.0673
      2 C          -9.6294   -5.5336   30.4489 C.ar    1  UNL1        0.0161
      3 C         -10.9906   -5.2398   30.2011 C.ar    1  UNL1        0.0028
      4 C         -11.9851   -6.2072   30.4425 C.ar    1  UNL1        0.0186
      5 C         -11.5745   -7.4452   30.9326 C.ar    1  UNL1        0.0768
      6 N         -12.3215   -8.5214   31.2082 N.ar    1  UNL1       -0.3373
      7 C         -11.4195   -9.4467   31.6306 C.ar    1  UNL1        0.1406
      8 N         -10.1383   -8.9894   31.6293 N.ar    1  UNL1       -0.2258
      9 C         -10.2670   -7.7275   31.1850 C.ar    1  UNL1        0.1116
     10 H         -13.3584   -8.6084   31.1246 H       1  UNL1        0.1674
     11 N          -5.6686   -8.8430   31.8227 N.3     1  UNL1       -0.2646
     12 C          -6.6797   -8.4323   32.8273 C.3     1  UNL1        0.0941
     13 C          -7.3012   -7.0748   32.5024 C.3     1  UNL1        0.1082
     14 N          -7.8802   -7.1324   31.1615 N.pl3   1  UNL1       -0.3034
     15 C          -7.1446   -7.7750   30.0716 C.3     1  UNL1        0.1082
     16 C          -5.7208   -8.1633   30.5036 C.3     1  UNL1        0.0941
     17 C          -5.4662  -10.3059   31.7520 C.3     1  UNL1        0.1203
     18 C          -9.6051  -12.2576   29.8127 C.3     1  UNL1        0.0716
     19 C          -8.1815  -11.8490   29.9917 C.ar    1  UNL1        0.1172
     20 N          -7.7318  -11.1888   31.0803 N.ar    1  UNL1       -0.2340
     21 C          -6.4248  -10.9900   30.8149 C.ar    1  UNL1        0.0934
     22 C          -6.1152  -11.5052   29.5744 C.ar    1  UNL1        0.0896
     23 N          -7.2294  -12.0445   29.0590 N.ar    1  UNL1       -0.3398
     24 H          -7.3334  -12.5101   28.1301 H       1  UNL1        0.1671
     25 C         -11.7724  -10.8224   32.0457 C.ar    1  UNL1        0.0339
     26 C         -12.8759  -11.4649   31.4685 C.ar    1  UNL1        0.0027
     27 C         -13.2452  -12.7507   31.8702 C.ar    1  UNL1       -0.0042
     28 C         -12.5154  -13.4392   32.8665 C.ar    1  UNL1       -0.0228
     29 C         -11.4019  -12.7816   33.4345 C.ar    1  UNL1       -0.0042
     30 C         -11.0365  -11.4951   33.0309 C.ar    1  UNL1        0.0027
     31 C         -12.8920  -14.8553   33.3486 C.3     1  UNL1        0.0189
     32 C         -14.4095  -15.1453   33.2538 C.3     1  UNL1        0.0044
     33 C         -12.4743  -15.0234   34.8257 C.3     1  UNL1        0.0044
     34 C         -12.1595  -15.9056   32.4855 C.3     1  UNL1        0.0044
@<TRIPOS>BOND
     1    18    19    1
     2    19    20   ar
     3    20    21   ar
     4    21    17    1
     5    17    11    1
     6    11    12    1
     7    12    13    1
     8    13    14    1
     9    14     1    1
    10     1     2   ar
    11     2     3   ar
    12     3     4   ar
    13     4     5   ar
    14     5     6   ar
    15     6     7   ar
    16     7    25    1
    17    25    26   ar
    18    26    27   ar
    19    27    28   ar
    20    28    31    1
    21    31    32    1
    22    31    33    1
    23    31    34    1
    24    28    29   ar
    25    29    30   ar
    26     7     8   ar
    27     8     9   ar
    28    14    15    1
    29    15    16    1
    30    21    22   ar
    31    22    23   ar
    32    23    19   ar
    33    16    11    1
    34     9     1   ar
    35     9     5   ar
    36    30    25   ar
    37     6    10    1
    38    23    24    1
@<TRIPOS>MOLECULE
*****
 34 38 0 0 0
SMALL
GASTEIGER

@<TRIPOS>ATOM
      1 C          -9.1091   -6.7620   30.5411 C.ar    1  UNL1        0.0673
      2 C          -9.4482   -5.4583   30.1267 C.ar    1  UNL1        0.0161
      3 C         -10.8046   -5.0649   30.0494 C.ar    1  UNL1        0.0028
      4 C         -11.8309   -5.9740   30.3712 C.ar    1  UNL1        0.0186
      5 C         -11.4555   -7.2561   30.7670 C.ar    1  UNL1        0.0768
      6 N         -12.2404   -8.2914   31.0901 N.ar    1  UNL1       -0.3373
      7 C         -11.3636   -9.2914   31.3723 C.ar    1  UNL1        0.1406
      8 N         -10.0619   -8.9201   31.2376 N.ar    1  UNL1       -0.2258
      9 C         -10.1510   -7.6347   30.8554 C.ar    1  UNL1        0.1116
     10 H         -13.2836   -8.3061   31.1248 H       1  UNL1        0.1674
     11 N          -5.5529   -8.8992   31.3161 N.3     1  UNL1       -0.2646
     12 C          -6.2817   -8.0701   32.3070 C.3     1  UNL1        0.0941
     13 C          -6.8752   -6.8084   31.6822 C.3     1  UNL1        0.1082
     14 N          -7.7463   -7.1980   30.5749 N.pl3   1  UNL1       -0.3034
     15 C          -7.3192   -8.2355   29.6353 C.3     1  UNL1        0.1082
     16 C          -5.8614   -8.6568   29.8841 C.3     1  UNL1        0.0941
     17 C          -5.4632  -10.3264   31.6918 C.3     1  UNL1        0.1203
     18 C          -9.2781  -11.9687   34.4214 C.3     1  UNL1        0.0716
     19 C          -8.4097  -11.6434   33.2527 C.ar    1  UNL1        0.1172
     20 N          -7.1985  -11.0583   33.3701 N.ar    1  UNL1       -0.2340
     21 C          -6.7885  -10.9158   32.0934 C.ar    1  UNL1        0.0934
     22 C          -7.7577  -11.3887   31.2348 C.ar    1  UNL1        0.0896
     23 N          -8.7797  -11.8449   31.9732 N.ar    1  UNL1       -0.3398
     24 H          -9.6723  -12.2611   31.6259 H       1  UNL1        0.1671
     25 C         -11.7631  -10.6573   31.7776 C.ar    1  UNL1        0.0339
     26 C         -12.4360  -10.8574   32.9904 C.ar    1  UNL1        0.0027
     27 C         -12.7925  -12.1422   33.4065 C.ar    1  UNL1       -0.0042
     28 C         -12.4873  -13.2739   32.6156 C.ar    1  UNL1       -0.0228
     29 C         -11.8147  -13.0560   31.3930 C.ar    1  UNL1       -0.0042
     30 C         -11.4587  -11.7695   30.9808 C.ar    1  UNL1        0.0027
     31 C         -12.8523  -14.7116   33.0393 C.3     1  UNL1        0.0189
     32 C         -14.3772  -14.9769   33.0353 C.3     1  UNL1        0.0044
     33 C         -12.3351  -14.9725   34.4707 C.3     1  UNL1        0.0044
     34 C         -12.1992  -15.7173   32.0664 C.3     1  UNL1        0.0044
@<TRIPOS>BOND
     1    18    19    1
     2    19    20   ar
     3    20    21   ar
     4    21    17    1
     5    17    11    1
     6    11    12    1
     7    12    13    1
     8    13    14    1
     9    14     1    1
    10     1     2   ar
    11     2     3   ar
    12     3     4   ar
    13     4     5   ar
    14     5     6   ar
    15     6     7   ar
    16     7    25    1
    17    25    26   ar
    18    26    27   ar
    19    27    28   ar
    20    28    31    1
    21    31    32    1
    22    31    33    1
    23    31    34    1
    24    28    29   ar
    25    29    30   ar
    26     7     8   ar
    27     8     9   ar
    28    14    15    1
    29    15    16    1
    30    21    22   ar
    31    22    23   ar
    32    23    19   ar
    33    16    11    1
    34     9     1   ar
    35     9     5   ar
    36    30    25   ar
    37     6    10    1
    38    23    24    1
@<TRIPOS>MOLECULE
*****
 34 38 0 0 0
SMALL
GASTEIGER

@<TRIPOS>ATOM
      1 C          -9.1244   -6.6507   31.1403 C.ar    1  UNL1        0.0673
      2 C          -9.4619   -5.4157   30.5509 C.ar    1  UNL1        0.0161
      3 C         -10.7773   -5.1835   30.0858 C.ar    1  UNL1        0.0028
      4 C         -11.7598   -6.1867   30.1928 C.ar    1  UNL1        0.0186
      5 C         -11.3846   -7.3970   30.7722 C.ar    1  UNL1        0.0768
      6 N         -12.1242   -8.4980   30.9545 N.ar    1  UNL1       -0.3373
      7 C         -11.2652   -9.3768   31.5360 C.ar    1  UNL1        0.1406
      8 N         -10.0182   -8.8668   31.7237 N.ar    1  UNL1       -0.2258
      9 C         -10.1233   -7.6200   31.2331 C.ar    1  UNL1        0.1116
     10 H         -13.1309   -8.6296   30.7118 H       1  UNL1        0.1674
     11 N          -5.5269   -8.5780   32.2161 N.3     1  UNL1       -0.2646
     12 C          -6.7747   -8.5942   33.0178 C.3     1  UNL1        0.0941
     13 C          -7.5142   -7.2581   32.9658 C.3     1  UNL1        0.1082
     14 N          -7.7870   -6.9267   31.5685 N.pl3   1  UNL1       -0.3034
     15 C          -6.7525   -7.1237   30.5522 C.3     1  UNL1        0.1082
     16 C          -5.4071   -7.5162   31.1850 C.3     1  UNL1        0.0941
     17 C          -5.0943   -9.9194   31.7691 C.3     1  UNL1        0.1203
     18 C          -4.5484   -9.7077   26.8337 C.3     1  UNL1        0.0716
     19 C          -5.0855  -10.0374   28.1860 C.ar    1  UNL1        0.1172
     20 N          -4.5337   -9.5852   29.3324 N.ar    1  UNL1       -0.2340
     21 C          -5.2955  -10.1438   30.2946 C.ar    1  UNL1        0.0934
     22 C          -6.2681  -10.9349   29.7215 C.ar    1  UNL1        0.0896
     23 N          -6.1287  -10.8649   28.3897 N.ar    1  UNL1       -0.3398
     24 H          -6.7044  -11.3539   27.6687 H       1  UNL1        0.1671
     25 C         -11.6264  -10.7580   31.9252 C.ar    1  UNL1        0.0339
     26 C         -12.8116  -11.3317   31.4457 C.ar    1  UNL1        0.0027
     27 C         -13.1868  -12.6218   31.8275 C.ar    1  UNL1       -0.0042
     28 C         -12.3812  -13.3841   32.7046 C.ar    1  UNL1       -0.0228
     29 C         -11.1866  -12.7952   33.1745 C.ar    1  UNL1       -0.0042
     30 C         -10.8153  -11.5041   32.7913 C.ar    1  UNL1        0.0027
     31 C         -12.7602  -14.8080   33.1612 C.3     1  UNL1        0.0189
     32 C         -14.2874  -15.0600   33.1584 C.3     1  UNL1        0.0044
     33 C         -12.2498  -15.0392   34.6001 C.3     1  UNL1        0.0044
     34 C         -12.1130  -15.8423   32.2147 C.3     1  UNL1        0.0044
@<TRIPOS>BOND
     1    18    19    1
     2    19    20   ar
     3    20    21   ar
     4    21    17    1
     5    17    11    1
     6    11    12    1
     7    12    13    1
     8    13    14    1
     9    14     1    1
    10     1     2   ar
    11     2     3   ar
    12     3     4   ar
    13     4     5   ar
    14     5     6   ar
    15     6     7   ar
    16     7    25    1
    17    25    26   ar
    18    26    27   ar
    19    27    28   ar
    20    28    31    1
    21    31    32    1
    22    31    33    1
    23    31    34    1
    24    28    29   ar
    25    29    30   ar
    26     7     8   ar
    27     8     9   ar
    28    14    15    1
    29    15    16    1
    30    21    22   ar
    31    22    23   ar
    32    23    19   ar
    33    16    11    1
    34     9     1   ar
    35     9     5   ar
    36    30    25   ar
    37     6    10    1
    38    23    24    1
