@<TRIPOS>MOLECULE
*****
 46 51 0 0 0
SMALL
GASTEIGER

@<TRIPOS>ATOM
      1 C          11.7365   80.7118   25.1645 C.ar    1  UNL1        0.0702
      2 C          11.1619   81.9711   24.9607 C.ar    1  UNL1        0.0191
      3 C          11.9507   83.0494   24.5571 C.ar    1  UNL1        0.0356
      4 C          13.3342   82.8705   24.3717 C.ar    1  UNL1        0.1319
      5 N          13.8714   81.6393   24.6033 N.ar    1  UNL1       -0.2279
      6 C          13.1223   80.5745   24.9930 C.ar    1  UNL1        0.1149
      7 N          14.1865   83.9601   23.9436 N.pl3   1  UNL1       -0.2908
      8 C          13.9204   85.3410   24.3833 C.3     1  UNL1        0.0925
      9 C          14.7486   86.3629   23.5911 C.3     1  UNL1        0.0277
     10 C          14.6970   86.0439   22.0840 C.3     1  UNL1        0.0740
     11 C          15.1825   84.5908   21.7686 C.3     1  UNL1        0.1338
     12 O          14.2812   83.9687   20.8882 O.3     1  UNL1       -0.3826
     13 C          15.3144   83.7193   23.0299 C.3     1  UNL1        0.1214
     14 H          14.4668   84.3288   19.9823 H       1  UNL1        0.2104
     15 C          15.5058   87.0951   21.2969 C.3     1  UNL1        0.2078
     16 O          14.7513   88.2930   21.1063 O.3     1  UNL1       -0.4754
     17 C          13.7477   88.4822   20.1419 C.ar    1  UNL1        0.1388
     18 C          12.3834   88.5885   20.4723 C.ar    1  UNL1        0.0369
     19 C          11.4302   88.7723   19.4687 C.ar    1  UNL1        0.0033
     20 C          11.8226   88.8555   18.1312 C.ar    1  UNL1        0.0066
     21 C          13.1795   88.7572   17.7819 C.ar    1  UNL1        0.0785
     22 C          14.1344   88.5724   18.7987 C.ar    1  UNL1        0.0433
     23 C          13.5938   88.8465   16.3642 C.2     1  UNL1        0.3381
     24 O          12.7314   88.8334   15.4445 O.2     1  UNL1       -0.2451
     25 O          14.9425   88.9460   16.0320 O.3     1  UNL1       -0.4771
     26 H          15.2371   89.0077   15.0647 H       1  UNL1        0.2954
     27 C          11.4316   78.3704   26.0971 C.2     1  UNL1        0.2839
     28 O          12.6470   78.0787   25.9353 O.2     1  UNL1       -0.2665
     29 N          10.9144   79.6161   25.6019 N.am    1  UNL1       -0.2766
     30 H           9.8807   79.7008   25.4720 H       1  UNL1        0.1553
     31 C           8.3110   77.9432   25.5031 C.3     1  UNL1        0.0345
     32 C           9.1636   77.2231   26.5040 C.ar    1  UNL1        0.0202
     33 C          10.5261   77.4133   26.7609 C.ar    1  UNL1        0.1946
     34 O          10.9257   76.5902   27.7140 O.2     1  UNL1       -0.4492
     35 C           9.8925   75.8762   28.0890 C.ar    1  UNL1        0.1452
     36 C           9.8603   74.8865   29.0651 C.ar    1  UNL1        0.0375
     37 C           8.6367   74.2392   29.3087 C.ar    1  UNL1        0.0031
     38 C           7.4693   74.5886   28.5772 C.ar    1  UNL1        0.0002
     39 C           7.5453   75.6025   27.5922 C.ar    1  UNL1        0.0028
     40 C           8.7762   76.2243   27.3768 C.ar    1  UNL1        0.0337
     41 C           6.1822   73.8975   28.8432 C.ar    1  UNL1        0.0000
     42 C           5.3504   74.3149   29.8996 C.ar    1  UNL1        0.0000
     43 C           4.1394   73.6615   30.1482 C.ar    1  UNL1        0.0000
     44 C           3.7449   72.5876   29.3474 C.ar    1  UNL1        0.0000
     45 C           4.5610   72.1641   28.2961 C.ar    1  UNL1        0.0000
     46 C           5.7734   72.8131   28.0434 C.ar    1  UNL1        0.0000
@<TRIPOS>BOND
     1    31    32    1
     2    32    33   ar
     3    33    27    1
     4    27    28    2
     5    27    29   am
     6    29     1    1
     7     1     2   ar
     8     2     3   ar
     9     3     4   ar
    10     4     7    1
    11     7     8    1
    12     8     9    1
    13     9    10    1
    14    10    15    1
    15    15    16    1
    16    16    17    1
    17    17    18   ar
    18    18    19   ar
    19    19    20   ar
    20    20    21   ar
    21    21    23    1
    22    23    24    2
    23    23    25    1
    24    21    22   ar
    25    10    11    1
    26    11    12    1
    27    11    13    1
    28     4     5   ar
    29     5     6   ar
    30    33    34   ar
    31    34    35   ar
    32    35    36   ar
    33    36    37   ar
    34    37    38   ar
    35    38    41    1
    36    41    42   ar
    37    42    43   ar
    38    43    44   ar
    39    44    45   ar
    40    45    46   ar
    41    38    39   ar
    42    39    40   ar
    43    40    32   ar
    44     6     1   ar
    45    40    35   ar
    46    13     7    1
    47    46    41   ar
    48    22    17   ar
    49    29    30    1
    50    25    26    1
    51    12    14    1
@<TRIPOS>MOLECULE
*****
 46 51 0 0 0
SMALL
GASTEIGER

@<TRIPOS>ATOM
      1 C          11.6555   80.7143   25.2505 C.ar    1  UNL1        0.0702
      2 C          13.0294   80.5399   25.0518 C.ar    1  UNL1        0.0191
      3 C          13.8210   81.6061   24.6227 C.ar    1  UNL1        0.0356
      4 C          13.2288   82.8578   24.3724 C.ar    1  UNL1        0.1319
      5 N          11.8837   82.9921   24.5488 N.ar    1  UNL1       -0.2279
      6 C          11.0942   81.9691   24.9694 C.ar    1  UNL1        0.1149
      7 N          14.0155   83.9926   23.9362 N.pl3   1  UNL1       -0.2908
      8 C          13.6038   85.3671   24.2717 C.3     1  UNL1        0.0925
      9 C          14.3983   86.4123   23.4755 C.3     1  UNL1        0.0277
     10 C          14.4819   86.0072   21.9907 C.3     1  UNL1        0.0740
     11 C          15.1087   84.5871   21.7980 C.3     1  UNL1        0.1338
     12 O          14.3282   83.8406   20.8992 O.3     1  UNL1       -0.3826
     13 C          15.2222   83.8017   23.1163 C.3     1  UNL1        0.1214
     14 H          14.5475   84.1650   19.9874 H       1  UNL1        0.2104
     15 C          15.2543   87.0802   21.1964 C.3     1  UNL1        0.2078
     16 O          14.4149   87.7131   20.2293 O.3     1  UNL1       -0.4754
     17 C          14.4023   87.4369   18.8521 C.ar    1  UNL1        0.1388
     18 C          14.1646   88.4256   17.8785 C.ar    1  UNL1        0.0369
     19 C          14.1607   88.0898   16.5232 C.ar    1  UNL1        0.0033
     20 C          14.3954   86.7728   16.1231 C.ar    1  UNL1        0.0066
     21 C          14.6398   85.7732   17.0791 C.ar    1  UNL1        0.0785
     22 C          14.6427   86.1191   18.4430 C.ar    1  UNL1        0.0433
     23 C          14.8893   84.3781   16.6534 C.2     1  UNL1        0.3381
     24 O          15.7798   83.6872   17.2187 O.2     1  UNL1       -0.2451
     25 O          14.1416   83.8145   15.6227 O.3     1  UNL1       -0.4771
     26 H          14.3041   82.8604   15.3235 H       1  UNL1        0.2954
     27 C          11.3832   78.3800   26.2107 C.2     1  UNL1        0.2839
     28 O          12.6130   78.1245   26.1066 O.2     1  UNL1       -0.2665
     29 N          10.8495   79.6003   25.6715 N.am    1  UNL1       -0.2766
     30 H           9.8204   79.6498   25.4958 H       1  UNL1        0.1553
     31 C           8.2526   77.9931   25.6417 C.3     1  UNL1        0.0345
     32 C           9.1130   77.2328   26.6057 C.ar    1  UNL1        0.0202
     33 C          10.4798   77.4056   26.8517 C.ar    1  UNL1        0.1946
     34 O          10.8859   76.5469   27.7700 O.2     1  UNL1       -0.4492
     35 C           9.8528   75.8264   28.1328 C.ar    1  UNL1        0.1452
     36 C           9.8263   74.8031   29.0738 C.ar    1  UNL1        0.0375
     37 C           8.6016   74.1550   29.3099 C.ar    1  UNL1        0.0031
     38 C           7.4276   74.5372   28.6061 C.ar    1  UNL1        0.0002
     39 C           7.4979   75.5847   27.6565 C.ar    1  UNL1        0.0028
     40 C           8.7300   76.2062   27.4476 C.ar    1  UNL1        0.0337
     41 C           6.1393   73.8449   28.8638 C.ar    1  UNL1        0.0000
     42 C           5.7390   72.7567   28.0653 C.ar    1  UNL1        0.0000
     43 C           4.5249   72.1076   28.3098 C.ar    1  UNL1        0.0000
     44 C           3.6988   72.5349   29.3516 C.ar    1  UNL1        0.0000
     45 C           4.0847   73.6130   30.1511 C.ar    1  UNL1        0.0000
     46 C           5.2973   74.2665   29.9107 C.ar    1  UNL1        0.0000
@<TRIPOS>BOND
     1    31    32    1
     2    32    33   ar
     3    33    27    1
     4    27    28    2
     5    27    29   am
     6    29     1    1
     7     1     2   ar
     8     2     3   ar
     9     3     4   ar
    10     4     7    1
    11     7     8    1
    12     8     9    1
    13     9    10    1
    14    10    15    1
    15    15    16    1
    16    16    17    1
    17    17    18   ar
    18    18    19   ar
    19    19    20   ar
    20    20    21   ar
    21    21    23    1
    22    23    24    2
    23    23    25    1
    24    21    22   ar
    25    10    11    1
    26    11    12    1
    27    11    13    1
    28     4     5   ar
    29     5     6   ar
    30    33    34   ar
    31    34    35   ar
    32    35    36   ar
    33    36    37   ar
    34    37    38   ar
    35    38    41    1
    36    41    42   ar
    37    42    43   ar
    38    43    44   ar
    39    44    45   ar
    40    45    46   ar
    41    38    39   ar
    42    39    40   ar
    43    40    32   ar
    44     6     1   ar
    45    40    35   ar
    46    13     7    1
    47    46    41   ar
    48    22    17   ar
    49    29    30    1
    50    25    26    1
    51    12    14    1
@<TRIPOS>MOLECULE
*****
 46 51 0 0 0
SMALL
GASTEIGER

@<TRIPOS>ATOM
      1 C          11.9107   80.5937   25.0803 C.ar    1  UNL1        0.0702
      2 C          11.2213   81.7560   24.7178 C.ar    1  UNL1        0.0191
      3 C          11.9211   82.8966   24.3215 C.ar    1  UNL1        0.0356
      4 C          13.3280   82.8806   24.3040 C.ar    1  UNL1        0.1319
      5 N          13.9741   81.7432   24.6877 N.ar    1  UNL1       -0.2279
      6 C          13.3136   80.6200   25.0736 C.ar    1  UNL1        0.1149
      7 N          14.0921   84.0387   23.8895 N.pl3   1  UNL1       -0.2908
      8 C          13.6768   85.3956   24.2866 C.3     1  UNL1        0.0925
      9 C          14.4397   86.4776   23.5089 C.3     1  UNL1        0.0277
     10 C          14.4872   86.1283   22.0084 C.3     1  UNL1        0.0740
     11 C          15.1218   84.7229   21.7466 C.3     1  UNL1        0.1338
     12 O          14.3244   84.0020   20.8417 O.3     1  UNL1       -0.3826
     13 C          15.2781   83.8906   23.0313 C.3     1  UNL1        0.1214
     14 H          14.5161   84.3619   19.9370 H       1  UNL1        0.2104
     15 C          15.2278   87.2378   21.2343 C.3     1  UNL1        0.2078
     16 O          14.3794   87.8424   20.2569 O.3     1  UNL1       -0.4754
     17 C          14.3803   87.5529   18.8824 C.ar    1  UNL1        0.1388
     18 C          14.1171   88.5248   17.8986 C.ar    1  UNL1        0.0369
     19 C          14.1282   88.1761   16.5465 C.ar    1  UNL1        0.0033
     20 C          14.4034   86.8629   16.1599 C.ar    1  UNL1        0.0066
     21 C          14.6737   85.8801   17.1263 C.ar    1  UNL1        0.0785
     22 C          14.6611   86.2389   18.4868 C.ar    1  UNL1        0.0433
     23 C          14.9660   84.4891   16.7150 C.2     1  UNL1        0.3381
     24 O          16.1305   84.0197   16.8315 O.2     1  UNL1       -0.2451
     25 O          13.9559   83.6842   16.1943 O.3     1  UNL1       -0.4771
     26 H          14.1451   82.7305   15.9097 H       1  UNL1        0.2954
     27 C          10.1199   79.4646   26.4813 C.2     1  UNL1        0.2839
     28 O           9.9516   80.4840   27.2031 O.2     1  UNL1       -0.2665
     29 N          11.1761   79.4338   25.5077 N.am    1  UNL1       -0.2766
     30 H          11.4867   78.5018   25.1506 H       1  UNL1        0.1553
     31 C           8.1981   78.8487   28.9715 C.3     1  UNL1        0.0345
     32 C           8.4154   78.0100   27.7480 C.ar    1  UNL1        0.0202
     33 C           9.2564   78.2823   26.6631 C.ar    1  UNL1        0.1946
     34 O           9.1785   77.3072   25.7749 O.2     1  UNL1       -0.4492
     35 C           8.3309   76.4162   26.2282 C.ar    1  UNL1        0.1452
     36 C           7.9466   75.2288   25.6152 C.ar    1  UNL1        0.0375
     37 C           7.0147   74.4138   26.2808 C.ar    1  UNL1        0.0031
     38 C           6.4835   74.7953   27.5426 C.ar    1  UNL1        0.0002
     39 C           6.9018   76.0123   28.1323 C.ar    1  UNL1        0.0028
     40 C           7.8286   76.7966   27.4437 C.ar    1  UNL1        0.0337
     41 C           5.4993   73.9261   28.2363 C.ar    1  UNL1        0.0000
     42 C           5.3393   72.5802   27.8555 C.ar    1  UNL1        0.0000
     43 C           4.4110   71.7645   28.5099 C.ar    1  UNL1        0.0000
     44 C           3.6344   72.2806   29.5495 C.ar    1  UNL1        0.0000
     45 C           3.7839   73.6141   29.9369 C.ar    1  UNL1        0.0000
     46 C           4.7099   74.4346   29.2855 C.ar    1  UNL1        0.0000
@<TRIPOS>BOND
     1    31    32    1
     2    32    33   ar
     3    33    27    1
     4    27    28    2
     5    27    29   am
     6    29     1    1
     7     1     2   ar
     8     2     3   ar
     9     3     4   ar
    10     4     7    1
    11     7     8    1
    12     8     9    1
    13     9    10    1
    14    10    15    1
    15    15    16    1
    16    16    17    1
    17    17    18   ar
    18    18    19   ar
    19    19    20   ar
    20    20    21   ar
    21    21    23    1
    22    23    24    2
    23    23    25    1
    24    21    22   ar
    25    10    11    1
    26    11    12    1
    27    11    13    1
    28     4     5   ar
    29     5     6   ar
    30    33    34   ar
    31    34    35   ar
    32    35    36   ar
    33    36    37   ar
    34    37    38   ar
    35    38    41    1
    36    41    42   ar
    37    42    43   ar
    38    43    44   ar
    39    44    45   ar
    40    45    46   ar
    41    38    39   ar
    42    39    40   ar
    43    40    32   ar
    44     6     1   ar
    45    40    35   ar
    46    13     7    1
    47    46    41   ar
    48    22    17   ar
    49    29    30    1
    50    25    26    1
    51    12    14    1
@<TRIPOS>MOLECULE
*****
 46 51 0 0 0
SMALL
GASTEIGER

@<TRIPOS>ATOM
      1 C          10.5551   81.0929   24.5600 C.ar    1  UNL1        0.0702
      2 C          10.1520   80.4573   23.3806 C.ar    1  UNL1        0.0191
      3 C           9.4269   79.2660   23.4337 C.ar    1  UNL1        0.0356
      4 C           9.1160   78.6939   24.6812 C.ar    1  UNL1        0.1319
      5 N           9.5444   79.3207   25.8133 N.ar    1  UNL1       -0.2279
      6 C          10.2481   80.4829   25.7858 C.ar    1  UNL1        0.1149
      7 N           8.3569   77.4648   24.7810 N.pl3   1  UNL1       -0.2908
      8 C           8.8892   76.3100   25.5255 C.3     1  UNL1        0.0925
      9 C           8.0755   75.0350   25.2612 C.3     1  UNL1        0.0277
     10 C           7.7973   74.8780   23.7533 C.3     1  UNL1        0.0740
     11 C           7.0652   76.1229   23.1527 C.3     1  UNL1        0.1338
     12 O           7.6895   76.5098   21.9548 O.3     1  UNL1       -0.3826
     13 C           7.0546   77.3275   24.1100 C.3     1  UNL1        0.1214
     14 H           7.3879   75.8758   21.2536 H       1  UNL1        0.2104
     15 C           7.0075   73.5781   23.4977 C.3     1  UNL1        0.2078
     16 O           7.7729   72.6497   22.7277 O.3     1  UNL1       -0.4754
     17 C           9.1429   72.7614   22.4384 C.ar    1  UNL1        0.1388
     18 C          10.0338   71.6759   22.5375 C.ar    1  UNL1        0.0369
     19 C          11.3871   71.8489   22.2403 C.ar    1  UNL1        0.0033
     20 C          11.8663   73.0978   21.8398 C.ar    1  UNL1        0.0066
     21 C          10.9922   74.1918   21.7298 C.ar    1  UNL1        0.0785
     22 C           9.6297   74.0098   22.0305 C.ar    1  UNL1        0.0433
     23 C          11.5014   75.5144   21.3044 C.2     1  UNL1        0.3381
     24 O          11.3165   76.5323   22.0252 O.2     1  UNL1       -0.2451
     25 O          12.1909   75.6473   20.1018 O.3     1  UNL1       -0.4771
     26 H          12.5438   76.5480   19.8011 H       1  UNL1        0.2954
     27 C          12.7344   82.3833   24.7342 C.2     1  UNL1        0.2839
     28 O          13.3365   81.4184   25.2774 O.2     1  UNL1       -0.2665
     29 N          11.3207   82.3080   24.4885 N.am    1  UNL1       -0.2766
     30 H          10.8022   83.2018   24.3312 H       1  UNL1        0.1553
     31 C          15.5661   82.5679   23.2440 C.3     1  UNL1        0.0345
     32 C          14.7099   83.6964   23.7347 C.ar    1  UNL1        0.0202
     33 C          13.4741   83.6114   24.3859 C.ar    1  UNL1        0.1946
     34 O          13.0246   84.8226   24.6625 O.2     1  UNL1       -0.4492
     35 C          13.9054   85.6888   24.2248 C.ar    1  UNL1        0.1452
     36 C          13.8369   87.0754   24.3042 C.ar    1  UNL1        0.0375
     37 C          14.8994   87.8207   23.7646 C.ar    1  UNL1        0.0031
     38 C          16.0090   87.1731   23.1569 C.ar    1  UNL1        0.0002
     39 C          16.0397   85.7590   23.0974 C.ar    1  UNL1        0.0028
     40 C          14.9681   85.0508   23.6433 C.ar    1  UNL1        0.0337
     41 C          17.1256   87.9712   22.5900 C.ar    1  UNL1        0.0000
     42 C          17.0802   88.4191   21.2561 C.ar    1  UNL1        0.0000
     43 C          18.1336   89.1696   20.7247 C.ar    1  UNL1        0.0000
     44 C          19.2411   89.4817   21.5162 C.ar    1  UNL1        0.0000
     45 C          19.2979   89.0435   22.8411 C.ar    1  UNL1        0.0000
     46 C          18.2479   88.2920   23.3775 C.ar    1  UNL1        0.0000
@<TRIPOS>BOND
     1    31    32    1
     2    32    33   ar
     3    33    27    1
     4    27    28    2
     5    27    29   am
     6    29     1    1
     7     1     2   ar
     8     2     3   ar
     9     3     4   ar
    10     4     7    1
    11     7     8    1
    12     8     9    1
    13     9    10    1
    14    10    15    1
    15    15    16    1
    16    16    17    1
    17    17    18   ar
    18    18    19   ar
    19    19    20   ar
    20    20    21   ar
    21    21    23    1
    22    23    24    2
    23    23    25    1
    24    21    22   ar
    25    10    11    1
    26    11    12    1
    27    11    13    1
    28     4     5   ar
    29     5     6   ar
    30    33    34   ar
    31    34    35   ar
    32    35    36   ar
    33    36    37   ar
    34    37    38   ar
    35    38    41    1
    36    41    42   ar
    37    42    43   ar
    38    43    44   ar
    39    44    45   ar
    40    45    46   ar
    41    38    39   ar
    42    39    40   ar
    43    40    32   ar
    44     6     1   ar
    45    40    35   ar
    46    13     7    1
    47    46    41   ar
    48    22    17   ar
    49    29    30    1
    50    25    26    1
    51    12    14    1
@<TRIPOS>MOLECULE
*****
 46 51 0 0 0
SMALL
GASTEIGER

@<TRIPOS>ATOM
      1 C          11.9218   81.0843   25.0003 C.ar    1  UNL1        0.0702
      2 C          11.3516   82.3243   24.6926 C.ar    1  UNL1        0.0191
      3 C          12.1617   83.4068   24.3468 C.ar    1  UNL1        0.0356
      4 C          13.5602   83.2524   24.3253 C.ar    1  UNL1        0.1319
      5 N          14.0897   82.0404   24.6553 N.ar    1  UNL1       -0.2279
      6 C          13.3204   80.9718   24.9914 C.ar    1  UNL1        0.1149
      7 N          14.4360   84.3469   23.9619 N.pl3   1  UNL1       -0.2908
      8 C          14.4749   85.5792   24.7689 C.3     1  UNL1        0.0925
      9 C          15.2343   86.7065   24.0548 C.3     1  UNL1        0.0277
     10 C          14.7938   86.8015   22.5808 C.3     1  UNL1        0.0740
     11 C          14.9846   85.4501   21.8166 C.3     1  UNL1        0.1338
     12 O          13.8270   85.1542   21.0772 O.3     1  UNL1       -0.3826
     13 C          15.2787   84.2692   22.7582 C.3     1  UNL1        0.1214
     14 H          13.8484   85.7251   20.2658 H       1  UNL1        0.2104
     15 C          15.5399   87.9573   21.8833 C.3     1  UNL1        0.2078
     16 O          14.6322   88.9683   21.4422 O.3     1  UNL1       -0.4754
     17 C          13.6647   88.8155   20.4355 C.ar    1  UNL1        0.1388
     18 C          12.3085   88.5607   20.7140 C.ar    1  UNL1        0.0369
     19 C          11.3928   88.4144   19.6701 C.ar    1  UNL1        0.0033
     20 C          11.8140   88.5227   18.3431 C.ar    1  UNL1        0.0066
     21 C          13.1619   88.7819   18.0450 C.ar    1  UNL1        0.0785
     22 C          14.0788   88.9286   19.1022 C.ar    1  UNL1        0.0433
     23 C          13.6065   88.8974   16.6384 C.2     1  UNL1        0.3381
     24 O          14.8120   89.1497   16.3680 O.2     1  UNL1       -0.2451
     25 O          12.6960   88.7281   15.5984 O.3     1  UNL1       -0.4771
     26 H          12.9898   88.8049   14.6320 H       1  UNL1        0.2954
     27 C          10.2279   79.9822   26.5369 C.2     1  UNL1        0.2839
     28 O          10.3755   80.8570   27.4322 O.2     1  UNL1       -0.2665
     29 N          11.0751   79.9845   25.3764 N.am    1  UNL1       -0.2766
     30 H          11.1446   79.1034   24.8184 H       1  UNL1        0.1553
     31 C           9.5882   78.3154   29.1989 C.3     1  UNL1        0.0345
     32 C           8.9265   78.1976   27.8588 C.ar    1  UNL1        0.0202
     33 C           9.2096   78.9270   26.6985 C.ar    1  UNL1        0.1946
     34 O           8.4142   78.5411   25.7166 O.2     1  UNL1       -0.4492
     35 C           7.6302   77.5986   26.1801 C.ar    1  UNL1        0.1452
     36 C           6.6388   76.9102   25.4897 C.ar    1  UNL1        0.0375
     37 C           5.9084   75.9312   26.1851 C.ar    1  UNL1        0.0031
     38 C           6.1780   75.6558   27.5531 C.ar    1  UNL1        0.0002
     39 C           7.1965   76.3792   28.2189 C.ar    1  UNL1        0.0028
     40 C           7.9019   77.3438   27.4976 C.ar    1  UNL1        0.0337
     41 C           5.3995   74.6192   28.2775 C.ar    1  UNL1        0.0000
     42 C           5.3613   73.2931   27.8064 C.ar    1  UNL1        0.0000
     43 C           4.6266   72.3194   28.4901 C.ar    1  UNL1        0.0000
     44 C           3.9241   72.6566   29.6490 C.ar    1  UNL1        0.0000
     45 C           3.9542   73.9686   30.1268 C.ar    1  UNL1        0.0000
     46 C           4.6865   74.9466   29.4467 C.ar    1  UNL1        0.0000
@<TRIPOS>BOND
     1    31    32    1
     2    32    33   ar
     3    33    27    1
     4    27    28    2
     5    27    29   am
     6    29     1    1
     7     1     2   ar
     8     2     3   ar
     9     3     4   ar
    10     4     7    1
    11     7     8    1
    12     8     9    1
    13     9    10    1
    14    10    15    1
    15    15    16    1
    16    16    17    1
    17    17    18   ar
    18    18    19   ar
    19    19    20   ar
    20    20    21   ar
    21    21    23    1
    22    23    24    2
    23    23    25    1
    24    21    22   ar
    25    10    11    1
    26    11    12    1
    27    11    13    1
    28     4     5   ar
    29     5     6   ar
    30    33    34   ar
    31    34    35   ar
    32    35    36   ar
    33    36    37   ar
    34    37    38   ar
    35    38    41    1
    36    41    42   ar
    37    42    43   ar
    38    43    44   ar
    39    44    45   ar
    40    45    46   ar
    41    38    39   ar
    42    39    40   ar
    43    40    32   ar
    44     6     1   ar
    45    40    35   ar
    46    13     7    1
    47    46    41   ar
    48    22    17   ar
    49    29    30    1
    50    25    26    1
    51    12    14    1
@<TRIPOS>MOLECULE
*****
 46 51 0 0 0
SMALL
GASTEIGER

@<TRIPOS>ATOM
      1 C          11.8508   80.4870   25.1227 C.ar    1  UNL1        0.0702
      2 C          11.1926   81.7166   25.0121 C.ar    1  UNL1        0.0191
      3 C          11.8966   82.8626   24.6395 C.ar    1  UNL1        0.0356
      4 C          13.2794   82.7816   24.3914 C.ar    1  UNL1        0.1319
      5 N          13.8999   81.5761   24.5326 N.ar    1  UNL1       -0.2279
      6 C          13.2340   80.4468   24.8905 C.ar    1  UNL1        0.1149
      7 N          14.0451   83.9442   23.9925 N.pl3   1  UNL1       -0.2908
      8 C          13.6253   85.2971   24.3983 C.3     1  UNL1        0.0925
      9 C          14.3927   86.3866   23.6357 C.3     1  UNL1        0.0277
     10 C          14.4517   86.0504   22.1326 C.3     1  UNL1        0.0740
     11 C          15.0899   84.6480   21.8634 C.3     1  UNL1        0.1338
     12 O          14.3001   83.9340   20.9464 O.3     1  UNL1       -0.3826
     13 C          15.2376   83.8048   23.1420 C.3     1  UNL1        0.1214
     14 H          14.4980   84.3020   20.0463 H       1  UNL1        0.2104
     15 C          15.1967   87.1674   21.3736 C.3     1  UNL1        0.2078
     16 O          16.6124   86.9979   21.4610 O.3     1  UNL1       -0.4754
     17 C          17.4943   87.8366   22.1624 C.ar    1  UNL1        0.1388
     18 C          18.4165   88.6826   21.5177 C.ar    1  UNL1        0.0369
     19 C          19.2712   89.4918   22.2690 C.ar    1  UNL1        0.0033
     20 C          19.2158   89.4706   23.6641 C.ar    1  UNL1        0.0066
     21 C          18.2989   88.6371   24.3257 C.ar    1  UNL1        0.0785
     22 C          17.4405   87.8249   23.5620 C.ar    1  UNL1        0.0433
     23 C          18.2408   88.6165   25.8041 C.2     1  UNL1        0.3381
     24 O          17.1314   88.6702   26.4007 O.2     1  UNL1       -0.2451
     25 O          19.4132   88.5373   26.5515 O.3     1  UNL1       -0.4771
     26 H          19.3848   88.5224   27.5640 H       1  UNL1        0.2954
     27 C          11.5558   78.4071   26.5482 C.2     1  UNL1        0.2839
     28 O          12.7440   78.4477   26.9667 O.2     1  UNL1       -0.2665
     29 N          11.1160   79.3196   25.5291 N.am    1  UNL1       -0.2766
     30 H          10.2529   79.0761   24.9922 H       1  UNL1        0.1553
     31 C           8.3551   78.4675   26.3884 C.3     1  UNL1        0.0345
     32 C           9.2253   77.4153   27.0074 C.ar    1  UNL1        0.0202
     33 C          10.6229   77.3932   27.0758 C.ar    1  UNL1        0.1946
     34 O          11.0279   76.2999   27.6972 O.2     1  UNL1       -0.4492
     35 C           9.9650   75.6119   28.0360 C.ar    1  UNL1        0.1452
     36 C           9.9262   74.3946   28.7069 C.ar    1  UNL1        0.0375
     37 C           8.6681   73.8257   28.9700 C.ar    1  UNL1        0.0031
     38 C           7.4736   74.4782   28.5611 C.ar    1  UNL1        0.0002
     39 C           7.5575   75.7168   27.8809 C.ar    1  UNL1        0.0028
     40 C           8.8229   76.2527   27.6366 C.ar    1  UNL1        0.0337
     41 C           6.1501   73.8673   28.8444 C.ar    1  UNL1        0.0000
     42 C           5.6668   72.8074   28.0538 C.ar    1  UNL1        0.0000
     43 C           4.4197   72.2348   28.3224 C.ar    1  UNL1        0.0000
     44 C           3.6428   72.7113   29.3806 C.ar    1  UNL1        0.0000
     45 C           4.1112   73.7620   30.1725 C.ar    1  UNL1        0.0000
     46 C           5.3570   74.3390   29.9080 C.ar    1  UNL1        0.0000
@<TRIPOS>BOND
     1    31    32    1
     2    32    33   ar
     3    33    27    1
     4    27    28    2
     5    27    29   am
     6    29     1    1
     7     1     2   ar
     8     2     3   ar
     9     3     4   ar
    10     4     7    1
    11     7     8    1
    12     8     9    1
    13     9    10    1
    14    10    15    1
    15    15    16    1
    16    16    17    1
    17    17    18   ar
    18    18    19   ar
    19    19    20   ar
    20    20    21   ar
    21    21    23    1
    22    23    24    2
    23    23    25    1
    24    21    22   ar
    25    10    11    1
    26    11    12    1
    27    11    13    1
    28     4     5   ar
    29     5     6   ar
    30    33    34   ar
    31    34    35   ar
    32    35    36   ar
    33    36    37   ar
    34    37    38   ar
    35    38    41    1
    36    41    42   ar
    37    42    43   ar
    38    43    44   ar
    39    44    45   ar
    40    45    46   ar
    41    38    39   ar
    42    39    40   ar
    43    40    32   ar
    44     6     1   ar
    45    40    35   ar
    46    13     7    1
    47    46    41   ar
    48    22    17   ar
    49    29    30    1
    50    25    26    1
    51    12    14    1
@<TRIPOS>MOLECULE
*****
 46 51 0 0 0
SMALL
GASTEIGER

@<TRIPOS>ATOM
      1 C          10.8105   81.3995   24.7076 C.ar    1  UNL1        0.0702
      2 C          10.4870   80.6552   23.5679 C.ar    1  UNL1        0.0191
      3 C           9.7715   79.4626   23.6839 C.ar    1  UNL1        0.0356
      4 C           9.3898   78.9994   24.9567 C.ar    1  UNL1        0.1319
      5 N           9.7416   79.7311   26.0517 N.ar    1  UNL1       -0.2279
      6 C          10.4344   80.8967   25.9623 C.ar    1  UNL1        0.1149
      7 N           8.6378   77.7728   25.1205 N.pl3   1  UNL1       -0.2908
      8 C           7.9017   77.1845   23.9876 C.3     1  UNL1        0.0925
      9 C           6.9483   76.0701   24.4421 C.3     1  UNL1        0.0277
     10 C           6.1564   76.5150   25.6874 C.3     1  UNL1        0.0740
     11 C           7.0935   76.9409   26.8650 C.3     1  UNL1        0.1338
     12 O           6.6495   78.1575   27.4102 O.3     1  UNL1       -0.3826
     13 C           8.5601   77.1063   26.4300 C.3     1  UNL1        0.1214
     14 H           5.8667   77.9489   27.9833 H       1  UNL1        0.2104
     15 C           5.1800   75.4001   26.1147 C.3     1  UNL1        0.2078
     16 O           3.8332   75.8749   26.1460 O.3     1  UNL1       -0.4754
     17 C           3.2028   76.6131   25.1308 C.ar    1  UNL1        0.1388
     18 C           2.4768   77.7922   25.3844 C.ar    1  UNL1        0.0369
     19 C           1.8681   78.4817   24.3337 C.ar    1  UNL1        0.0033
     20 C           1.9775   78.0094   23.0242 C.ar    1  UNL1        0.0066
     21 C           2.7021   76.8377   22.7503 C.ar    1  UNL1        0.0785
     22 C           3.3131   76.1485   23.8140 C.ar    1  UNL1        0.0433
     23 C           2.8179   76.3390   21.3619 C.2     1  UNL1        0.3381
     24 O           2.3950   77.0316   20.3969 O.2     1  UNL1       -0.2451
     25 O           3.3960   75.0978   21.1079 O.3     1  UNL1       -0.4771
     26 H           3.4802   74.7469   20.1614 H       1  UNL1        0.2954
     27 C          12.8794   82.8100   25.1257 C.2     1  UNL1        0.2839
     28 O          13.3349   82.0032   25.9803 O.2     1  UNL1       -0.2665
     29 N          11.5674   82.6148   24.5735 N.am    1  UNL1       -0.2766
     30 H          11.0999   83.4322   24.1198 H       1  UNL1        0.1553
     31 C          15.2107   82.8837   22.9272 C.3     1  UNL1        0.0345
     32 C          14.6959   84.0189   23.7602 C.ar    1  UNL1        0.0202
     33 C          13.6781   83.9822   24.7199 C.ar    1  UNL1        0.1946
     34 O          13.5067   85.1832   25.2432 O.2     1  UNL1       -0.4492
     35 C          14.3613   85.9969   24.6727 C.ar    1  UNL1        0.1452
     36 C          14.5272   87.3551   24.9198 C.ar    1  UNL1        0.0375
     37 C          15.5095   88.0441   24.1877 C.ar    1  UNL1        0.0031
     38 C          16.3076   87.3692   23.2247 C.ar    1  UNL1        0.0002
     39 C          16.1068   85.9854   23.0041 C.ar    1  UNL1        0.0028
     40 C          15.1230   85.3330   23.7489 C.ar    1  UNL1        0.0337
     41 C          17.3423   88.1077   22.4571 C.ar    1  UNL1        0.0000
     42 C          18.5292   88.5344   23.0826 C.ar    1  UNL1        0.0000
     43 C          19.5012   89.2305   22.3574 C.ar    1  UNL1        0.0000
     44 C          19.3012   89.5075   21.0033 C.ar    1  UNL1        0.0000
     45 C          18.1281   89.0894   20.3712 C.ar    1  UNL1        0.0000
     46 C          17.1523   88.3937   21.0915 C.ar    1  UNL1        0.0000
@<TRIPOS>BOND
     1    31    32    1
     2    32    33   ar
     3    33    27    1
     4    27    28    2
     5    27    29   am
     6    29     1    1
     7     1     2   ar
     8     2     3   ar
     9     3     4   ar
    10     4     7    1
    11     7     8    1
    12     8     9    1
    13     9    10    1
    14    10    15    1
    15    15    16    1
    16    16    17    1
    17    17    18   ar
    18    18    19   ar
    19    19    20   ar
    20    20    21   ar
    21    21    23    1
    22    23    24    2
    23    23    25    1
    24    21    22   ar
    25    10    11    1
    26    11    12    1
    27    11    13    1
    28     4     5   ar
    29     5     6   ar
    30    33    34   ar
    31    34    35   ar
    32    35    36   ar
    33    36    37   ar
    34    37    38   ar
    35    38    41    1
    36    41    42   ar
    37    42    43   ar
    38    43    44   ar
    39    44    45   ar
    40    45    46   ar
    41    38    39   ar
    42    39    40   ar
    43    40    32   ar
    44     6     1   ar
    45    40    35   ar
    46    13     7    1
    47    46    41   ar
    48    22    17   ar
    49    29    30    1
    50    25    26    1
    51    12    14    1
@<TRIPOS>MOLECULE
*****
 46 51 0 0 0
SMALL
GASTEIGER

@<TRIPOS>ATOM
      1 C          10.0151   79.5159   24.1125 C.ar    1  UNL1        0.0702
      2 C           9.8928   79.2210   22.7503 C.ar    1  UNL1        0.0191
      3 C           9.2532   78.0517   22.3363 C.ar    1  UNL1        0.0356
      4 C           8.7449   77.1575   23.2966 C.ar    1  UNL1        0.1319
      5 N           8.9018   77.4571   24.6172 N.ar    1  UNL1       -0.2279
      6 C           9.5175   78.5912   25.0431 C.ar    1  UNL1        0.1149
      7 N           8.0654   75.9387   22.9096 N.pl3   1  UNL1       -0.2908
      8 C           8.2504   75.3691   21.5633 C.3     1  UNL1        0.0925
      9 C           7.2286   74.2624   21.2654 C.3     1  UNL1        0.0277
     10 C           5.8157   74.7062   21.6928 C.3     1  UNL1        0.0740
     11 C           5.7526   75.1107   23.2024 C.3     1  UNL1        0.1338
     12 O           5.0642   76.3278   23.3404 O.3     1  UNL1       -0.3826
     13 C           7.1458   75.2621   23.8378 C.3     1  UNL1        0.1214
     14 H           4.0966   76.1238   23.2569 H       1  UNL1        0.2104
     15 C           4.7945   73.5995   21.3594 C.3     1  UNL1        0.2078
     16 O           3.6750   74.1258   20.6450 O.3     1  UNL1       -0.4754
     17 C           3.4723   75.4783   20.3246 C.ar    1  UNL1        0.1388
     18 C           4.0000   76.0740   19.1634 C.ar    1  UNL1        0.0369
     19 C           3.7678   77.4254   18.8999 C.ar    1  UNL1        0.0033
     20 C           3.0085   78.1951   19.7835 C.ar    1  UNL1        0.0066
     21 C           2.4689   77.6177   20.9447 C.ar    1  UNL1        0.0785
     22 C           2.7067   76.2552   21.2034 C.ar    1  UNL1        0.0433
     23 C           1.6636   78.4344   21.8796 C.2     1  UNL1        0.3381
     24 O           2.1825   79.4118   22.4840 O.2     1  UNL1       -0.2451
     25 O           0.3227   78.1305   22.1009 O.3     1  UNL1       -0.4771
     26 H          -0.2377   78.6831   22.7387 H       1  UNL1        0.2954
     27 C          12.1258   80.8416   24.5946 C.2     1  UNL1        0.2839
     28 O          12.8582   79.8173   24.5397 O.2     1  UNL1       -0.2665
     29 N          10.6964   80.7136   24.5237 N.am    1  UNL1       -0.2766
     30 H          10.1151   81.5095   24.8718 H       1  UNL1        0.1553
     31 C          12.9586   82.2217   27.3650 C.3     1  UNL1        0.0345
     32 C          13.0999   82.7795   25.9807 C.ar    1  UNL1        0.0202
     33 C          12.7341   82.1737   24.7734 C.ar    1  UNL1        0.1946
     34 O          13.0155   82.9756   23.7617 O.2     1  UNL1       -0.4492
     35 C          13.5444   84.0706   24.2507 C.ar    1  UNL1        0.1452
     36 C          13.9895   85.1817   23.5430 C.ar    1  UNL1        0.0375
     37 C          14.5295   86.2555   24.2716 C.ar    1  UNL1        0.0031
     38 C          14.6162   86.2037   25.6893 C.ar    1  UNL1        0.0002
     39 C          14.1510   85.0537   26.3713 C.ar    1  UNL1        0.0028
     40 C          13.6206   84.0065   25.6162 C.ar    1  UNL1        0.0337
     41 C          15.1889   87.3443   26.4483 C.ar    1  UNL1        0.0000
     42 C          14.6717   87.6968   27.7094 C.ar    1  UNL1        0.0000
     43 C          15.2123   88.7720   28.4213 C.ar    1  UNL1        0.0000
     44 C          16.2729   89.5055   27.8852 C.ar    1  UNL1        0.0000
     45 C          16.7951   89.1656   26.6352 C.ar    1  UNL1        0.0000
     46 C          16.2579   88.0920   25.9184 C.ar    1  UNL1        0.0000
@<TRIPOS>BOND
     1    31    32    1
     2    32    33   ar
     3    33    27    1
     4    27    28    2
     5    27    29   am
     6    29     1    1
     7     1     2   ar
     8     2     3   ar
     9     3     4   ar
    10     4     7    1
    11     7     8    1
    12     8     9    1
    13     9    10    1
    14    10    15    1
    15    15    16    1
    16    16    17    1
    17    17    18   ar
    18    18    19   ar
    19    19    20   ar
    20    20    21   ar
    21    21    23    1
    22    23    24    2
    23    23    25    1
    24    21    22   ar
    25    10    11    1
    26    11    12    1
    27    11    13    1
    28     4     5   ar
    29     5     6   ar
    30    33    34   ar
    31    34    35   ar
    32    35    36   ar
    33    36    37   ar
    34    37    38   ar
    35    38    41    1
    36    41    42   ar
    37    42    43   ar
    38    43    44   ar
    39    44    45   ar
    40    45    46   ar
    41    38    39   ar
    42    39    40   ar
    43    40    32   ar
    44     6     1   ar
    45    40    35   ar
    46    13     7    1
    47    46    41   ar
    48    22    17   ar
    49    29    30    1
    50    25    26    1
    51    12    14    1
@<TRIPOS>MOLECULE
*****
 46 51 0 0 0
SMALL
GASTEIGER

@<TRIPOS>ATOM
      1 C          10.1154   79.5014   24.4607 C.ar    1  UNL1        0.0702
      2 C           9.8877   79.2723   23.0994 C.ar    1  UNL1        0.0191
      3 C           9.2054   78.1290   22.6809 C.ar    1  UNL1        0.0356
      4 C           8.7604   77.1944   23.6342 C.ar    1  UNL1        0.1319
      5 N           9.0195   77.4299   24.9516 N.ar    1  UNL1       -0.2279
      6 C           9.6785   78.5377   25.3821 C.ar    1  UNL1        0.1149
      7 N           8.0398   76.0008   23.2433 N.pl3   1  UNL1       -0.2908
      8 C           8.6874   74.9682   22.4153 C.3     1  UNL1        0.0925
      9 C           7.6737   73.9481   21.8772 C.3     1  UNL1        0.0277
     10 C           6.4296   74.6686   21.3216 C.3     1  UNL1        0.0740
     11 C           5.7547   75.5935   22.3872 C.3     1  UNL1        0.1338
     12 O           5.4712   76.8466   21.8182 O.3     1  UNL1       -0.3826
     13 C           6.6336   75.8091   23.6317 C.3     1  UNL1        0.1214
     14 H           4.6571   76.7341   21.2621 H       1  UNL1        0.2104
     15 C           5.4338   73.6357   20.7555 C.3     1  UNL1        0.2078
     16 O           5.0534   73.9618   19.4178 O.3     1  UNL1       -0.4754
     17 C           4.2847   75.0732   19.0345 C.ar    1  UNL1        0.1388
     18 C           2.8930   75.0046   18.8334 C.ar    1  UNL1        0.0369
     19 C           2.1823   76.1433   18.4486 C.ar    1  UNL1        0.0033
     20 C           2.8450   77.3584   18.2637 C.ar    1  UNL1        0.0066
     21 C           4.2323   77.4482   18.4648 C.ar    1  UNL1        0.0785
     22 C           4.9418   76.2968   18.8528 C.ar    1  UNL1        0.0433
     23 C           4.9330   78.7368   18.2693 C.2     1  UNL1        0.3381
     24 O           4.4690   79.6030   17.4792 O.2     1  UNL1       -0.2451
     25 O           6.1135   79.0052   18.9575 O.3     1  UNL1       -0.4771
     26 H           6.6011   79.8841   18.8312 H       1  UNL1        0.2954
     27 C          12.2393   80.8821   24.6272 C.2     1  UNL1        0.2839
     28 O          12.9673   79.9247   24.2506 O.2     1  UNL1       -0.2665
     29 N          10.8394   80.6728   24.8746 N.am    1  UNL1       -0.2766
     30 H          10.3354   81.3740   25.4635 H       1  UNL1        0.1553
     31 C          12.9391   82.2202   27.4545 C.3     1  UNL1        0.0345
     32 C          13.1402   82.8011   26.0872 C.ar    1  UNL1        0.0202
     33 C          12.8324   82.2136   24.8549 C.ar    1  UNL1        0.1946
     34 O          13.1554   83.0331   23.8701 O.2     1  UNL1       -0.4492
     35 C          13.6564   84.1221   24.4002 C.ar    1  UNL1        0.1452
     36 C          14.1277   85.2464   23.7315 C.ar    1  UNL1        0.0375
     37 C          14.6289   86.3104   24.5011 C.ar    1  UNL1        0.0031
     38 C          14.6516   86.2358   25.9201 C.ar    1  UNL1        0.0002
     39 C          14.1615   85.0729   26.5617 C.ar    1  UNL1        0.0028
     40 C          13.6710   84.0360   25.7665 C.ar    1  UNL1        0.0337
     41 C          15.1838   87.3662   26.7227 C.ar    1  UNL1        0.0000
     42 C          16.1152   88.2632   26.1661 C.ar    1  UNL1        0.0000
     43 C          16.6154   89.3262   26.9246 C.ar    1  UNL1        0.0000
     44 C          16.1925   89.5064   28.2433 C.ar    1  UNL1        0.0000
     45 C          15.2686   88.6235   28.8069 C.ar    1  UNL1        0.0000
     46 C          14.7658   87.5584   28.0535 C.ar    1  UNL1        0.0000
@<TRIPOS>BOND
     1    31    32    1
     2    32    33   ar
     3    33    27    1
     4    27    28    2
     5    27    29   am
     6    29     1    1
     7     1     2   ar
     8     2     3   ar
     9     3     4   ar
    10     4     7    1
    11     7     8    1
    12     8     9    1
    13     9    10    1
    14    10    15    1
    15    15    16    1
    16    16    17    1
    17    17    18   ar
    18    18    19   ar
    19    19    20   ar
    20    20    21   ar
    21    21    23    1
    22    23    24    2
    23    23    25    1
    24    21    22   ar
    25    10    11    1
    26    11    12    1
    27    11    13    1
    28     4     5   ar
    29     5     6   ar
    30    33    34   ar
    31    34    35   ar
    32    35    36   ar
    33    36    37   ar
    34    37    38   ar
    35    38    41    1
    36    41    42   ar
    37    42    43   ar
    38    43    44   ar
    39    44    45   ar
    40    45    46   ar
    41    38    39   ar
    42    39    40   ar
    43    40    32   ar
    44     6     1   ar
    45    40    35   ar
    46    13     7    1
    47    46    41   ar
    48    22    17   ar
    49    29    30    1
    50    25    26    1
    51    12    14    1
