@<TRIPOS>MOLECULE
*****
 44 48 0 0 0
SMALL
GASTEIGER

@<TRIPOS>ATOM
      1 C         -30.2059   48.0615   -6.7664 C.3     1  UNL1        0.1562
      2 C         -29.6267   46.7786   -6.1638 C.3     1  UNL1        0.0622
      3 C         -28.1080   47.0069   -6.0019 C.3     1  UNL1        0.1294
      4 O         -27.4658   46.5312   -7.1610 O.3     1  UNL1       -0.3808
      5 C         -27.9929   48.5497   -5.9319 C.3     1  UNL1        0.1264
      6 N         -29.1914   49.0832   -6.5616 N.am    1  UNL1       -0.2544
      7 C         -29.4877   50.4928   -6.6111 C.2     1  UNL1        0.3081
      8 O         -30.6844   50.8800   -6.6897 O.2     1  UNL1       -0.2522
      9 N         -28.4461   51.4730   -6.5185 N.am    1  UNL1       -0.2681
     10 H         -26.4942   46.7169   -7.0684 H       1  UNL1        0.2107
     11 H         -28.6045   52.2980   -5.8970 H       1  UNL1        0.1564
     12 C         -27.5174   46.2843   -4.7771 C.ar    1  UNL1        0.0310
     13 C         -28.3294   45.9890   -3.6576 C.ar    1  UNL1        0.0026
     14 C         -27.7918   45.3829   -2.5194 C.ar    1  UNL1        0.0295
     15 C         -26.4293   45.0967   -2.4553 C.ar    1  UNL1        0.1424
     16 F         -25.9093   44.5140   -1.3470 F       1  UNL1       -0.2041
     17 C         -25.5968   45.4405   -3.5195 C.ar    1  UNL1        0.0590
     18 C         -26.1246   46.0487   -4.6633 C.ar    1  UNL1        0.1406
     19 F         -25.2610   46.4320   -5.6362 F       1  UNL1       -0.2044
     20 C         -27.2505   51.4315   -7.3123 C.ar    1  UNL1        0.0516
     21 C         -27.2223   52.0790   -8.5562 C.ar    1  UNL1        0.0156
     22 C         -26.0653   52.0510   -9.3409 C.ar    1  UNL1        0.0127
     23 C         -24.9317   51.3637   -8.8948 C.ar    1  UNL1        0.0578
     24 CL        -23.4808   51.3290   -9.8798 Cl      1  UNL1       -0.0822
     25 C         -24.9594   50.6961   -7.6663 C.ar    1  UNL1        0.0127
     26 C         -26.1148   50.7236   -6.8802 C.ar    1  UNL1        0.0156
     27 O         -31.4790   48.5905   -8.7129 O.2     1  UNL1       -0.2729
     28 C         -30.5330   47.9104   -8.2316 C.2     1  UNL1        0.2454
     29 N         -29.8143   46.9748   -9.0549 N.am    1  UNL1       -0.2662
     30 H         -29.1371   46.3348   -8.5869 H       1  UNL1        0.1564
     31 C         -29.9333   46.8978  -10.4866 C.ar    1  UNL1        0.1623
     32 N         -30.7528   47.7511  -11.1622 N.ar    1  UNL1       -0.2205
     33 C         -30.8769   47.7187  -12.5152 C.ar    1  UNL1        0.1693
     34 C         -30.1454   46.7900  -13.2695 C.ar    1  UNL1        0.2488
     35 C         -29.2987   45.8985  -12.5964 C.ar    1  UNL1        0.1032
     36 C         -29.1868   45.9507  -11.2059 C.ar    1  UNL1        0.1776
     37 F         -28.3605   45.0840  -10.5680 F       1  UNL1       -0.2010
     38 N         -30.2743   46.7391  -14.7050 N.am    1  UNL1       -0.0841
     39 C         -30.6702   45.5669  -15.2912 C.2     1  UNL1        0.2905
     40 C         -30.8166   45.4766  -16.6767 C.2     1  UNL1        0.0758
     41 C         -30.5540   46.5926  -17.4669 C.2     1  UNL1        0.0161
     42 C         -30.1451   47.7823  -16.8681 C.2     1  UNL1        0.1156
     43 C         -30.0036   47.8430  -15.4774 C.2     1  UNL1        0.4230
     44 O         -29.6101   48.9193  -14.9494 O.2     1  UNL1       -0.2135
@<TRIPOS>BOND
     1    27    28    2
     2    28    29   am
     3    29    31    1
     4    31    32   ar
     5    32    33   ar
     6    33    34   ar
     7    34    38    1
     8    38    39    1
     9    39    40    2
    10    40    41    1
    11    41    42    2
    12    42    43    1
    13    43    44    2
    14    34    35   ar
    15    35    36   ar
    16    36    37    1
    17    28     1    1
    18     1     2    1
    19     2     3    1
    20     3     4    1
    21     3    12    1
    22    12    13   ar
    23    13    14   ar
    24    14    15   ar
    25    15    16    1
    26    15    17   ar
    27    17    18   ar
    28    18    19    1
    29     3     5    1
    30     5     6    1
    31     6     7   am
    32     7     8    2
    33     7     9   am
    34     9    20    1
    35    20    21   ar
    36    21    22   ar
    37    22    23   ar
    38    23    24    1
    39    23    25   ar
    40    25    26   ar
    41    36    31   ar
    42     6     1    1
    43    26    20   ar
    44    43    38    1
    45    18    12   ar
    46    29    30    1
    47     4    10    1
    48     9    11    1
@<TRIPOS>MOLECULE
*****
 44 48 0 0 0
SMALL
GASTEIGER

@<TRIPOS>ATOM
      1 C         -29.4336   47.7866   -8.0930 C.3     1  UNL1        0.1562
      2 C         -28.9632   46.6424   -7.1908 C.3     1  UNL1        0.0622
      3 C         -27.6108   47.0777   -6.5853 C.3     1  UNL1        0.1294
      4 O         -26.5816   46.5970   -7.4171 O.3     1  UNL1       -0.3808
      5 C         -27.6741   48.6230   -6.6659 C.3     1  UNL1        0.1264
      6 N         -28.6455   48.9443   -7.7006 N.am    1  UNL1       -0.2544
      7 C         -29.0435   50.2949   -8.0078 C.2     1  UNL1        0.3081
      8 O         -30.1798   50.5164   -8.5058 O.2     1  UNL1       -0.2522
      9 N         -28.1893   51.4060   -7.7074 N.am    1  UNL1       -0.2681
     10 H         -25.7167   46.9138   -7.0448 H       1  UNL1        0.2107
     11 H         -28.6211   52.2511   -7.2702 H       1  UNL1        0.1564
     12 C         -27.3875   46.5391   -5.1602 C.ar    1  UNL1        0.0310
     13 C         -26.5275   47.2151   -4.2640 C.ar    1  UNL1        0.0026
     14 C         -26.2751   46.7061   -2.9878 C.ar    1  UNL1        0.0295
     15 C         -26.8390   45.4944   -2.5925 C.ar    1  UNL1        0.1424
     16 F         -26.5875   44.9997   -1.3555 F       1  UNL1       -0.2041
     17 C         -27.6357   44.7760   -3.4832 C.ar    1  UNL1        0.0590
     18 C         -27.8938   45.2762   -4.7638 C.ar    1  UNL1        0.1406
     19 F         -28.6106   44.5026   -5.6164 F       1  UNL1       -0.2044
     20 C         -26.8014   51.4555   -8.0718 C.ar    1  UNL1        0.0516
     21 C         -26.3964   52.2579   -9.1486 C.ar    1  UNL1        0.0156
     22 C         -25.0484   52.3201   -9.5152 C.ar    1  UNL1        0.0127
     23 C         -24.0964   51.5697   -8.8172 C.ar    1  UNL1        0.0578
     24 CL        -22.4058   51.6481   -9.2779 Cl      1  UNL1       -0.0822
     25 C         -24.4955   50.7493   -7.7574 C.ar    1  UNL1        0.0127
     26 C         -25.8423   50.6865   -7.3890 C.ar    1  UNL1        0.0156
     27 O         -28.2707   46.7567   -9.9032 O.2     1  UNL1       -0.2729
     28 C         -29.2463   47.4764   -9.5577 C.2     1  UNL1        0.2454
     29 N         -30.1324   48.0286  -10.5475 N.am    1  UNL1       -0.2662
     30 H         -30.8384   48.7283  -10.2325 H       1  UNL1        0.1564
     31 C         -30.1400   47.6425  -11.9333 C.ar    1  UNL1        0.1623
     32 N         -29.8621   46.3597  -12.2984 N.ar    1  UNL1       -0.2205
     33 C         -29.8769   45.9553  -13.5958 C.ar    1  UNL1        0.1693
     34 C         -30.1904   46.8654  -14.6156 C.ar    1  UNL1        0.2488
     35 C         -30.4758   48.1923  -14.2652 C.ar    1  UNL1        0.1032
     36 C         -30.4550   48.5846  -12.9257 C.ar    1  UNL1        0.1776
     37 F         -30.7369   49.8714  -12.6009 F       1  UNL1       -0.2010
     38 N         -30.2012   46.4516  -15.9971 N.am    1  UNL1       -0.0841
     39 C         -30.0139   47.3959  -16.9706 C.2     1  UNL1        0.2905
     40 C         -30.0079   47.0373  -18.3199 C.2     1  UNL1        0.0758
     41 C         -30.1970   45.7042  -18.6747 C.2     1  UNL1        0.0161
     42 C         -30.3937   44.7464  -17.6821 C.2     1  UNL1        0.1156
     43 C         -30.3982   45.1351  -16.3379 C.2     1  UNL1        0.4230
     44 O         -30.6009   44.2620  -15.4499 O.2     1  UNL1       -0.2135
@<TRIPOS>BOND
     1    27    28    2
     2    28    29   am
     3    29    31    1
     4    31    32   ar
     5    32    33   ar
     6    33    34   ar
     7    34    38    1
     8    38    39    1
     9    39    40    2
    10    40    41    1
    11    41    42    2
    12    42    43    1
    13    43    44    2
    14    34    35   ar
    15    35    36   ar
    16    36    37    1
    17    28     1    1
    18     1     2    1
    19     2     3    1
    20     3     4    1
    21     3    12    1
    22    12    13   ar
    23    13    14   ar
    24    14    15   ar
    25    15    16    1
    26    15    17   ar
    27    17    18   ar
    28    18    19    1
    29     3     5    1
    30     5     6    1
    31     6     7   am
    32     7     8    2
    33     7     9   am
    34     9    20    1
    35    20    21   ar
    36    21    22   ar
    37    22    23   ar
    38    23    24    1
    39    23    25   ar
    40    25    26   ar
    41    36    31   ar
    42     6     1    1
    43    26    20   ar
    44    43    38    1
    45    18    12   ar
    46    29    30    1
    47     4    10    1
    48     9    11    1
