@<TRIPOS>MOLECULE
*****
 47 52 0 0 0
SMALL
GASTEIGER

@<TRIPOS>ATOM
      1 C         -62.7660  -40.7972  -20.7551 C.ar    1  UNL1        0.0702
      2 C         -61.7840  -41.4928  -20.0401 C.ar    1  UNL1        0.0191
      3 C         -61.0918  -42.5471  -20.6375 C.ar    1  UNL1        0.0356
      4 C         -61.3944  -42.9152  -21.9593 C.ar    1  UNL1        0.1318
      5 N         -62.3788  -42.2463  -22.6229 N.ar    1  UNL1       -0.2279
      6 C         -63.0632  -41.2144  -22.0622 C.ar    1  UNL1        0.1149
      7 N         -60.7076  -44.0040  -22.6118 N.pl3   1  UNL1       -0.2932
      8 C         -60.2233  -45.1324  -21.8034 C.3     1  UNL1        0.0923
      9 C         -59.0683  -45.8491  -22.5087 C.3     1  UNL1        0.0253
     10 C         -59.4632  -46.3634  -23.9174 C.3     1  UNL1        0.0495
     11 C         -60.5197  -45.4473  -24.6160 C.3     1  UNL1        0.0528
     12 C         -60.4971  -44.0057  -24.0688 C.3     1  UNL1        0.0947
     13 C         -60.3763  -45.4534  -26.1522 C.3     1  UNL1        0.1389
     14 O         -61.1119  -46.5030  -26.7269 O.3     1  UNL1       -0.3819
     15 H         -61.9507  -46.1120  -27.0854 H       1  UNL1        0.2104
     16 C         -59.9669  -47.8183  -23.8484 C.3     1  UNL1        0.2055
     17 O         -61.2835  -47.9054  -24.3906 O.3     1  UNL1       -0.4755
     18 C         -62.0986  -49.0444  -24.3175 C.ar    1  UNL1        0.1388
     19 C         -63.3802  -49.0929  -24.8955 C.ar    1  UNL1        0.0369
     20 C         -64.1501  -50.2533  -24.7972 C.ar    1  UNL1        0.0033
     21 C         -63.6570  -51.3714  -24.1207 C.ar    1  UNL1        0.0066
     22 C         -62.3827  -51.3389  -23.5271 C.ar    1  UNL1        0.0785
     23 C         -61.6091  -50.1688  -23.6418 C.ar    1  UNL1        0.0433
     24 C         -61.8402  -52.5181  -22.8089 C.2     1  UNL1        0.3381
     25 O         -60.5998  -52.6117  -22.6088 O.2     1  UNL1       -0.2451
     26 O         -62.6690  -53.5315  -22.3287 O.3     1  UNL1       -0.4771
     27 H         -63.6783  -53.4728  -22.3620 H       1  UNL1        0.2954
     28 C         -63.2359  -38.3341  -20.3586 C.2     1  UNL1        0.2839
     29 O         -62.1881  -37.9721  -20.9586 O.2     1  UNL1       -0.2665
     30 N         -63.4871  -39.7282  -20.1184 N.am    1  UNL1       -0.2766
     31 H         -64.1767  -39.9812  -19.3748 H       1  UNL1        0.1553
     32 C         -66.4262  -38.3833  -20.6631 C.3     1  UNL1        0.0345
     33 C         -65.5823  -37.3404  -19.9943 C.ar    1  UNL1        0.0202
     34 C         -64.1890  -37.3222  -19.8643 C.ar    1  UNL1        0.1946
     35 O         -63.8101  -36.2385  -19.2104 O.2     1  UNL1       -0.4492
     36 C         -64.8857  -35.5524  -18.9102 C.ar    1  UNL1        0.1452
     37 C         -64.9523  -34.3457  -18.2228 C.ar    1  UNL1        0.0375
     38 C         -66.2201  -33.7789  -18.0054 C.ar    1  UNL1        0.0031
     39 C         -67.3965  -34.4229  -18.4758 C.ar    1  UNL1        0.0002
     40 C         -67.2843  -35.6504  -19.1719 C.ar    1  UNL1        0.0028
     41 C         -66.0100  -36.1842  -19.3701 C.ar    1  UNL1        0.0337
     42 C         -68.7305  -33.8147  -18.2400 C.ar    1  UNL1        0.0000
     43 C         -69.8826  -34.3634  -18.8348 C.ar    1  UNL1        0.0000
     44 C         -71.1375  -33.7887  -18.6110 C.ar    1  UNL1        0.0000
     45 C         -71.2572  -32.6634  -17.7926 C.ar    1  UNL1        0.0000
     46 C         -70.1221  -32.1100  -17.1963 C.ar    1  UNL1        0.0000
     47 C         -68.8645  -32.6800  -17.4172 C.ar    1  UNL1        0.0000
@<TRIPOS>BOND
     1    32    33    1
     2    33    34   ar
     3    34    28    1
     4    28    29    2
     5    28    30   am
     6    30     1    1
     7     1     2   ar
     8     2     3   ar
     9     3     4   ar
    10     4     7    1
    11     7     8    1
    12     8     9    1
    13     9    10    1
    14    10    16    1
    15    16    17    1
    16    17    18    1
    17    18    19   ar
    18    19    20   ar
    19    20    21   ar
    20    21    22   ar
    21    22    24    1
    22    24    25    2
    23    24    26    1
    24    22    23   ar
    25    10    11    1
    26    11    13    1
    27    13    14    1
    28    11    12    1
    29     4     5   ar
    30     5     6   ar
    31    34    35   ar
    32    35    36   ar
    33    36    37   ar
    34    37    38   ar
    35    38    39   ar
    36    39    42    1
    37    42    43   ar
    38    43    44   ar
    39    44    45   ar
    40    45    46   ar
    41    46    47   ar
    42    39    40   ar
    43    40    41   ar
    44    41    33   ar
    45     6     1   ar
    46    41    36   ar
    47    12     7    1
    48    47    42   ar
    49    23    18   ar
    50    30    31    1
    51    26    27    1
    52    14    15    1
@<TRIPOS>MOLECULE
*****
 47 52 0 0 0
SMALL
GASTEIGER

@<TRIPOS>ATOM
      1 C         -66.2560  -53.5366  -23.3766 C.ar    1  UNL1        0.0702
      2 C         -67.3651  -53.1291  -22.6262 C.ar    1  UNL1        0.0191
      3 C         -68.5946  -53.7710  -22.7809 C.ar    1  UNL1        0.0356
      4 C         -68.7167  -54.8231  -23.7041 C.ar    1  UNL1        0.1318
      5 N         -67.6321  -55.1784  -24.4486 N.ar    1  UNL1       -0.2279
      6 C         -66.4245  -54.5698  -24.3122 C.ar    1  UNL1        0.1149
      7 N         -69.9715  -55.5085  -23.9002 N.pl3   1  UNL1       -0.2932
      8 C         -70.6533  -56.1007  -22.7401 C.3     1  UNL1        0.0923
      9 C         -71.5875  -57.2321  -23.1786 C.3     1  UNL1        0.0253
     10 C         -72.6479  -56.7589  -24.2064 C.3     1  UNL1        0.0495
     11 C         -72.1190  -55.6142  -25.1302 C.3     1  UNL1        0.0528
     12 C         -70.5805  -55.6120  -25.2365 C.3     1  UNL1        0.0947
     13 C         -72.7656  -55.6451  -26.5307 C.3     1  UNL1        0.1389
     14 O         -72.6837  -54.3900  -27.1559 O.3     1  UNL1       -0.3819
     15 H         -71.9353  -54.4340  -27.8062 H       1  UNL1        0.2104
     16 C         -73.9456  -56.3273  -23.4958 C.3     1  UNL1        0.2055
     17 O         -73.6356  -55.5214  -22.3603 O.3     1  UNL1       -0.4755
     18 C         -73.9469  -55.8620  -21.0359 C.ar    1  UNL1        0.1388
     19 C         -75.0847  -56.6175  -20.6990 C.ar    1  UNL1        0.0369
     20 C         -75.3469  -56.9328  -19.3645 C.ar    1  UNL1        0.0033
     21 C         -74.4862  -56.4966  -18.3547 C.ar    1  UNL1        0.0066
     22 C         -73.3496  -55.7312  -18.6702 C.ar    1  UNL1        0.0785
     23 C         -73.0869  -55.4286  -20.0193 C.ar    1  UNL1        0.0433
     24 C         -72.4213  -55.2633  -17.6119 C.2     1  UNL1        0.3381
     25 O         -72.1845  -56.0003  -16.6178 O.2     1  UNL1       -0.2451
     26 O         -71.7823  -54.0263  -17.6891 O.3     1  UNL1       -0.4771
     27 H         -71.8444  -53.4298  -18.5037 H       1  UNL1        0.2954
     28 C         -64.2731  -52.2545  -24.3089 C.2     1  UNL1        0.2839
     29 O         -64.5775  -52.5252  -25.5017 O.2     1  UNL1       -0.2665
     30 N         -65.0016  -52.8504  -23.2232 N.am    1  UNL1       -0.2766
     31 H         -64.5537  -52.8597  -22.2788 H       1  UNL1        0.1553
     32 C         -64.2581  -49.0551  -24.5006 C.3     1  UNL1        0.0345
     33 C         -63.1286  -49.9579  -24.1053 C.ar    1  UNL1        0.0202
     34 C         -63.1391  -51.3549  -24.0236 C.ar    1  UNL1        0.1946
     35 O         -61.9542  -51.7941  -23.6381 O.2     1  UNL1       -0.4492
     36 C         -61.1754  -50.7540  -23.4661 C.ar    1  UNL1        0.1452
     37 C         -59.8450  -50.7536  -23.0621 C.ar    1  UNL1        0.0375
     38 C         -59.1930  -49.5145  -22.9386 C.ar    1  UNL1        0.0031
     39 C         -59.8764  -48.3005  -23.2194 C.ar    1  UNL1        0.0002
     40 C         -61.2308  -48.3453  -23.6287 C.ar    1  UNL1        0.0028
     41 C         -61.8467  -49.5928  -23.7409 C.ar    1  UNL1        0.0337
     42 C         -59.1772  -46.9973  -23.0853 C.ar    1  UNL1        0.0000
     43 C         -59.8205  -45.7990  -23.4492 C.ar    1  UNL1        0.0000
     44 C         -59.1599  -44.5733  -23.3219 C.ar    1  UNL1        0.0000
     45 C         -57.8533  -44.5290  -22.8304 C.ar    1  UNL1        0.0000
     46 C         -57.2044  -45.7105  -22.4654 C.ar    1  UNL1        0.0000
     47 C         -57.8600  -46.9392  -22.5915 C.ar    1  UNL1        0.0000
@<TRIPOS>BOND
     1    32    33    1
     2    33    34   ar
     3    34    28    1
     4    28    29    2
     5    28    30   am
     6    30     1    1
     7     1     2   ar
     8     2     3   ar
     9     3     4   ar
    10     4     7    1
    11     7     8    1
    12     8     9    1
    13     9    10    1
    14    10    16    1
    15    16    17    1
    16    17    18    1
    17    18    19   ar
    18    19    20   ar
    19    20    21   ar
    20    21    22   ar
    21    22    24    1
    22    24    25    2
    23    24    26    1
    24    22    23   ar
    25    10    11    1
    26    11    13    1
    27    13    14    1
    28    11    12    1
    29     4     5   ar
    30     5     6   ar
    31    34    35   ar
    32    35    36   ar
    33    36    37   ar
    34    37    38   ar
    35    38    39   ar
    36    39    42    1
    37    42    43   ar
    38    43    44   ar
    39    44    45   ar
    40    45    46   ar
    41    46    47   ar
    42    39    40   ar
    43    40    41   ar
    44    41    33   ar
    45     6     1   ar
    46    41    36   ar
    47    12     7    1
    48    47    42   ar
    49    23    18   ar
    50    30    31    1
    51    26    27    1
    52    14    15    1
@<TRIPOS>MOLECULE
*****
 47 52 0 0 0
SMALL
GASTEIGER

@<TRIPOS>ATOM
      1 C         -62.8206  -40.9976  -20.8482 C.ar    1  UNL1        0.0702
      2 C         -61.5965  -41.4356  -20.3294 C.ar    1  UNL1        0.0191
      3 C         -60.9171  -42.4974  -20.9283 C.ar    1  UNL1        0.0356
      4 C         -61.4748  -43.1333  -22.0503 C.ar    1  UNL1        0.1318
      5 N         -62.6843  -42.7122  -22.5155 N.ar    1  UNL1       -0.2279
      6 C         -63.3619  -41.6784  -21.9503 C.ar    1  UNL1        0.1149
      7 N         -60.8087  -44.2394  -22.6950 N.pl3   1  UNL1       -0.2932
      8 C         -59.6935  -44.9044  -22.0055 C.3     1  UNL1        0.0923
      9 C         -58.7730  -45.6030  -23.0105 C.3     1  UNL1        0.0253
     10 C         -59.5271  -46.6421  -23.8803 C.3     1  UNL1        0.0495
     11 C         -61.0132  -46.2365  -24.1459 C.3     1  UNL1        0.0528
     12 C         -61.2359  -44.7156  -24.0208 C.3     1  UNL1        0.0947
     13 C         -61.5290  -46.7566  -25.5039 C.3     1  UNL1        0.1389
     14 O         -62.4318  -47.8188  -25.3313 O.3     1  UNL1       -0.3819
     15 H         -63.3459  -47.4482  -25.4413 H       1  UNL1        0.2104
     16 C         -59.4520  -48.0449  -23.2467 C.3     1  UNL1        0.2055
     17 O         -60.7086  -48.7076  -23.3772 O.3     1  UNL1       -0.4755
     18 C         -60.8937  -50.0917  -23.2480 C.ar    1  UNL1        0.1388
     19 C         -59.8433  -50.9649  -22.9120 C.ar    1  UNL1        0.0369
     20 C         -60.0818  -52.3352  -22.7922 C.ar    1  UNL1        0.0033
     21 C         -61.3620  -52.8497  -23.0101 C.ar    1  UNL1        0.0066
     22 C         -62.4227  -51.9945  -23.3574 C.ar    1  UNL1        0.0785
     23 C         -62.1752  -50.6132  -23.4639 C.ar    1  UNL1        0.0433
     24 C         -63.7900  -52.5219  -23.5877 C.2     1  UNL1        0.3381
     25 O         -64.4471  -52.1377  -24.5917 O.2     1  UNL1       -0.2451
     26 O         -64.3736  -53.4516  -22.7278 O.3     1  UNL1       -0.4771
     27 H         -63.8684  -53.8803  -21.9633 H       1  UNL1        0.2954
     28 C         -63.2294  -38.5279  -20.4260 C.2     1  UNL1        0.2839
     29 O         -62.1656  -38.1867  -21.0096 O.2     1  UNL1       -0.2665
     30 N         -63.5203  -39.9177  -20.2062 N.am    1  UNL1       -0.2766
     31 H         -64.2250  -40.1613  -19.4737 H       1  UNL1        0.1553
     32 C         -66.4199  -38.5083  -20.7320 C.3     1  UNL1        0.0345
     33 C         -65.5542  -37.4852  -20.0604 C.ar    1  UNL1        0.0202
     34 C         -64.1610  -37.4971  -19.9297 C.ar    1  UNL1        0.1946
     35 O         -63.7593  -36.4233  -19.2732 O.2     1  UNL1       -0.4492
     36 C         -64.8202  -35.7151  -18.9718 C.ar    1  UNL1        0.1452
     37 C         -64.8613  -34.5088  -18.2815 C.ar    1  UNL1        0.0375
     38 C         -66.1168  -33.9156  -18.0634 C.ar    1  UNL1        0.0031
     39 C         -67.3064  -34.5332  -18.5357 C.ar    1  UNL1        0.0002
     40 C         -67.2202  -35.7612  -19.2347 C.ar    1  UNL1        0.0028
     41 C         -65.9575  -36.3216  -19.4336 C.ar    1  UNL1        0.0337
     42 C         -68.6273  -33.8972  -18.2991 C.ar    1  UNL1        0.0000
     43 C         -69.7941  -34.4348  -18.8750 C.ar    1  UNL1        0.0000
     44 C         -71.0365  -33.8340  -18.6504 C.ar    1  UNL1        0.0000
     45 C         -71.1291  -32.6932  -17.8500 C.ar    1  UNL1        0.0000
     46 C         -69.9791  -32.1506  -17.2726 C.ar    1  UNL1        0.0000
     47 C         -68.7339  -32.7468  -17.4944 C.ar    1  UNL1        0.0000
@<TRIPOS>BOND
     1    32    33    1
     2    33    34   ar
     3    34    28    1
     4    28    29    2
     5    28    30   am
     6    30     1    1
     7     1     2   ar
     8     2     3   ar
     9     3     4   ar
    10     4     7    1
    11     7     8    1
    12     8     9    1
    13     9    10    1
    14    10    16    1
    15    16    17    1
    16    17    18    1
    17    18    19   ar
    18    19    20   ar
    19    20    21   ar
    20    21    22   ar
    21    22    24    1
    22    24    25    2
    23    24    26    1
    24    22    23   ar
    25    10    11    1
    26    11    13    1
    27    13    14    1
    28    11    12    1
    29     4     5   ar
    30     5     6   ar
    31    34    35   ar
    32    35    36   ar
    33    36    37   ar
    34    37    38   ar
    35    38    39   ar
    36    39    42    1
    37    42    43   ar
    38    43    44   ar
    39    44    45   ar
    40    45    46   ar
    41    46    47   ar
    42    39    40   ar
    43    40    41   ar
    44    41    33   ar
    45     6     1   ar
    46    41    36   ar
    47    12     7    1
    48    47    42   ar
    49    23    18   ar
    50    30    31    1
    51    26    27    1
    52    14    15    1
@<TRIPOS>MOLECULE
*****
 47 52 0 0 0
SMALL
GASTEIGER

@<TRIPOS>ATOM
      1 C         -62.5881  -40.6956  -20.7119 C.ar    1  UNL1        0.0702
      2 C         -62.9711  -41.1414  -21.9823 C.ar    1  UNL1        0.0191
      3 C         -62.2541  -42.1555  -22.6187 C.ar    1  UNL1        0.0356
      4 C         -61.1365  -42.7202  -21.9813 C.ar    1  UNL1        0.1318
      5 N         -60.7619  -42.2452  -20.7603 N.ar    1  UNL1       -0.2279
      6 C         -61.4471  -41.2610  -20.1205 C.ar    1  UNL1        0.1149
      7 N         -60.3633  -43.7656  -22.6074 N.pl3   1  UNL1       -0.2932
      8 C         -59.4019  -44.5283  -21.7979 C.3     1  UNL1        0.0923
      9 C         -58.3091  -45.1358  -22.6821 C.3     1  UNL1        0.0253
     10 C         -58.8869  -46.0559  -23.7887 C.3     1  UNL1        0.0495
     11 C         -60.2940  -45.5880  -24.2836 C.3     1  UNL1        0.0528
     12 C         -60.5316  -44.0848  -24.0346 C.3     1  UNL1        0.0947
     13 C         -60.5433  -45.9452  -25.7637 C.3     1  UNL1        0.1389
     14 O         -61.9162  -45.9520  -26.0603 O.3     1  UNL1       -0.3819
     15 H         -62.1215  -45.0973  -26.5212 H       1  UNL1        0.2104
     16 C         -58.9383  -47.5206  -23.3122 C.3     1  UNL1        0.2055
     17 O         -60.1914  -47.7861  -22.6841 O.3     1  UNL1       -0.4755
     18 C         -61.0295  -48.8630  -23.0077 C.ar    1  UNL1        0.1388
     19 C         -60.8308  -50.1556  -22.4896 C.ar    1  UNL1        0.0369
     20 C         -61.6970  -51.1925  -22.8409 C.ar    1  UNL1        0.0033
     21 C         -62.7626  -50.9563  -23.7124 C.ar    1  UNL1        0.0066
     22 C         -62.9716  -49.6736  -24.2494 C.ar    1  UNL1        0.0785
     23 C         -62.1004  -48.6319  -23.8799 C.ar    1  UNL1        0.0433
     24 C         -64.1008  -49.4025  -25.1724 C.2     1  UNL1        0.3381
     25 O         -63.9009  -49.3855  -26.4163 O.2     1  UNL1       -0.2451
     26 O         -65.3950  -49.1782  -24.7044 O.3     1  UNL1       -0.4771
     27 H         -65.6481  -49.2786  -23.7301 H       1  UNL1        0.2954
     28 C         -63.1305  -38.2395  -20.3680 C.2     1  UNL1        0.2839
     29 O         -62.1195  -37.8596  -21.0180 O.2     1  UNL1       -0.2665
     30 N         -63.3225  -39.6337  -20.0787 N.am    1  UNL1       -0.2766
     31 H         -63.9744  -39.8881  -19.3021 H       1  UNL1        0.1553
     32 C         -66.3167  -38.3186  -20.7069 C.3     1  UNL1        0.0345
     33 C         -65.4915  -37.2782  -20.0114 C.ar    1  UNL1        0.0202
     34 C         -64.0999  -37.2470  -19.8664 C.ar    1  UNL1        0.1946
     35 O         -63.7400  -36.1707  -19.1900 O.2     1  UNL1       -0.4492
     36 C         -64.8262  -35.5018  -18.8893 C.ar    1  UNL1        0.1452
     37 C         -64.9134  -34.3079  -18.1820 C.ar    1  UNL1        0.0375
     38 C         -66.1897  -33.7591  -17.9682 C.ar    1  UNL1        0.0031
     39 C         -67.3538  -34.4077  -18.4620 C.ar    1  UNL1        0.0002
     40 C         -67.2207  -35.6216  -19.1779 C.ar    1  UNL1        0.0028
     41 C         -65.9386  -36.1378  -19.3719 C.ar    1  UNL1        0.0337
     42 C         -68.6969  -33.8183  -18.2298 C.ar    1  UNL1        0.0000
     43 C         -68.8451  -32.6653  -17.4356 C.ar    1  UNL1        0.0000
     44 C         -70.1109  -32.1124  -17.2187 C.ar    1  UNL1        0.0000
     45 C         -71.2406  -32.7014  -17.7910 C.ar    1  UNL1        0.0000
     46 C         -71.1068  -33.8451  -18.5813 C.ar    1  UNL1        0.0000
     47 C         -69.8435  -34.4028  -18.8008 C.ar    1  UNL1        0.0000
@<TRIPOS>BOND
     1    32    33    1
     2    33    34   ar
     3    34    28    1
     4    28    29    2
     5    28    30   am
     6    30     1    1
     7     1     2   ar
     8     2     3   ar
     9     3     4   ar
    10     4     7    1
    11     7     8    1
    12     8     9    1
    13     9    10    1
    14    10    16    1
    15    16    17    1
    16    17    18    1
    17    18    19   ar
    18    19    20   ar
    19    20    21   ar
    20    21    22   ar
    21    22    24    1
    22    24    25    2
    23    24    26    1
    24    22    23   ar
    25    10    11    1
    26    11    13    1
    27    13    14    1
    28    11    12    1
    29     4     5   ar
    30     5     6   ar
    31    34    35   ar
    32    35    36   ar
    33    36    37   ar
    34    37    38   ar
    35    38    39   ar
    36    39    42    1
    37    42    43   ar
    38    43    44   ar
    39    44    45   ar
    40    45    46   ar
    41    46    47   ar
    42    39    40   ar
    43    40    41   ar
    44    41    33   ar
    45     6     1   ar
    46    41    36   ar
    47    12     7    1
    48    47    42   ar
    49    23    18   ar
    50    30    31    1
    51    26    27    1
    52    14    15    1
@<TRIPOS>MOLECULE
*****
 47 52 0 0 0
SMALL
GASTEIGER

@<TRIPOS>ATOM
      1 C         -62.4876  -41.1852  -20.1434 C.ar    1  UNL1        0.0702
      2 C         -61.0983  -41.1599  -20.3118 C.ar    1  UNL1        0.0191
      3 C         -60.4254  -42.2874  -20.7848 C.ar    1  UNL1        0.0356
      4 C         -61.1499  -43.4543  -21.0809 C.ar    1  UNL1        0.1318
      5 N         -62.4969  -43.4661  -20.8753 N.ar    1  UNL1       -0.2279
      6 C         -63.1731  -42.3790  -20.4188 C.ar    1  UNL1        0.1149
      7 N         -60.4922  -44.6441  -21.5652 N.pl3   1  UNL1       -0.2932
      8 C         -61.2941  -45.8463  -21.8355 C.3     1  UNL1        0.0923
      9 C         -60.4262  -47.1058  -21.7617 C.3     1  UNL1        0.0253
     10 C         -59.2300  -47.0585  -22.7474 C.3     1  UNL1        0.0495
     11 C         -58.6982  -45.6065  -22.9762 C.3     1  UNL1        0.0528
     12 C         -59.0394  -44.6667  -21.8020 C.3     1  UNL1        0.0947
     13 C         -57.1859  -45.5773  -23.2806 C.3     1  UNL1        0.1389
     14 O         -56.4495  -46.1949  -22.2563 O.3     1  UNL1       -0.3819
     15 H         -56.2125  -47.1052  -22.5726 H       1  UNL1        0.2104
     16 C         -59.5995  -47.7192  -24.0898 C.3     1  UNL1        0.2055
     17 O         -60.7956  -47.1386  -24.6069 O.3     1  UNL1       -0.4755
     18 C         -61.9143  -47.8702  -25.0315 C.ar    1  UNL1        0.1388
     19 C         -62.6980  -48.6317  -24.1456 C.ar    1  UNL1        0.0369
     20 C         -63.8044  -49.3390  -24.6192 C.ar    1  UNL1        0.0033
     21 C         -64.1381  -49.3008  -25.9750 C.ar    1  UNL1        0.0066
     22 C         -63.3608  -48.5542  -26.8781 C.ar    1  UNL1        0.0785
     23 C         -62.2545  -47.8346  -26.3893 C.ar    1  UNL1        0.0433
     24 C         -63.7026  -48.4975  -28.3205 C.2     1  UNL1        0.3381
     25 O         -63.7424  -49.5606  -28.9955 O.2     1  UNL1       -0.2451
     26 O         -63.9998  -47.2938  -28.9587 O.3     1  UNL1       -0.4771
     27 H         -64.0878  -46.4185  -28.4593 H       1  UNL1        0.2954
     28 C         -63.1051  -38.7248  -20.2451 C.2     1  UNL1        0.2839
     29 O         -62.2429  -38.4795  -21.1313 O.2     1  UNL1       -0.2665
     30 N         -63.1641  -40.0234  -19.6329 N.am    1  UNL1       -0.2766
     31 H         -63.6587  -40.1113  -18.7163 H       1  UNL1        0.1553
     32 C         -66.2970  -38.7128  -20.5358 C.3     1  UNL1        0.0345
     33 C         -65.4250  -37.6556  -19.9284 C.ar    1  UNL1        0.0202
     34 C         -64.0311  -37.6643  -19.8042 C.ar    1  UNL1        0.1946
     35 O         -63.6230  -36.5559  -19.2123 O.2     1  UNL1       -0.4492
     36 C         -64.6803  -35.8282  -18.9468 C.ar    1  UNL1        0.1452
     37 C         -64.7144  -34.5842  -18.3267 C.ar    1  UNL1        0.0375
     38 C         -65.9671  -33.9755  -18.1367 C.ar    1  UNL1        0.0031
     39 C         -67.1609  -34.6155  -18.5670 C.ar    1  UNL1        0.0002
     40 C         -67.0817  -35.8818  -19.1947 C.ar    1  UNL1        0.0028
     41 C         -65.8217  -36.4566  -19.3674 C.ar    1  UNL1        0.0337
     42 C         -68.4786  -33.9627  -18.3606 C.ar    1  UNL1        0.0000
     43 C         -69.6302  -34.4560  -19.0032 C.ar    1  UNL1        0.0000
     44 C         -70.8697  -33.8395  -18.8071 C.ar    1  UNL1        0.0000
     45 C         -70.9747  -32.7272  -17.9691 C.ar    1  UNL1        0.0000
     46 C         -69.8400  -32.2286  -17.3255 C.ar    1  UNL1        0.0000
     47 C         -68.5976  -32.8406  -17.5186 C.ar    1  UNL1        0.0000
@<TRIPOS>BOND
     1    32    33    1
     2    33    34   ar
     3    34    28    1
     4    28    29    2
     5    28    30   am
     6    30     1    1
     7     1     2   ar
     8     2     3   ar
     9     3     4   ar
    10     4     7    1
    11     7     8    1
    12     8     9    1
    13     9    10    1
    14    10    16    1
    15    16    17    1
    16    17    18    1
    17    18    19   ar
    18    19    20   ar
    19    20    21   ar
    20    21    22   ar
    21    22    24    1
    22    24    25    2
    23    24    26    1
    24    22    23   ar
    25    10    11    1
    26    11    13    1
    27    13    14    1
    28    11    12    1
    29     4     5   ar
    30     5     6   ar
    31    34    35   ar
    32    35    36   ar
    33    36    37   ar
    34    37    38   ar
    35    38    39   ar
    36    39    42    1
    37    42    43   ar
    38    43    44   ar
    39    44    45   ar
    40    45    46   ar
    41    46    47   ar
    42    39    40   ar
    43    40    41   ar
    44    41    33   ar
    45     6     1   ar
    46    41    36   ar
    47    12     7    1
    48    47    42   ar
    49    23    18   ar
    50    30    31    1
    51    26    27    1
    52    14    15    1
@<TRIPOS>MOLECULE
*****
 47 52 0 0 0
SMALL
GASTEIGER

@<TRIPOS>ATOM
      1 C         -64.6621  -52.1864  -25.2095 C.ar    1  UNL1        0.0702
      2 C         -64.4738  -52.2034  -23.8226 C.ar    1  UNL1        0.0191
      3 C         -65.0675  -53.1972  -23.0432 C.ar    1  UNL1        0.0356
      4 C         -65.8664  -54.1762  -23.6577 C.ar    1  UNL1        0.1318
      5 N         -66.0638  -54.1182  -25.0048 N.ar    1  UNL1       -0.2279
      6 C         -65.4929  -53.1617  -25.7836 C.ar    1  UNL1        0.1149
      7 N         -66.5043  -55.2169  -22.8879 N.pl3   1  UNL1       -0.2932
      8 C         -65.8385  -55.7245  -21.6794 C.3     1  UNL1        0.0923
      9 C         -66.3177  -57.1412  -21.3500 C.3     1  UNL1        0.0253
     10 C         -67.8544  -57.2155  -21.1549 C.3     1  UNL1        0.0495
     11 C         -68.6225  -56.1856  -22.0452 C.3     1  UNL1        0.0528
     12 C         -67.8106  -55.7657  -23.2872 C.3     1  UNL1        0.0947
     13 C         -70.0230  -56.6907  -22.4502 C.3     1  UNL1        0.1389
     14 O         -71.0166  -55.7559  -22.1156 O.3     1  UNL1       -0.3819
     15 H         -71.2563  -55.2714  -22.9480 H       1  UNL1        0.2104
     16 C         -68.2278  -57.0351  -19.6706 C.3     1  UNL1        0.2055
     17 O         -68.6482  -55.6928  -19.4325 O.3     1  UNL1       -0.4755
     18 C         -69.6522  -55.3242  -18.5252 C.ar    1  UNL1        0.1388
     19 C         -69.7055  -55.8291  -17.2133 C.ar    1  UNL1        0.0369
     20 C         -70.7246  -55.4267  -16.3482 C.ar    1  UNL1        0.0033
     21 C         -71.7008  -54.5256  -16.7795 C.ar    1  UNL1        0.0066
     22 C         -71.6709  -54.0181  -18.0905 C.ar    1  UNL1        0.0785
     23 C         -70.6328  -54.4201  -18.9515 C.ar    1  UNL1        0.0433
     24 C         -72.6960  -53.0564  -18.5649 C.2     1  UNL1        0.3381
     25 O         -73.9090  -53.3964  -18.5872 O.2     1  UNL1       -0.2451
     26 O         -72.3596  -51.7676  -18.9776 O.3     1  UNL1       -0.4771
     27 H         -71.4240  -51.3931  -18.8895 H       1  UNL1        0.2954
     28 C         -64.0607  -49.7550  -25.6234 C.2     1  UNL1        0.2839
     29 O         -64.8123  -49.3452  -24.6983 O.2     1  UNL1       -0.2665
     30 N         -64.0631  -51.1425  -25.9965 N.am    1  UNL1       -0.2766
     31 H         -63.6814  -51.3985  -26.9354 H       1  UNL1        0.1553
     32 C         -64.1736  -49.0744  -28.7535 C.3     1  UNL1        0.0345
     33 C         -63.2512  -48.5007  -27.7204 C.ar    1  UNL1        0.0202
     34 C         -63.2046  -48.8014  -26.3544 C.ar    1  UNL1        0.1946
     35 O         -62.2576  -48.0914  -25.7674 O.2     1  UNL1       -0.4492
     36 C         -61.6870  -47.3462  -26.6822 C.ar    1  UNL1        0.1452
     37 C         -60.6436  -46.4444  -26.5058 C.ar    1  UNL1        0.0375
     38 C         -60.1811  -45.7415  -27.6318 C.ar    1  UNL1        0.0031
     39 C         -60.7649  -45.9492  -28.9108 C.ar    1  UNL1        0.0002
     40 C         -61.8252  -46.8772  -29.0470 C.ar    1  UNL1        0.0028
     41 C         -62.2589  -47.5576  -27.9082 C.ar    1  UNL1        0.0337
     42 C         -60.2680  -45.2007  -30.0931 C.ar    1  UNL1        0.0000
     43 C         -61.1308  -44.3613  -30.8233 C.ar    1  UNL1        0.0000
     44 C         -60.6602  -43.6576  -31.9362 C.ar    1  UNL1        0.0000
     45 C         -59.3266  -43.7822  -32.3318 C.ar    1  UNL1        0.0000
     46 C         -58.4606  -44.6112  -31.6155 C.ar    1  UNL1        0.0000
     47 C         -58.9259  -45.3180  -30.5023 C.ar    1  UNL1        0.0000
@<TRIPOS>BOND
     1    32    33    1
     2    33    34   ar
     3    34    28    1
     4    28    29    2
     5    28    30   am
     6    30     1    1
     7     1     2   ar
     8     2     3   ar
     9     3     4   ar
    10     4     7    1
    11     7     8    1
    12     8     9    1
    13     9    10    1
    14    10    16    1
    15    16    17    1
    16    17    18    1
    17    18    19   ar
    18    19    20   ar
    19    20    21   ar
    20    21    22   ar
    21    22    24    1
    22    24    25    2
    23    24    26    1
    24    22    23   ar
    25    10    11    1
    26    11    13    1
    27    13    14    1
    28    11    12    1
    29     4     5   ar
    30     5     6   ar
    31    34    35   ar
    32    35    36   ar
    33    36    37   ar
    34    37    38   ar
    35    38    39   ar
    36    39    42    1
    37    42    43   ar
    38    43    44   ar
    39    44    45   ar
    40    45    46   ar
    41    46    47   ar
    42    39    40   ar
    43    40    41   ar
    44    41    33   ar
    45     6     1   ar
    46    41    36   ar
    47    12     7    1
    48    47    42   ar
    49    23    18   ar
    50    30    31    1
    51    26    27    1
    52    14    15    1
@<TRIPOS>MOLECULE
*****
 47 52 0 0 0
SMALL
GASTEIGER

@<TRIPOS>ATOM
      1 C         -62.5262  -40.9739  -20.1154 C.ar    1  UNL1        0.0702
      2 C         -61.1318  -41.0460  -20.0160 C.ar    1  UNL1        0.0191
      3 C         -60.4495  -42.1699  -20.4838 C.ar    1  UNL1        0.0356
      4 C         -61.1718  -43.2360  -21.0458 C.ar    1  UNL1        0.1318
      5 N         -62.5312  -43.1580  -21.0993 N.ar    1  UNL1       -0.2279
      6 C         -63.2161  -42.0721  -20.6531 C.ar    1  UNL1        0.1149
      7 N         -60.5059  -44.4194  -21.5347 N.pl3   1  UNL1       -0.2932
      8 C         -61.3128  -45.5783  -21.9434 C.3     1  UNL1        0.0923
      9 C         -60.4909  -46.8679  -21.8623 C.3     1  UNL1        0.0253
     10 C         -59.2082  -46.8075  -22.7318 C.3     1  UNL1        0.0495
     11 C         -58.6173  -45.3637  -22.8297 C.3     1  UNL1        0.0528
     12 C         -59.0387  -44.4772  -21.6402 C.3     1  UNL1        0.0947
     13 C         -57.0832  -45.3682  -22.9942 C.3     1  UNL1        0.1389
     14 O         -56.4708  -46.1807  -22.0257 O.3     1  UNL1       -0.3819
     15 H         -56.2415  -47.0402  -22.4657 H       1  UNL1        0.2104
     16 C         -59.4710  -47.3831  -24.1371 C.3     1  UNL1        0.2055
     17 O         -59.5273  -46.3272  -25.0946 O.3     1  UNL1       -0.4755
     18 C         -60.7101  -45.8340  -25.6644 C.ar    1  UNL1        0.1388
     19 C         -61.4894  -46.5910  -26.5580 C.ar    1  UNL1        0.0369
     20 C         -62.6612  -46.0542  -27.0944 C.ar    1  UNL1        0.0033
     21 C         -63.0653  -44.7615  -26.7530 C.ar    1  UNL1        0.0066
     22 C         -62.2942  -43.9851  -25.8699 C.ar    1  UNL1        0.0785
     23 C         -61.1210  -44.5392  -25.3248 C.ar    1  UNL1        0.0433
     24 C         -62.7100  -42.6122  -25.4917 C.2     1  UNL1        0.3381
     25 O         -63.4969  -41.9699  -26.2371 O.2     1  UNL1       -0.2451
     26 O         -62.2655  -42.0071  -24.3167 O.3     1  UNL1       -0.4771
     27 H         -61.7175  -42.4990  -23.6230 H       1  UNL1        0.2954
     28 C         -63.2073  -38.5317  -20.2449 C.2     1  UNL1        0.2839
     29 O         -62.3759  -38.2822  -21.1588 O.2     1  UNL1       -0.2665
     30 N         -63.2174  -39.8195  -19.6078 N.am    1  UNL1       -0.2766
     31 H         -63.6846  -39.9022  -18.6764 H       1  UNL1        0.1553
     32 C         -66.3997  -38.5630  -20.5297 C.3     1  UNL1        0.0345
     33 C         -65.5413  -37.4962  -19.9197 C.ar    1  UNL1        0.0202
     34 C         -64.1472  -37.4860  -19.7980 C.ar    1  UNL1        0.1946
     35 O         -63.7535  -36.3743  -19.2024 O.2     1  UNL1       -0.4492
     36 C         -64.8203  -35.6625  -18.9321 C.ar    1  UNL1        0.1452
     37 C         -64.8706  -34.4216  -18.3070 C.ar    1  UNL1        0.0375
     38 C         -66.1313  -33.8312  -18.1122 C.ar    1  UNL1        0.0031
     39 C         -67.3168  -34.4860  -18.5429 C.ar    1  UNL1        0.0002
     40 C         -67.2212  -35.7486  -19.1758 C.ar    1  UNL1        0.0028
     41 C         -65.9536  -36.3051  -19.3531 C.ar    1  UNL1        0.0337
     42 C         -68.6432  -33.8526  -18.3315 C.ar    1  UNL1        0.0000
     43 C         -69.7938  -34.3775  -18.9502 C.ar    1  UNL1        0.0000
     44 C         -71.0415  -33.7791  -18.7494 C.ar    1  UNL1        0.0000
     45 C         -71.1555  -32.6535  -17.9304 C.ar    1  UNL1        0.0000
     46 C         -70.0217  -32.1236  -17.3107 C.ar    1  UNL1        0.0000
     47 C         -68.7713  -32.7174  -17.5086 C.ar    1  UNL1        0.0000
@<TRIPOS>BOND
     1    32    33    1
     2    33    34   ar
     3    34    28    1
     4    28    29    2
     5    28    30   am
     6    30     1    1
     7     1     2   ar
     8     2     3   ar
     9     3     4   ar
    10     4     7    1
    11     7     8    1
    12     8     9    1
    13     9    10    1
    14    10    16    1
    15    16    17    1
    16    17    18    1
    17    18    19   ar
    18    19    20   ar
    19    20    21   ar
    20    21    22   ar
    21    22    24    1
    22    24    25    2
    23    24    26    1
    24    22    23   ar
    25    10    11    1
    26    11    13    1
    27    13    14    1
    28    11    12    1
    29     4     5   ar
    30     5     6   ar
    31    34    35   ar
    32    35    36   ar
    33    36    37   ar
    34    37    38   ar
    35    38    39   ar
    36    39    42    1
    37    42    43   ar
    38    43    44   ar
    39    44    45   ar
    40    45    46   ar
    41    46    47   ar
    42    39    40   ar
    43    40    41   ar
    44    41    33   ar
    45     6     1   ar
    46    41    36   ar
    47    12     7    1
    48    47    42   ar
    49    23    18   ar
    50    30    31    1
    51    26    27    1
    52    14    15    1
@<TRIPOS>MOLECULE
*****
 47 52 0 0 0
SMALL
GASTEIGER

@<TRIPOS>ATOM
      1 C         -64.6339  -52.1455  -25.1625 C.ar    1  UNL1        0.0702
      2 C         -64.4482  -52.1416  -23.7752 C.ar    1  UNL1        0.0191
      3 C         -65.0425  -53.1242  -22.9821 C.ar    1  UNL1        0.0356
      4 C         -65.8394  -54.1129  -23.5835 C.ar    1  UNL1        0.1318
      5 N         -66.0343  -54.0752  -24.9316 N.ar    1  UNL1       -0.2279
      6 C         -65.4628  -53.1300  -25.7236 C.ar    1  UNL1        0.1149
      7 N         -66.4779  -55.1426  -22.7993 N.pl3   1  UNL1       -0.2932
      8 C         -66.0803  -55.3242  -21.3957 C.3     1  UNL1        0.0923
      9 C         -66.3901  -56.7477  -20.9235 C.3     1  UNL1        0.0253
     10 C         -67.8899  -57.1095  -21.0796 C.3     1  UNL1        0.0495
     11 C         -68.5545  -56.3982  -22.3027 C.3     1  UNL1        0.0528
     12 C         -67.5241  -56.0007  -23.3791 C.3     1  UNL1        0.0947
     13 C         -69.6958  -57.2344  -22.9180 C.3     1  UNL1        0.1389
     14 O         -70.9344  -56.5880  -22.7726 O.3     1  UNL1       -0.3819
     15 H         -71.1493  -56.1652  -23.6444 H       1  UNL1        0.2104
     16 C         -68.6659  -56.8008  -19.7844 C.3     1  UNL1        0.2055
     17 O         -69.1092  -55.4448  -19.7922 O.3     1  UNL1       -0.4755
     18 C         -70.1575  -54.9475  -19.0044 C.ar    1  UNL1        0.1388
     19 C         -71.1294  -54.0660  -19.5115 C.ar    1  UNL1        0.0369
     20 C         -72.1551  -53.6030  -18.6855 C.ar    1  UNL1        0.0033
     21 C         -72.2212  -54.0062  -17.3498 C.ar    1  UNL1        0.0066
     22 C         -71.2529  -54.8783  -16.8213 C.ar    1  UNL1        0.0785
     23 C         -70.2296  -55.3493  -17.6649 C.ar    1  UNL1        0.0433
     24 C         -71.3094  -55.3215  -15.4068 C.2     1  UNL1        0.3381
     25 O         -72.3608  -55.8527  -14.9599 O.2     1  UNL1       -0.2451
     26 O         -70.2191  -55.1819  -14.5487 O.3     1  UNL1       -0.4771
     27 H         -69.3135  -54.8605  -14.8648 H       1  UNL1        0.2954
     28 C         -64.0604  -49.7165  -25.6269 C.2     1  UNL1        0.2839
     29 O         -64.8372  -49.2948  -24.7283 O.2     1  UNL1       -0.2665
     30 N         -64.0343  -51.1129  -25.9640 N.am    1  UNL1       -0.2766
     31 H         -63.6294  -51.3869  -26.8878 H       1  UNL1        0.1553
     32 C         -64.1762  -49.0545  -28.7609 C.3     1  UNL1        0.0345
     33 C         -63.2515  -48.4762  -27.7325 C.ar    1  UNL1        0.0202
     34 C         -63.2036  -48.7687  -26.3648 C.ar    1  UNL1        0.1946
     35 O         -62.2547  -48.0568  -25.7832 O.2     1  UNL1       -0.4492
     36 C         -61.6840  -47.3181  -26.7033 C.ar    1  UNL1        0.1452
     37 C         -60.6388  -46.4171  -26.5336 C.ar    1  UNL1        0.0375
     38 C         -60.1765  -45.7218  -27.6644 C.ar    1  UNL1        0.0031
     39 C         -60.7624  -45.9361  -28.9414 C.ar    1  UNL1        0.0002
     40 C         -61.8244  -46.8631  -29.0707 C.ar    1  UNL1        0.0028
     41 C         -62.2578  -47.5359  -27.9272 C.ar    1  UNL1        0.0337
     42 C         -60.2657  -45.1956  -30.1288 C.ar    1  UNL1        0.0000
     43 C         -58.9226  -45.3119  -30.5346 C.ar    1  UNL1        0.0000
     44 C         -58.4575  -44.6136  -31.6532 C.ar    1  UNL1        0.0000
     45 C         -59.3252  -43.7941  -32.3785 C.ar    1  UNL1        0.0000
     46 C         -60.6599  -43.6708  -31.9866 C.ar    1  UNL1        0.0000
     47 C         -61.1302  -44.3661  -30.8683 C.ar    1  UNL1        0.0000
@<TRIPOS>BOND
     1    32    33    1
     2    33    34   ar
     3    34    28    1
     4    28    29    2
     5    28    30   am
     6    30     1    1
     7     1     2   ar
     8     2     3   ar
     9     3     4   ar
    10     4     7    1
    11     7     8    1
    12     8     9    1
    13     9    10    1
    14    10    16    1
    15    16    17    1
    16    17    18    1
    17    18    19   ar
    18    19    20   ar
    19    20    21   ar
    20    21    22   ar
    21    22    24    1
    22    24    25    2
    23    24    26    1
    24    22    23   ar
    25    10    11    1
    26    11    13    1
    27    13    14    1
    28    11    12    1
    29     4     5   ar
    30     5     6   ar
    31    34    35   ar
    32    35    36   ar
    33    36    37   ar
    34    37    38   ar
    35    38    39   ar
    36    39    42    1
    37    42    43   ar
    38    43    44   ar
    39    44    45   ar
    40    45    46   ar
    41    46    47   ar
    42    39    40   ar
    43    40    41   ar
    44    41    33   ar
    45     6     1   ar
    46    41    36   ar
    47    12     7    1
    48    47    42   ar
    49    23    18   ar
    50    30    31    1
    51    26    27    1
    52    14    15    1
@<TRIPOS>MOLECULE
*****
 47 52 0 0 0
SMALL
GASTEIGER

@<TRIPOS>ATOM
      1 C         -64.3266  -51.7088  -24.8973 C.ar    1  UNL1        0.0702
      2 C         -64.0218  -51.6743  -23.5316 C.ar    1  UNL1        0.0191
      3 C         -64.6371  -52.5641  -22.6499 C.ar    1  UNL1        0.0356
      4 C         -65.5747  -53.4891  -23.1394 C.ar    1  UNL1        0.1318
      5 N         -65.8812  -53.4798  -24.4671 N.ar    1  UNL1       -0.2279
      6 C         -65.2921  -52.6250  -25.3443 C.ar    1  UNL1        0.1149
      7 N         -66.2391  -54.4215  -22.2608 N.pl3   1  UNL1       -0.2932
      8 C         -65.5065  -55.6039  -21.7849 C.3     1  UNL1        0.0923
      9 C         -66.4767  -56.7207  -21.3891 C.3     1  UNL1        0.0253
     10 C         -67.4829  -56.2711  -20.2981 C.3     1  UNL1        0.0495
     11 C         -67.8457  -54.7544  -20.4051 C.3     1  UNL1        0.0528
     12 C         -67.6285  -54.1999  -21.8276 C.3     1  UNL1        0.0947
     13 C         -69.2779  -54.4583  -19.9136 C.3     1  UNL1        0.1389
     14 O         -69.6230  -53.1146  -20.1342 O.3     1  UNL1       -0.3819
     15 H         -70.1946  -53.0875  -20.9450 H       1  UNL1        0.2104
     16 C         -66.9504  -56.6041  -18.8907 C.3     1  UNL1        0.2055
     17 O         -67.1401  -55.4896  -18.0206 O.3     1  UNL1       -0.4755
     18 C         -67.4080  -55.5907  -16.6476 C.ar    1  UNL1        0.1388
     19 C         -66.4277  -55.3494  -15.6681 C.ar    1  UNL1        0.0369
     20 C         -66.7477  -55.4601  -14.3138 C.ar    1  UNL1        0.0033
     21 C         -68.0401  -55.8160  -13.9214 C.ar    1  UNL1        0.0066
     22 C         -69.0311  -56.0718  -14.8857 C.ar    1  UNL1        0.0785
     23 C         -68.7023  -55.9459  -16.2482 C.ar    1  UNL1        0.0433
     24 C         -70.4104  -56.4461  -14.4881 C.2     1  UNL1        0.3381
     25 O         -71.2861  -56.6366  -15.3736 O.2     1  UNL1       -0.2451
     26 O         -70.7707  -56.6109  -13.1511 O.3     1  UNL1       -0.4771
     27 H         -70.0981  -56.5755  -12.3962 H       1  UNL1        0.2954
     28 C         -63.9094  -49.3495  -25.7366 C.2     1  UNL1        0.2839
     29 O         -64.8564  -48.8715  -25.0558 O.2     1  UNL1       -0.2665
     30 N         -63.7020  -50.7703  -25.7900 N.am    1  UNL1       -0.2766
     31 H         -63.1298  -51.1530  -26.5766 H       1  UNL1        0.1553
     32 C         -64.1381  -48.6704  -28.8607 C.3     1  UNL1        0.0345
     33 C         -63.1316  -48.1519  -27.8782 C.ar    1  UNL1        0.0202
     34 C         -63.0347  -48.4517  -26.5147 C.ar    1  UNL1        0.1946
     35 O         -62.0178  -47.7997  -25.9797 O.2     1  UNL1       -0.4492
     36 C         -61.4496  -47.0929  -26.9260 C.ar    1  UNL1        0.1452
     37 C         -60.3455  -46.2562  -26.8069 C.ar    1  UNL1        0.0375
     38 C         -59.8983  -45.5856  -27.9584 C.ar    1  UNL1        0.0031
     39 C         -60.5574  -45.7601  -29.2054 C.ar    1  UNL1        0.0002
     40 C         -61.6778  -46.6217  -29.2833 C.ar    1  UNL1        0.0028
     41 C         -62.0943  -47.2717  -28.1205 C.ar    1  UNL1        0.0337
     42 C         -60.0759  -45.0461  -30.4152 C.ar    1  UNL1        0.0000
     43 C         -58.7319  -45.1516  -30.8211 C.ar    1  UNL1        0.0000
     44 C         -58.2812  -44.4783  -31.9607 C.ar    1  UNL1        0.0000
     45 C         -59.1642  -43.6948  -32.7071 C.ar    1  UNL1        0.0000
     46 C         -60.4999  -43.5826  -32.3152 C.ar    1  UNL1        0.0000
     47 C         -60.9559  -44.2529  -31.1760 C.ar    1  UNL1        0.0000
@<TRIPOS>BOND
     1    32    33    1
     2    33    34   ar
     3    34    28    1
     4    28    29    2
     5    28    30   am
     6    30     1    1
     7     1     2   ar
     8     2     3   ar
     9     3     4   ar
    10     4     7    1
    11     7     8    1
    12     8     9    1
    13     9    10    1
    14    10    16    1
    15    16    17    1
    16    17    18    1
    17    18    19   ar
    18    19    20   ar
    19    20    21   ar
    20    21    22   ar
    21    22    24    1
    22    24    25    2
    23    24    26    1
    24    22    23   ar
    25    10    11    1
    26    11    13    1
    27    13    14    1
    28    11    12    1
    29     4     5   ar
    30     5     6   ar
    31    34    35   ar
    32    35    36   ar
    33    36    37   ar
    34    37    38   ar
    35    38    39   ar
    36    39    42    1
    37    42    43   ar
    38    43    44   ar
    39    44    45   ar
    40    45    46   ar
    41    46    47   ar
    42    39    40   ar
    43    40    41   ar
    44    41    33   ar
    45     6     1   ar
    46    41    36   ar
    47    12     7    1
    48    47    42   ar
    49    23    18   ar
    50    30    31    1
    51    26    27    1
    52    14    15    1
