@<TRIPOS>MOLECULE
*****
 53 60 0 0 0
SMALL
GASTEIGER

@<TRIPOS>ATOM
      1 C          59.8655   85.9217    7.7027 C.ar    1  UNL1        0.0043
      2 C          58.8324   84.9708    7.6745 C.ar    1  UNL1        0.0060
      3 C          58.9613   83.7568    8.3446 C.ar    1  UNL1        0.0691
      4 C          60.1252   83.4660    9.0649 C.ar    1  UNL1        0.2270
      5 C          61.1584   84.4150    9.1139 C.ar    1  UNL1        0.0729
      6 C          61.0377   85.6604    8.4663 C.ar    1  UNL1        0.0773
      7 N          60.2715   82.1807    9.7140 N.am    1  UNL1       -0.0905
      8 C          60.4107   81.0812    8.8976 C.2     1  UNL1        0.4229
      9 O          60.6735   81.2142    7.6698 O.2     1  UNL1       -0.2135
     10 C          60.2190   79.7965    9.3942 C.2     1  UNL1        0.1157
     11 C          59.7988   79.6207   10.7012 C.2     1  UNL1        0.0177
     12 C          59.6666   80.7239   11.5518 C.ar    1  UNL1        0.0868
     13 C          59.1638   80.5778   12.8598 C.ar    1  UNL1        0.1162
     14 I          58.4697   78.7377   13.6573 I       1  UNL1       -0.0210
     15 N          59.0773   81.6562   13.6721 N.ar    1  UNL1       -0.2392
     16 C          59.5279   82.8800   13.3085 C.ar    1  UNL1        0.0875
     17 C          59.4802   83.9197   14.2401 C.ar    1  UNL1        0.0193
     18 C          60.0694   85.1481   13.9543 C.ar    1  UNL1        0.0016
     19 C          60.7596   85.3397   12.7485 C.ar    1  UNL1        0.0018
     20 C          60.7830   84.2987   11.8018 C.ar    1  UNL1        0.0075
     21 C          60.0935   83.0839   12.0265 C.ar    1  UNL1        0.0811
     22 C          60.0306   82.0154   11.0732 C.ar    1  UNL1        0.2300
     23 C          61.4850   86.6122   12.4927 C.ar    1  UNL1        0.0192
     24 C          61.0541   87.4932   11.4839 C.ar    1  UNL1        0.0988
     25 N          61.7201   88.6544   11.2495 N.ar    1  UNL1       -0.2438
     26 C          62.8156   89.0107   11.9690 C.ar    1  UNL1        0.0813
     27 C          63.4771   90.2133   11.6934 C.ar    1  UNL1        0.0191
     28 C          64.6050   90.5771   12.4357 C.ar    1  UNL1        0.0015
     29 C          65.0736   89.7432   13.4558 C.ar    1  UNL1        0.0001
     30 C          64.4169   88.5418   13.7382 C.ar    1  UNL1        0.0015
     31 C          63.2871   88.1665   12.9970 C.ar    1  UNL1        0.0177
     32 C          62.6138   86.9649   13.2529 C.ar    1  UNL1        0.0030
     33 C          59.3270   89.5248    5.4194 C.ar    1  UNL1        0.0534
     34 C          58.4957   89.2487    6.5192 C.ar    1  UNL1        0.0045
     35 C          58.6705   88.0796    7.2651 C.ar    1  UNL1        0.0001
     36 C          59.6771   87.1651    6.9224 C.ar    1  UNL1       -0.0000
     37 C          60.5388   87.4607    5.8559 C.ar    1  UNL1        0.0001
     38 C          60.3611   88.6252    5.1052 C.ar    1  UNL1        0.0045
     39 N          59.7546   90.9206    3.3436 N.am    1  UNL1       -0.3024
     40 C          59.1290   90.7606    4.6273 C.2     1  UNL1        0.2458
     41 O          58.3906   91.6776    5.0811 O.2     1  UNL1       -0.2701
     42 H          60.1149   90.0687    2.8574 H       1  UNL1        0.1497
     43 C          62.1865   90.2943   -0.2045 C.3     1  UNL1        0.0896
     44 N          61.3582   90.9336    0.8285 N.3     1  UNL1       -0.2714
     45 C          60.0083   91.2216    0.2952 C.3     1  UNL1        0.0738
     46 C          59.1744   92.1073    1.2506 C.3     1  UNL1        0.0369
     47 C          59.8025   92.2162    2.6519 C.3     1  UNL1        0.0746
     48 C          61.2587   92.7237    2.5451 C.3     1  UNL1        0.0369
     49 C          62.0003   92.1693    1.3119 C.3     1  UNL1        0.0738
     50 C          62.1938   86.6405    8.5621 C.3     1  UNL1        0.4188
     51 F          62.7693   86.6003    9.8208 F       1  UNL1       -0.1659
     52 F          61.7779   87.9400    8.3410 F       1  UNL1       -0.1659
     53 F          63.1561   86.3063    7.6283 F       1  UNL1       -0.1659
@<TRIPOS>BOND
     1    43    44    1
     2    44    45    1
     3    45    46    1
     4    46    47    1
     5    47    39    1
     6    39    40   am
     7    40    41    2
     8    40    33    1
     9    33    34   ar
    10    34    35   ar
    11    35    36   ar
    12    36     1    1
    13     1     2   ar
    14     2     3   ar
    15     3     4   ar
    16     4     7    1
    17     7     8    1
    18     8     9    2
    19     8    10    1
    20    10    11    2
    21    11    12    1
    22    12    13   ar
    23    13    14    1
    24    13    15   ar
    25    15    16   ar
    26    16    17   ar
    27    17    18   ar
    28    18    19   ar
    29    19    23    1
    30    23    24   ar
    31    24    25   ar
    32    25    26   ar
    33    26    27   ar
    34    27    28   ar
    35    28    29   ar
    36    29    30   ar
    37    30    31   ar
    38    31    32   ar
    39    19    20   ar
    40    20    21   ar
    41    21    22   ar
    42     4     5   ar
    43     5     6   ar
    44     6    50    1
    45    50    51    1
    46    50    52    1
    47    50    53    1
    48    36    37   ar
    49    37    38   ar
    50    47    48    1
    51    48    49    1
    52    49    44    1
    53    38    33   ar
    54     6     1   ar
    55    22     7    1
    56    22    12   ar
    57    21    16   ar
    58    32    23   ar
    59    31    26   ar
    60    39    42    1
@<TRIPOS>MOLECULE
*****
 53 60 0 0 0
SMALL
GASTEIGER

@<TRIPOS>ATOM
      1 C          60.8598   86.3429    8.2466 C.ar    1  UNL1        0.0043
      2 C          61.6307   85.3159    7.6780 C.ar    1  UNL1        0.0060
      3 C          62.1488   84.2919    8.4669 C.ar    1  UNL1        0.0691
      4 C          61.9035   84.2664    9.8443 C.ar    1  UNL1        0.2270
      5 C          61.1209   85.2785   10.4220 C.ar    1  UNL1        0.0729
      6 C          60.5641   86.3085    9.6383 C.ar    1  UNL1        0.0773
      7 N          62.4899   83.2276   10.6640 N.am    1  UNL1       -0.0905
      8 C          62.6087   81.9784   10.0981 C.2     1  UNL1        0.4229
      9 O          62.4730   81.8146    8.8535 O.2     1  UNL1       -0.2135
     10 C          62.8347   80.8569   10.8887 C.2     1  UNL1        0.1157
     11 C          62.8548   80.9808   12.2672 C.2     1  UNL1        0.0177
     12 C          62.7515   82.2435   12.8613 C.ar    1  UNL1        0.0868
     13 C          62.6885   82.3854   14.2617 C.ar    1  UNL1        0.1162
     14 I          62.6447   80.7487   15.6118 I       1  UNL1       -0.0210
     15 N          62.6221   83.6201   14.8108 N.ar    1  UNL1       -0.2392
     16 C          62.6891   84.7513   14.0700 C.ar    1  UNL1        0.0875
     17 C          62.7013   85.9854   14.7242 C.ar    1  UNL1        0.0193
     18 C          62.9195   87.1592   14.0084 C.ar    1  UNL1        0.0016
     19 C          63.1781   87.1114   12.6307 C.ar    1  UNL1        0.0018
     20 C          63.1389   85.8690   11.9708 C.ar    1  UNL1        0.0075
     21 C          62.8066   84.6794   12.6607 C.ar    1  UNL1        0.0811
     22 C          62.6906   83.3980   12.0290 C.ar    1  UNL1        0.2300
     23 C          63.5232   88.3526   11.8883 C.ar    1  UNL1        0.0192
     24 C          62.8120   88.7171   10.7303 C.ar    1  UNL1        0.0988
     25 N          63.1308   89.8502   10.0512 N.ar    1  UNL1       -0.2438
     26 C          64.1360   90.6696   10.4551 C.ar    1  UNL1        0.0813
     27 C          64.4370   91.8256    9.7252 C.ar    1  UNL1        0.0191
     28 C          65.4728   92.6669   10.1435 C.ar    1  UNL1        0.0015
     29 C          66.2086   92.3578   11.2918 C.ar    1  UNL1        0.0001
     30 C          65.9123   91.2063   12.0270 C.ar    1  UNL1        0.0015
     31 C          64.8778   90.3545   11.6137 C.ar    1  UNL1        0.0177
     32 C          64.5640   89.1900   12.3265 C.ar    1  UNL1        0.0030
     33 C          59.5123   89.4895    5.6451 C.ar    1  UNL1        0.0534
     34 C          58.6421   88.4476    6.0110 C.ar    1  UNL1        0.0045
     35 C          59.0766   87.4250    6.8591 C.ar    1  UNL1        0.0001
     36 C          60.3892   87.4248    7.3531 C.ar    1  UNL1       -0.0000
     37 C          61.2446   88.4880    7.0289 C.ar    1  UNL1        0.0001
     38 C          60.8143   89.5070    6.1760 C.ar    1  UNL1        0.0045
     39 N          59.6671   90.7647    3.4565 N.am    1  UNL1       -0.3024
     40 C          59.0480   90.5641    4.7375 C.2     1  UNL1        0.2458
     41 O          58.0879   91.3030    5.0900 O.2     1  UNL1       -0.2701
     42 H          60.2466   89.9914    3.0586 H       1  UNL1        0.1497
     43 C          62.8689   90.9059    0.5197 C.3     1  UNL1        0.0896
     44 N          61.6721   91.2495    1.3018 N.3     1  UNL1       -0.2714
     45 C          60.4522   91.0221    0.4959 C.3     1  UNL1        0.0738
     46 C          59.1839   91.5912    1.1741 C.3     1  UNL1        0.0369
     47 C          59.4220   91.9670    2.6479 C.3     1  UNL1        0.0746
     48 C          60.6081   92.9517    2.7617 C.3     1  UNL1        0.0369
     49 C          61.7396   92.6495    1.7585 C.3     1  UNL1        0.0738
     50 C          59.7260   87.3702   10.3289 C.3     1  UNL1        0.4188
     51 F          58.3753   87.1231   10.1506 F       1  UNL1       -0.1659
     52 F          59.9843   88.6301    9.8226 F       1  UNL1       -0.1659
     53 F          59.9994   87.3600   11.6835 F       1  UNL1       -0.1659
@<TRIPOS>BOND
     1    43    44    1
     2    44    45    1
     3    45    46    1
     4    46    47    1
     5    47    39    1
     6    39    40   am
     7    40    41    2
     8    40    33    1
     9    33    34   ar
    10    34    35   ar
    11    35    36   ar
    12    36     1    1
    13     1     2   ar
    14     2     3   ar
    15     3     4   ar
    16     4     7    1
    17     7     8    1
    18     8     9    2
    19     8    10    1
    20    10    11    2
    21    11    12    1
    22    12    13   ar
    23    13    14    1
    24    13    15   ar
    25    15    16   ar
    26    16    17   ar
    27    17    18   ar
    28    18    19   ar
    29    19    23    1
    30    23    24   ar
    31    24    25   ar
    32    25    26   ar
    33    26    27   ar
    34    27    28   ar
    35    28    29   ar
    36    29    30   ar
    37    30    31   ar
    38    31    32   ar
    39    19    20   ar
    40    20    21   ar
    41    21    22   ar
    42     4     5   ar
    43     5     6   ar
    44     6    50    1
    45    50    51    1
    46    50    52    1
    47    50    53    1
    48    36    37   ar
    49    37    38   ar
    50    47    48    1
    51    48    49    1
    52    49    44    1
    53    38    33   ar
    54     6     1   ar
    55    22     7    1
    56    22    12   ar
    57    21    16   ar
    58    32    23   ar
    59    31    26   ar
    60    39    42    1
