@<TRIPOS>MOLECULE
*****
 55 62 0 0 0
SMALL
GASTEIGER

@<TRIPOS>ATOM
      1 C          62.8763   84.7135   15.4898 C.ar    1  UNL1        0.0481
      2 C          62.2899   83.4735   15.2021 C.ar    1  UNL1        0.0176
      3 C          62.8211   82.6586   14.1967 C.ar    1  UNL1        0.0382
      4 C          63.9333   83.0761   13.4546 C.ar    1  UNL1        0.1388
      5 C          64.5344   84.3118   13.7613 C.ar    1  UNL1        0.0382
      6 C          64.0004   85.1260   14.7592 C.ar    1  UNL1        0.0176
      7 N          62.3382   88.2196   16.1999 N.pl3   1  UNL1       -0.3041
      8 C          61.1491   87.5673   15.6229 C.3     1  UNL1        0.1122
      9 C          60.9649   86.1570   16.2009 C.3     1  UNL1        0.1122
     10 N          62.2864   85.5826   16.4724 N.pl3   1  UNL1       -0.3041
     11 C          63.1310   86.2590   17.4722 C.3     1  UNL1        0.1122
     12 C          62.8294   87.7680   17.5112 C.3     1  UNL1        0.1122
     13 C          64.7247   90.8783   13.8765 C.ar    1  UNL1        0.0699
     14 C          64.3597   91.2141   15.1900 C.ar    1  UNL1        0.0190
     15 C          63.5414   90.3648   15.9385 C.ar    1  UNL1        0.0160
     16 C          63.0934   89.1483   15.3975 C.ar    1  UNL1        0.0480
     17 C          63.4538   88.8140   14.0833 C.ar    1  UNL1        0.0160
     18 C          64.2487   89.6768   13.3251 C.ar    1  UNL1        0.0190
     19 N          66.5727   92.9054   11.5016 N.ar    1  UNL1       -0.2024
     20 N          67.2979   93.0966   12.5947 N.ar    1  UNL1       -0.1442
     21 C          66.6968   92.3926   13.5783 C.ar    1  UNL1        0.2073
     22 N          65.6012   91.7405   13.1266 N.ar    1  UNL1       -0.2398
     23 C          65.5583   92.0829   11.8241 C.ar    1  UNL1        0.3522
     24 O          64.6727   91.7002   11.0125 O.2     1  UNL1       -0.2444
     25 C          66.8897   93.4419   10.1723 C.3     1  UNL1        0.1099
     26 C          66.4078   94.8922   10.0320 C.3     1  UNL1        0.0265
     27 C          68.6893   92.2681    8.7353 C.3     1  UNL1        0.0021
     28 C          68.3903   93.2735    9.8506 C.3     1  UNL1        0.0245
     29 O          64.3995   82.2425   12.4238 O.3     1  UNL1       -0.4727
     30 C          63.9323   82.2565   11.0725 C.3     1  UNL1        0.2374
     31 C          62.4853   82.7690   10.9995 C.3     1  UNL1        0.1909
     32 C          61.7147   82.1751    9.8524 C.3     1  UNL1        0.1783
     33 O          60.9391   83.2063    9.3228 O.3     1  UNL1       -0.3266
     34 C          61.2833   84.3816   10.0301 C.3     1  UNL1        0.2315
     35 O          62.4506   84.1430   10.7882 O.3     1  UNL1       -0.3254
     36 C          60.1475   84.8041   10.9719 C.ar    1  UNL1        0.0410
     37 C          58.8733   84.2166   10.7953 C.ar    1  UNL1        0.0022
     38 C          57.8134   84.5214   11.6495 C.ar    1  UNL1        0.0113
     39 C          57.9998   85.4090   12.7066 C.ar    1  UNL1        0.0585
     40 CL         56.6678   85.7809   13.7855 Cl      1  UNL1       -0.0822
     41 C          59.2500   85.9917   12.9129 C.ar    1  UNL1        0.0226
     42 C          60.3262   85.6976   12.0654 C.ar    1  UNL1        0.0591
     43 CL         61.8593   86.4738   12.4519 Cl      1  UNL1       -0.0824
     44 C          61.6071   85.5206    9.0290 C.3     1  UNL1        0.1914
     45 N          60.4019   86.1942    8.5318 N.ar    1  UNL1       -0.2079
     46 N          59.6641   85.7035    7.5496 N.ar    1  UNL1       -0.0427
     47 N          58.7598   86.6001    7.1920 N.ar    1  UNL1       -0.0227
     48 N          58.9064   87.6990    7.9153 N.ar    1  UNL1       -0.1081
     49 C          59.9344   87.4483    8.7505 C.ar    1  UNL1        0.1840
     50 C          60.4657   88.4725    9.6830 C.ar    1  UNL1        0.0374
     51 C          59.7648   88.8721   10.8323 C.ar    1  UNL1        0.0031
     52 C          60.2718   89.8756   11.6631 C.ar    1  UNL1        0.0001
     53 C          61.4688   90.5158   11.3372 C.ar    1  UNL1        0.0000
     54 C          62.1539   90.1588   10.1746 C.ar    1  UNL1        0.0001
     55 C          61.6563   89.1439    9.3531 C.ar    1  UNL1        0.0031
@<TRIPOS>BOND
     1    27    28    1
     2    28    25    1
     3    25    26    1
     4    25    19    1
     5    19    20   ar
     6    20    21   ar
     7    21    22   ar
     8    22    13    1
     9    13    14   ar
    10    14    15   ar
    11    15    16   ar
    12    16     7    1
    13     7     8    1
    14     8     9    1
    15     9    10    1
    16    10     1    1
    17     1     2   ar
    18     2     3   ar
    19     3     4   ar
    20     4    29    1
    21    29    30    1
    22    30    31    1
    23    31    32    1
    24    32    33    1
    25    33    34    1
    26    34    44    1
    27    44    45    1
    28    45    46   ar
    29    46    47   ar
    30    47    48   ar
    31    48    49   ar
    32    49    50    1
    33    50    51   ar
    34    51    52   ar
    35    52    53   ar
    36    53    54   ar
    37    54    55   ar
    38    34    36    1
    39    36    37   ar
    40    37    38   ar
    41    38    39   ar
    42    39    40    1
    43    39    41   ar
    44    41    42   ar
    45    42    43    1
    46    34    35    1
    47     4     5   ar
    48     5     6   ar
    49    10    11    1
    50    11    12    1
    51    16    17   ar
    52    17    18   ar
    53    22    23   ar
    54    23    24    2
    55    23    19   ar
    56    18    13   ar
    57    12     7    1
    58     6     1   ar
    59    35    31    1
    60    49    45   ar
    61    55    50   ar
    62    42    36   ar
@<TRIPOS>MOLECULE
*****
 55 62 0 0 0
SMALL
GASTEIGER

@<TRIPOS>ATOM
      1 C          58.1615   82.4919   10.1289 C.ar    1  UNL1        0.0481
      2 C          58.3208   81.0995   10.1387 C.ar    1  UNL1        0.0176
      3 C          58.4759   80.4161   11.3494 C.ar    1  UNL1        0.0382
      4 C          58.4902   81.1131   12.5643 C.ar    1  UNL1        0.1388
      5 C          58.3067   82.5090   12.5531 C.ar    1  UNL1        0.0382
      6 C          58.1586   83.1900   11.3455 C.ar    1  UNL1        0.0176
      7 N          59.5331   85.3676    8.4156 N.pl3   1  UNL1       -0.3041
      8 C          60.1650   84.1028    7.9992 C.3     1  UNL1        0.1122
      9 C          59.1201   82.9848    7.8748 C.3     1  UNL1        0.1122
     10 N          58.0757   83.2018    8.8809 N.pl3   1  UNL1       -0.3041
     11 C          57.2769   84.4354    8.7785 C.3     1  UNL1        0.1122
     12 C          58.1014   85.5693    8.1428 C.3     1  UNL1        0.1122
     13 C          61.6343   88.2406   10.7592 C.ar    1  UNL1        0.0699
     14 C          62.1580   87.8042    9.5318 C.ar    1  UNL1        0.0190
     15 C          61.4934   86.8306    8.7825 C.ar    1  UNL1        0.0160
     16 C          60.2764   86.2928    9.2330 C.ar    1  UNL1        0.0480
     17 C          59.7546   86.7248   10.4617 C.ar    1  UNL1        0.0160
     18 C          60.4339   87.6778   11.2244 C.ar    1  UNL1        0.0190
     19 N          63.6349   90.3745   12.9060 N.ar    1  UNL1       -0.2024
     20 N          62.8740   91.2812   12.3094 N.ar    1  UNL1       -0.1442
     21 C          62.0755   90.6055   11.4550 C.ar    1  UNL1        0.2073
     22 N          62.3053   89.2736   11.5056 N.ar    1  UNL1       -0.2398
     23 C          63.2840   89.1679   12.4257 C.ar    1  UNL1        0.3522
     24 O          63.8187   88.0827   12.7802 O.2     1  UNL1       -0.2444
     25 C          64.6193   90.6568   13.9580 C.3     1  UNL1        0.1099
     26 C          65.5055   91.8513   13.5799 C.3     1  UNL1        0.0265
     27 C          64.5675   91.8931   16.2275 C.3     1  UNL1        0.0021
     28 C          63.9304   90.8297   15.3289 C.3     1  UNL1        0.0245
     29 O          58.6967   80.3861   13.7491 O.3     1  UNL1       -0.4727
     30 C          59.9499   79.8545   14.1865 C.3     1  UNL1        0.2374
     31 C          61.1187   80.5534   13.4743 C.3     1  UNL1        0.1909
     32 C          62.4457   79.9059   13.7609 C.3     1  UNL1        0.1783
     33 O          63.3653   80.9432   13.9157 O.3     1  UNL1       -0.3266
     34 C          62.6361   82.1520   13.8312 C.3     1  UNL1        0.2315
     35 O          61.2548   81.8681   13.9068 O.3     1  UNL1       -0.3254
     36 C          62.9310   82.8762   12.5106 C.ar    1  UNL1        0.0410
     37 C          64.0224   82.4319   11.7288 C.ar    1  UNL1        0.0022
     38 C          64.3117   83.0158   10.4953 C.ar    1  UNL1        0.0113
     39 C          63.5147   84.0478   10.0057 C.ar    1  UNL1        0.0585
     40 CL         63.8747   84.7719    8.4493 Cl      1  UNL1       -0.0822
     41 C          62.4230   84.4958   10.7493 C.ar    1  UNL1        0.0226
     42 C          62.1170   83.9214   11.9899 C.ar    1  UNL1        0.0591
     43 CL         60.6953   84.5548   12.8143 Cl      1  UNL1       -0.0824
     44 C          62.9874   83.0620   15.0366 C.3     1  UNL1        0.1914
     45 N          64.0934   83.9816   14.7457 N.ar    1  UNL1       -0.2079
     46 N          65.3213   83.5620   14.4888 N.ar    1  UNL1       -0.0427
     47 N          66.1387   84.6011   14.4473 N.ar    1  UNL1       -0.0227
     48 N          65.4656   85.7124   14.7004 N.ar    1  UNL1       -0.1081
     49 C          64.1881   85.3267   14.8907 C.ar    1  UNL1        0.1840
     50 C          63.1209   86.2821   15.2770 C.ar    1  UNL1        0.0374
     51 C          61.9605   86.4578   14.5062 C.ar    1  UNL1        0.0031
     52 C          60.9976   87.4026   14.8733 C.ar    1  UNL1        0.0001
     53 C          61.1988   88.2070   15.9964 C.ar    1  UNL1        0.0000
     54 C          62.3680   88.0731   16.7470 C.ar    1  UNL1        0.0001
     55 C          63.3227   87.1170   16.3902 C.ar    1  UNL1        0.0031
@<TRIPOS>BOND
     1    27    28    1
     2    28    25    1
     3    25    26    1
     4    25    19    1
     5    19    20   ar
     6    20    21   ar
     7    21    22   ar
     8    22    13    1
     9    13    14   ar
    10    14    15   ar
    11    15    16   ar
    12    16     7    1
    13     7     8    1
    14     8     9    1
    15     9    10    1
    16    10     1    1
    17     1     2   ar
    18     2     3   ar
    19     3     4   ar
    20     4    29    1
    21    29    30    1
    22    30    31    1
    23    31    32    1
    24    32    33    1
    25    33    34    1
    26    34    44    1
    27    44    45    1
    28    45    46   ar
    29    46    47   ar
    30    47    48   ar
    31    48    49   ar
    32    49    50    1
    33    50    51   ar
    34    51    52   ar
    35    52    53   ar
    36    53    54   ar
    37    54    55   ar
    38    34    36    1
    39    36    37   ar
    40    37    38   ar
    41    38    39   ar
    42    39    40    1
    43    39    41   ar
    44    41    42   ar
    45    42    43    1
    46    34    35    1
    47     4     5   ar
    48     5     6   ar
    49    10    11    1
    50    11    12    1
    51    16    17   ar
    52    17    18   ar
    53    22    23   ar
    54    23    24    2
    55    23    19   ar
    56    18    13   ar
    57    12     7    1
    58     6     1   ar
    59    35    31    1
    60    49    45   ar
    61    55    50   ar
    62    42    36   ar
@<TRIPOS>MOLECULE
*****
 55 62 0 0 0
SMALL
GASTEIGER

@<TRIPOS>ATOM
      1 C          62.4828   90.1210   12.9852 C.ar    1  UNL1        0.0481
      2 C          63.2008   90.6081   11.8845 C.ar    1  UNL1        0.0176
      3 C          62.6457   90.5557   10.6015 C.ar    1  UNL1        0.0382
      4 C          61.3752   90.0027   10.3969 C.ar    1  UNL1        0.1388
      5 C          60.6467   89.5353   11.5074 C.ar    1  UNL1        0.0382
      6 C          61.2033   89.5822   12.7849 C.ar    1  UNL1        0.0176
      7 N          63.8697   87.8475   15.4335 N.pl3   1  UNL1       -0.3041
      8 C          64.9068   88.5233   14.6334 C.3     1  UNL1        0.1122
      9 C          64.5410   89.9954   14.3961 C.3     1  UNL1        0.1122
     10 N          63.0827   90.1079   14.2924 N.pl3   1  UNL1       -0.3041
     11 C          62.2851   89.7392   15.4749 C.3     1  UNL1        0.1122
     12 C          63.0033   88.6585   16.3031 C.3     1  UNL1        0.1122
     13 C          62.9916   83.7538   14.6378 C.ar    1  UNL1        0.0699
     14 C          62.2287   84.4767   15.5687 C.ar    1  UNL1        0.0190
     15 C          62.5416   85.8057   15.8637 C.ar    1  UNL1        0.0160
     16 C          63.6081   86.4476   15.2128 C.ar    1  UNL1        0.0480
     17 C          64.3741   85.7246   14.2858 C.ar    1  UNL1        0.0160
     18 C          64.0786   84.3871   14.0121 C.ar    1  UNL1        0.0190
     19 N          61.5690   80.5815   13.6000 N.ar    1  UNL1       -0.2024
     20 N          62.7101   80.1689   14.1337 N.ar    1  UNL1       -0.1442
     21 C          63.3561   81.2776   14.5551 C.ar    1  UNL1        0.2073
     22 N          62.6372   82.3968   14.3104 N.ar    1  UNL1       -0.2398
     23 C          61.5257   81.9210   13.7157 C.ar    1  UNL1        0.3522
     24 O          60.5736   82.6362   13.3018 O.2     1  UNL1       -0.2444
     25 C          60.5223   79.7048   13.0604 C.3     1  UNL1        0.1099
     26 C          59.2043   79.8806   13.8267 C.3     1  UNL1        0.0265
     27 C          61.5197   79.3482   10.7026 C.3     1  UNL1        0.0021
     28 C          60.3634   79.9044   11.5377 C.3     1  UNL1        0.0245
     29 O          60.8821   89.9299    9.0830 O.3     1  UNL1       -0.4727
     30 C          59.7782   89.1275    8.6561 C.3     1  UNL1        0.2374
     31 C          60.1860   87.6497    8.5480 C.3     1  UNL1        0.1909
     32 C          59.8070   87.0366    7.2279 C.3     1  UNL1        0.1783
     33 O          59.3533   85.7476    7.5076 O.3     1  UNL1       -0.3266
     34 C          59.3559   85.6098    8.9151 C.3     1  UNL1        0.2315
     35 O          59.5363   86.8795    9.5064 O.3     1  UNL1       -0.3254
     36 C          60.4859   84.6761    9.3699 C.ar    1  UNL1        0.0410
     37 C          61.2815   85.0692   10.4710 C.ar    1  UNL1        0.0022
     38 C          62.2913   84.2424   10.9636 C.ar    1  UNL1        0.0113
     39 C          62.5253   82.9998   10.3794 C.ar    1  UNL1        0.0585
     40 CL         63.7881   81.9580   11.0087 Cl      1  UNL1       -0.0822
     41 C          61.7459   82.5805    9.3014 C.ar    1  UNL1        0.0226
     42 C          60.7273   83.3973    8.7932 C.ar    1  UNL1        0.0591
     43 CL         59.7952   82.7394    7.4514 Cl      1  UNL1       -0.0824
     44 C          57.9832   85.0688    9.3920 C.3     1  UNL1        0.1914
     45 N          58.1116   84.0519   10.4422 N.ar    1  UNL1       -0.2079
     46 N          57.9547   82.7596   10.2071 N.ar    1  UNL1       -0.0427
     47 N          57.9439   82.1043   11.3560 N.ar    1  UNL1       -0.0227
     48 N          58.0683   82.9572   12.3607 N.ar    1  UNL1       -0.1081
     49 C          58.1694   84.1750   11.7916 C.ar    1  UNL1        0.1840
     50 C          58.2481   85.4205   12.5936 C.ar    1  UNL1        0.0374
     51 C          57.2084   86.3641   12.6124 C.ar    1  UNL1        0.0031
     52 C          57.3363   87.5507   13.3405 C.ar    1  UNL1        0.0001
     53 C          58.5181   87.8242   14.0314 C.ar    1  UNL1        0.0000
     54 C          59.5763   86.9149   13.9859 C.ar    1  UNL1        0.0001
     55 C          59.4424   85.7209   13.2723 C.ar    1  UNL1        0.0031
@<TRIPOS>BOND
     1    27    28    1
     2    28    25    1
     3    25    26    1
     4    25    19    1
     5    19    20   ar
     6    20    21   ar
     7    21    22   ar
     8    22    13    1
     9    13    14   ar
    10    14    15   ar
    11    15    16   ar
    12    16     7    1
    13     7     8    1
    14     8     9    1
    15     9    10    1
    16    10     1    1
    17     1     2   ar
    18     2     3   ar
    19     3     4   ar
    20     4    29    1
    21    29    30    1
    22    30    31    1
    23    31    32    1
    24    32    33    1
    25    33    34    1
    26    34    44    1
    27    44    45    1
    28    45    46   ar
    29    46    47   ar
    30    47    48   ar
    31    48    49   ar
    32    49    50    1
    33    50    51   ar
    34    51    52   ar
    35    52    53   ar
    36    53    54   ar
    37    54    55   ar
    38    34    36    1
    39    36    37   ar
    40    37    38   ar
    41    38    39   ar
    42    39    40    1
    43    39    41   ar
    44    41    42   ar
    45    42    43    1
    46    34    35    1
    47     4     5   ar
    48     5     6   ar
    49    10    11    1
    50    11    12    1
    51    16    17   ar
    52    17    18   ar
    53    22    23   ar
    54    23    24    2
    55    23    19   ar
    56    18    13   ar
    57    12     7    1
    58     6     1   ar
    59    35    31    1
    60    49    45   ar
    61    55    50   ar
    62    42    36   ar
@<TRIPOS>MOLECULE
*****
 55 62 0 0 0
SMALL
GASTEIGER

@<TRIPOS>ATOM
      1 C          62.8987   84.7470   15.4115 C.ar    1  UNL1        0.0481
      2 C          62.3546   83.4645   15.2588 C.ar    1  UNL1        0.0176
      3 C          62.8506   82.6005   14.2767 C.ar    1  UNL1        0.0382
      4 C          63.8839   83.0093   13.4240 C.ar    1  UNL1        0.1388
      5 C          64.4443   84.2897   13.5948 C.ar    1  UNL1        0.0382
      6 C          63.9450   85.1523   14.5697 C.ar    1  UNL1        0.0176
      7 N          62.1547   88.2576   15.8686 N.pl3   1  UNL1       -0.3041
      8 C          60.9709   87.4718   15.4770 C.3     1  UNL1        0.1122
      9 C          60.9568   86.1125   16.1907 C.3     1  UNL1        0.1122
     10 N          62.3400   85.6608   16.3716 N.pl3   1  UNL1       -0.3041
     11 C          63.2213   86.4860   17.2158 C.3     1  UNL1        0.1122
     12 C          62.8057   87.9670   17.1557 C.3     1  UNL1        0.1122
     13 C          63.9934   90.7747   12.9625 C.ar    1  UNL1        0.0699
     14 C          64.6332   90.5149   14.1849 C.ar    1  UNL1        0.0190
     15 C          64.0136   89.7259   15.1569 C.ar    1  UNL1        0.0160
     16 C          62.7519   89.1578   14.9147 C.ar    1  UNL1        0.0480
     17 C          62.1096   89.4206   13.6953 C.ar    1  UNL1        0.0160
     18 C          62.7171   90.2329   12.7350 C.ar    1  UNL1        0.0190
     19 N          66.1383   92.7635   10.8157 N.ar    1  UNL1       -0.2024
     20 N          65.0463   92.6966   10.0672 N.ar    1  UNL1       -0.1442
     21 C          64.1548   91.9551   10.7598 C.ar    1  UNL1        0.2073
     22 N          64.6567   91.5560   11.9506 N.ar    1  UNL1       -0.2398
     23 C          65.8968   92.0832   11.9508 C.ar    1  UNL1        0.3522
     24 O          66.7335   91.9436   12.8834 O.2     1  UNL1       -0.2444
     25 C          67.3502   93.5199   10.4772 C.3     1  UNL1        0.1099
     26 C          68.3311   92.6599    9.6688 C.3     1  UNL1        0.0265
     27 C          67.3425   94.8880    8.2842 C.3     1  UNL1        0.0021
     28 C          66.9957   94.8483    9.7749 C.3     1  UNL1        0.0245
     29 O          64.3142   82.1220   12.4229 O.3     1  UNL1       -0.4727
     30 C          64.6834   82.4915   11.0919 C.3     1  UNL1        0.2374
     31 C          63.4383   82.7924   10.2428 C.3     1  UNL1        0.1909
     32 C          63.4505   84.1804    9.6635 C.3     1  UNL1        0.1783
     33 O          62.1439   84.6591    9.7593 O.3     1  UNL1       -0.3266
     34 C          61.3964   83.6729   10.4440 C.3     1  UNL1        0.2315
     35 O          62.2809   82.7293   11.0111 O.3     1  UNL1       -0.3254
     36 C          60.4365   82.9533    9.4869 C.ar    1  UNL1        0.0410
     37 C          60.2372   83.4991    8.1975 C.ar    1  UNL1        0.0022
     38 C          59.4164   82.8653    7.2644 C.ar    1  UNL1        0.0113
     39 C          58.7840   81.6674    7.5885 C.ar    1  UNL1        0.0585
     40 CL         57.7619   80.8674    6.4088 Cl      1  UNL1       -0.0822
     41 C          58.9746   81.0990    8.8479 C.ar    1  UNL1        0.0226
     42 C          59.7954   81.7211    9.7978 C.ar    1  UNL1        0.0591
     43 CL         59.9789   80.8861   11.3377 Cl      1  UNL1       -0.0824
     44 C          60.6088   84.3263   11.6090 C.3     1  UNL1        0.1914
     45 N          59.2307   84.6670   11.2370 N.ar    1  UNL1       -0.2079
     46 N          58.2116   83.8509   11.4503 N.ar    1  UNL1       -0.0427
     47 N          57.1334   84.3330   10.8549 N.ar    1  UNL1       -0.0227
     48 N          57.4338   85.4566   10.2229 N.ar    1  UNL1       -0.1081
     49 C          58.7448   85.6648   10.4576 C.ar    1  UNL1        0.1840
     50 C          59.4886   86.7960    9.8511 C.ar    1  UNL1        0.0374
     51 C          60.4645   87.5145   10.5604 C.ar    1  UNL1        0.0031
     52 C          61.1114   88.6067    9.9745 C.ar    1  UNL1        0.0001
     53 C          60.7666   89.0150    8.6848 C.ar    1  UNL1        0.0000
     54 C          59.7676   88.3367    7.9846 C.ar    1  UNL1        0.0001
     55 C          59.1329   87.2345    8.5633 C.ar    1  UNL1        0.0031
@<TRIPOS>BOND
     1    27    28    1
     2    28    25    1
     3    25    26    1
     4    25    19    1
     5    19    20   ar
     6    20    21   ar
     7    21    22   ar
     8    22    13    1
     9    13    14   ar
    10    14    15   ar
    11    15    16   ar
    12    16     7    1
    13     7     8    1
    14     8     9    1
    15     9    10    1
    16    10     1    1
    17     1     2   ar
    18     2     3   ar
    19     3     4   ar
    20     4    29    1
    21    29    30    1
    22    30    31    1
    23    31    32    1
    24    32    33    1
    25    33    34    1
    26    34    44    1
    27    44    45    1
    28    45    46   ar
    29    46    47   ar
    30    47    48   ar
    31    48    49   ar
    32    49    50    1
    33    50    51   ar
    34    51    52   ar
    35    52    53   ar
    36    53    54   ar
    37    54    55   ar
    38    34    36    1
    39    36    37   ar
    40    37    38   ar
    41    38    39   ar
    42    39    40    1
    43    39    41   ar
    44    41    42   ar
    45    42    43    1
    46    34    35    1
    47     4     5   ar
    48     5     6   ar
    49    10    11    1
    50    11    12    1
    51    16    17   ar
    52    17    18   ar
    53    22    23   ar
    54    23    24    2
    55    23    19   ar
    56    18    13   ar
    57    12     7    1
    58     6     1   ar
    59    35    31    1
    60    49    45   ar
    61    55    50   ar
    62    42    36   ar
@<TRIPOS>MOLECULE
*****
 55 62 0 0 0
SMALL
GASTEIGER

@<TRIPOS>ATOM
      1 C          60.8263   86.3754    9.3659 C.ar    1  UNL1        0.0481
      2 C          62.1939   86.6774    9.3154 C.ar    1  UNL1        0.0176
      3 C          63.1390   85.6515    9.2088 C.ar    1  UNL1        0.0382
      4 C          62.7341   84.3112    9.1674 C.ar    1  UNL1        0.1388
      5 C          61.3586   84.0120    9.1950 C.ar    1  UNL1        0.0382
      6 C          60.4178   85.0348    9.3076 C.ar    1  UNL1        0.0176
      7 N          60.5927   89.8818   10.2246 N.pl3   1  UNL1       -0.3041
      8 C          60.5078   89.6452    8.7723 C.3     1  UNL1        0.1122
      9 C          59.6647   88.3981    8.4701 C.3     1  UNL1        0.1122
     10 N          59.8596   87.4246    9.5492 N.pl3   1  UNL1       -0.3041
     11 C          59.4296   87.8136   10.9035 C.3     1  UNL1        0.1122
     12 C          59.5392   89.3370   11.0953 C.3     1  UNL1        0.1122
     13 C          64.2055   91.4838   11.8193 C.ar    1  UNL1        0.0699
     14 C          63.2506   90.9011   12.6678 C.ar    1  UNL1        0.0190
     15 C          62.0465   90.4148   12.1533 C.ar    1  UNL1        0.0160
     16 C          61.7844   90.4766   10.7747 C.ar    1  UNL1        0.0480
     17 C          62.7360   91.0630    9.9265 C.ar    1  UNL1        0.0160
     18 C          63.9277   91.5749   10.4450 C.ar    1  UNL1        0.0190
     19 N          67.2639   92.2390   13.6195 N.ar    1  UNL1       -0.2024
     20 N          67.3490   93.1124   12.6259 N.ar    1  UNL1       -0.1442
     21 C          66.2549   92.9225   11.8572 C.ar    1  UNL1        0.2073
     22 N          65.4608   91.9461   12.3528 N.ar    1  UNL1       -0.2398
     23 C          66.1229   91.5454   13.4558 C.ar    1  UNL1        0.3522
     24 O          65.7371   90.6263   14.2276 O.2     1  UNL1       -0.2444
     25 C          68.2172   92.1266   14.7303 C.3     1  UNL1        0.1099
     26 C          69.6635   92.2518   14.2327 C.3     1  UNL1        0.0265
     27 C          68.9782   94.1582   16.1356 C.3     1  UNL1        0.0021
     28 C          67.8791   93.1303   15.8537 C.3     1  UNL1        0.0245
     29 O          63.7244   83.3159    9.1083 O.3     1  UNL1       -0.4727
     30 C          64.0678   82.4253   10.1729 C.3     1  UNL1        0.2374
     31 C          64.0466   83.1556   11.5249 C.3     1  UNL1        0.1909
     32 C          64.5237   82.2921   12.6603 C.3     1  UNL1        0.1783
     33 O          63.6932   82.5730   13.7451 O.3     1  UNL1       -0.3266
     34 C          62.7062   83.4738   13.2820 C.3     1  UNL1        0.2315
     35 O          62.7530   83.5300   11.8717 O.3     1  UNL1       -0.3254
     36 C          62.9404   84.8797   13.8512 C.ar    1  UNL1        0.0410
     37 C          63.0700   85.9589   12.9465 C.ar    1  UNL1        0.0022
     38 C          63.2343   87.2671   13.4023 C.ar    1  UNL1        0.0113
     39 C          63.2617   87.5334   14.7691 C.ar    1  UNL1        0.0585
     40 CL         63.4570   89.1809   15.3385 Cl      1  UNL1       -0.0822
     41 C          63.1215   86.4898   15.6838 C.ar    1  UNL1        0.0226
     42 C          62.9554   85.1698   15.2447 C.ar    1  UNL1        0.0591
     43 CL         62.7577   83.9488   16.4985 Cl      1  UNL1       -0.0824
     44 C          61.2983   82.9583   13.6775 C.3     1  UNL1        0.1914
     45 N          60.2203   83.8089   13.1599 N.ar    1  UNL1       -0.2079
     46 N          60.0281   85.0497   13.5764 N.ar    1  UNL1       -0.0427
     47 N          58.8896   85.5058   13.0812 N.ar    1  UNL1       -0.0227
     48 N          58.3070   84.5651   12.3546 N.ar    1  UNL1       -0.1081
     49 C          59.1354   83.5029   12.4058 C.ar    1  UNL1        0.1840
     50 C          58.7993   82.2044   11.7720 C.ar    1  UNL1        0.0374
     51 C          58.3093   82.1185   10.4589 C.ar    1  UNL1        0.0031
     52 C          57.9559   80.8824    9.9097 C.ar    1  UNL1        0.0001
     53 C          58.0558   79.7209   10.6778 C.ar    1  UNL1        0.0000
     54 C          58.5002   79.7972   11.9988 C.ar    1  UNL1        0.0001
     55 C          58.8698   81.0303   12.5425 C.ar    1  UNL1        0.0031
@<TRIPOS>BOND
     1    27    28    1
     2    28    25    1
     3    25    26    1
     4    25    19    1
     5    19    20   ar
     6    20    21   ar
     7    21    22   ar
     8    22    13    1
     9    13    14   ar
    10    14    15   ar
    11    15    16   ar
    12    16     7    1
    13     7     8    1
    14     8     9    1
    15     9    10    1
    16    10     1    1
    17     1     2   ar
    18     2     3   ar
    19     3     4   ar
    20     4    29    1
    21    29    30    1
    22    30    31    1
    23    31    32    1
    24    32    33    1
    25    33    34    1
    26    34    44    1
    27    44    45    1
    28    45    46   ar
    29    46    47   ar
    30    47    48   ar
    31    48    49   ar
    32    49    50    1
    33    50    51   ar
    34    51    52   ar
    35    52    53   ar
    36    53    54   ar
    37    54    55   ar
    38    34    36    1
    39    36    37   ar
    40    37    38   ar
    41    38    39   ar
    42    39    40    1
    43    39    41   ar
    44    41    42   ar
    45    42    43    1
    46    34    35    1
    47     4     5   ar
    48     5     6   ar
    49    10    11    1
    50    11    12    1
    51    16    17   ar
    52    17    18   ar
    53    22    23   ar
    54    23    24    2
    55    23    19   ar
    56    18    13   ar
    57    12     7    1
    58     6     1   ar
    59    35    31    1
    60    49    45   ar
    61    55    50   ar
    62    42    36   ar
@<TRIPOS>MOLECULE
*****
 55 62 0 0 0
SMALL
GASTEIGER

@<TRIPOS>ATOM
      1 C          61.9975   83.1529    9.1712 C.ar    1  UNL1        0.0481
      2 C          63.2468   83.2202    9.8027 C.ar    1  UNL1        0.0176
      3 C          63.5983   82.2754   10.7727 C.ar    1  UNL1        0.0382
      4 C          62.7031   81.2616   11.1371 C.ar    1  UNL1        0.1388
      5 C          61.4580   81.1827   10.4846 C.ar    1  UNL1        0.0382
      6 C          61.1061   82.1285    9.5226 C.ar    1  UNL1        0.0176
      7 N          61.9489   86.7448    8.7439 N.pl3   1  UNL1       -0.3041
      8 C          63.0793   86.1047    8.0477 C.3     1  UNL1        0.1122
      9 C          62.6423   84.7862    7.3936 C.3     1  UNL1        0.1122
     10 N          61.6078   84.1664    8.2278 N.pl3   1  UNL1       -0.3041
     11 C          60.3433   84.9016    8.4035 C.3     1  UNL1        0.1122
     12 C          60.5781   86.4206    8.3190 C.3     1  UNL1        0.1122
     13 C          62.8693   89.0494   12.2085 C.ar    1  UNL1        0.0699
     14 C          62.7786   87.6506   12.2885 C.ar    1  UNL1        0.0190
     15 C          62.4342   86.8962   11.1645 C.ar    1  UNL1        0.0160
     16 C          62.1999   87.5240    9.9299 C.ar    1  UNL1        0.0480
     17 C          62.2857   88.9222    9.8500 C.ar    1  UNL1        0.0160
     18 C          62.6023   89.6786   10.9809 C.ar    1  UNL1        0.0190
     19 N          64.3011   91.2167   14.7418 N.ar    1  UNL1       -0.2024
     20 N          63.3660   90.6026   15.4529 N.ar    1  UNL1       -0.1442
     21 C          62.7359   89.7599   14.6062 C.ar    1  UNL1        0.2073
     22 N          63.2641   89.8157   13.3623 N.ar    1  UNL1       -0.2398
     23 C          64.2416   90.7346   13.4873 C.ar    1  UNL1        0.3522
     24 O          64.9936   91.1117   12.5483 O.2     1  UNL1       -0.2444
     25 C          65.2677   92.1854   15.2735 C.3     1  UNL1        0.1099
     26 C          64.9905   92.4886   16.7521 C.3     1  UNL1        0.0265
     27 C          67.7682   92.4124   15.8880 C.3     1  UNL1        0.0021
     28 C          66.7170   91.7190   15.0172 C.3     1  UNL1        0.0245
     29 O          63.0849   80.3661   12.1506 O.3     1  UNL1       -0.4727
     30 C          63.8190   80.7120   13.3278 C.3     1  UNL1        0.2374
     31 C          63.1398   81.8706   14.0749 C.3     1  UNL1        0.1909
     32 C          61.7460   81.5332   14.5284 C.3     1  UNL1        0.1783
     33 O          60.9749   82.6760   14.3165 O.3     1  UNL1       -0.3266
     34 C          61.8122   83.6220   13.6808 C.3     1  UNL1        0.2315
     35 O          62.9951   82.9815   13.2509 O.3     1  UNL1       -0.3254
     36 C          62.1762   84.7616   14.6422 C.ar    1  UNL1        0.0410
     37 C          61.1762   85.2523   15.5134 C.ar    1  UNL1        0.0022
     38 C          61.4573   86.2522   16.4446 C.ar    1  UNL1        0.0113
     39 C          62.7433   86.7789   16.5388 C.ar    1  UNL1        0.0585
     40 CL         63.0959   88.0278   17.7187 Cl      1  UNL1       -0.0822
     41 C          63.7525   86.3030   15.7020 C.ar    1  UNL1        0.0226
     42 C          63.4889   85.2992   14.7608 C.ar    1  UNL1        0.0591
     43 CL         64.8552   84.7636   13.7869 Cl      1  UNL1       -0.0824
     44 C          61.1063   84.1838   12.4196 C.3     1  UNL1        0.1914
     45 N          59.6944   84.5042   12.6591 N.ar    1  UNL1       -0.2079
     46 N          59.3093   85.5921   13.3056 N.ar    1  UNL1       -0.0427
     47 N          58.0077   85.5285   13.5322 N.ar    1  UNL1       -0.0227
     48 N          57.5250   84.3895   13.0611 N.ar    1  UNL1       -0.1081
     49 C          58.5783   83.7466   12.5184 C.ar    1  UNL1        0.1840
     50 C          58.4650   82.3830   11.9452 C.ar    1  UNL1        0.0374
     51 C          58.0048   82.1580   10.6378 C.ar    1  UNL1        0.0031
     52 C          57.8636   80.8568   10.1463 C.ar    1  UNL1        0.0001
     53 C          58.1484   79.7639   10.9668 C.ar    1  UNL1        0.0000
     54 C          58.5653   79.9723   12.2826 C.ar    1  UNL1        0.0001
     55 C          58.7229   81.2729   12.7687 C.ar    1  UNL1        0.0031
@<TRIPOS>BOND
     1    27    28    1
     2    28    25    1
     3    25    26    1
     4    25    19    1
     5    19    20   ar
     6    20    21   ar
     7    21    22   ar
     8    22    13    1
     9    13    14   ar
    10    14    15   ar
    11    15    16   ar
    12    16     7    1
    13     7     8    1
    14     8     9    1
    15     9    10    1
    16    10     1    1
    17     1     2   ar
    18     2     3   ar
    19     3     4   ar
    20     4    29    1
    21    29    30    1
    22    30    31    1
    23    31    32    1
    24    32    33    1
    25    33    34    1
    26    34    44    1
    27    44    45    1
    28    45    46   ar
    29    46    47   ar
    30    47    48   ar
    31    48    49   ar
    32    49    50    1
    33    50    51   ar
    34    51    52   ar
    35    52    53   ar
    36    53    54   ar
    37    54    55   ar
    38    34    36    1
    39    36    37   ar
    40    37    38   ar
    41    38    39   ar
    42    39    40    1
    43    39    41   ar
    44    41    42   ar
    45    42    43    1
    46    34    35    1
    47     4     5   ar
    48     5     6   ar
    49    10    11    1
    50    11    12    1
    51    16    17   ar
    52    17    18   ar
    53    22    23   ar
    54    23    24    2
    55    23    19   ar
    56    18    13   ar
    57    12     7    1
    58     6     1   ar
    59    35    31    1
    60    49    45   ar
    61    55    50   ar
    62    42    36   ar
@<TRIPOS>MOLECULE
*****
 55 62 0 0 0
SMALL
GASTEIGER

@<TRIPOS>ATOM
      1 C          62.1754   90.0201   13.5550 C.ar    1  UNL1        0.0481
      2 C          62.7545   90.4581   12.3562 C.ar    1  UNL1        0.0176
      3 C          62.0056   90.4706   11.1746 C.ar    1  UNL1        0.0382
      4 C          60.6755   90.0317   11.1695 C.ar    1  UNL1        0.1388
      5 C          60.0893   89.6141   12.3796 C.ar    1  UNL1        0.0382
      6 C          60.8383   89.5961   13.5554 C.ar    1  UNL1        0.0176
      7 N          63.9493   87.6293   15.6101 N.pl3   1  UNL1       -0.3041
      8 C          64.8436   88.3796   14.7102 C.3     1  UNL1        0.1122
      9 C          64.4251   89.8546   14.6292 C.3     1  UNL1        0.1122
     10 N          62.9665   89.9382   14.7534 N.pl3   1  UNL1       -0.3041
     11 C          62.3625   89.4756   16.0150 C.3     1  UNL1        0.1122
     12 C          63.2131   88.3620   16.6521 C.3     1  UNL1        0.1122
     13 C          63.1175   83.5659   14.6308 C.ar    1  UNL1        0.0699
     14 C          62.0997   84.4034   15.1144 C.ar    1  UNL1        0.0190
     15 C          62.3788   85.7230   15.4774 C.ar    1  UNL1        0.0160
     16 C          63.6774   86.2404   15.3383 C.ar    1  UNL1        0.0480
     17 C          64.6963   85.4028   14.8596 C.ar    1  UNL1        0.0160
     18 C          64.4227   84.0749   14.5235 C.ar    1  UNL1        0.0190
     19 N          61.8883   80.4339   13.2728 N.ar    1  UNL1       -0.2024
     20 N          62.8665   79.9904   14.0496 N.ar    1  UNL1       -0.1442
     21 C          63.4276   81.0809   14.6153 C.ar    1  UNL1        0.2073
     22 N          62.8125   82.2192   14.2212 N.ar    1  UNL1       -0.2398
     23 C          61.8541   81.7740   13.3853 C.ar    1  UNL1        0.3522
     24 O          61.0402   82.5148   12.7704 O.2     1  UNL1       -0.2444
     25 C          60.9701   79.5860   12.5023 C.3     1  UNL1        0.1099
     26 C          59.5402   79.6774   13.0520 C.3     1  UNL1        0.0265
     27 C          62.1712   79.1633   10.2528 C.3     1  UNL1        0.0021
     28 C          61.0557   79.9051   10.9941 C.3     1  UNL1        0.0245
     29 O          59.9811   90.0189    9.9478 O.3     1  UNL1       -0.4727
     30 C          60.4043   89.3412    8.7620 C.3     1  UNL1        0.2374
     31 C          60.5702   87.8357    9.0224 C.3     1  UNL1        0.1909
     32 C          59.3313   87.0484    8.6944 C.3     1  UNL1        0.1783
     33 O          59.2005   86.0847    9.6942 O.3     1  UNL1       -0.3266
     34 C          60.2316   86.3255   10.6317 C.3     1  UNL1        0.2315
     35 O          60.8152   87.5842   10.3680 O.3     1  UNL1       -0.3254
     36 C          61.3128   85.2397   10.5447 C.ar    1  UNL1        0.0410
     37 C          61.0594   84.1003    9.7464 C.ar    1  UNL1        0.0022
     38 C          62.0211   83.1025    9.5867 C.ar    1  UNL1        0.0113
     39 C          63.2619   83.2209   10.2083 C.ar    1  UNL1        0.0585
     40 CL         64.4729   81.9699    9.9959 Cl      1  UNL1       -0.0822
     41 C          63.5441   84.3414   10.9895 C.ar    1  UNL1        0.0226
     42 C          62.5907   85.3535   11.1612 C.ar    1  UNL1        0.0591
     43 CL         63.0814   86.7298   12.1447 Cl      1  UNL1       -0.0824
     44 C          59.6369   86.3825   12.0626 C.3     1  UNL1        0.1914
     45 N          58.1701   86.4268   12.0626 N.ar    1  UNL1       -0.2079
     46 N          57.4843   87.3531   12.7118 N.ar    1  UNL1       -0.0427
     47 N          56.1989   87.0420   12.6888 N.ar    1  UNL1       -0.0227
     48 N          56.0254   85.8971   12.0474 N.ar    1  UNL1       -0.1081
     49 C          57.2565   85.5095   11.6586 C.ar    1  UNL1        0.1840
     50 C          57.4999   84.2197   10.9673 C.ar    1  UNL1        0.0374
     51 C          58.0142   83.0981   11.6375 C.ar    1  UNL1        0.0031
     52 C          58.2778   81.9129   10.9445 C.ar    1  UNL1        0.0001
     53 C          58.0623   81.8448    9.5669 C.ar    1  UNL1        0.0000
     54 C          57.5923   82.9658    8.8805 C.ar    1  UNL1        0.0001
     55 C          57.3126   84.1452    9.5758 C.ar    1  UNL1        0.0031
@<TRIPOS>BOND
     1    27    28    1
     2    28    25    1
     3    25    26    1
     4    25    19    1
     5    19    20   ar
     6    20    21   ar
     7    21    22   ar
     8    22    13    1
     9    13    14   ar
    10    14    15   ar
    11    15    16   ar
    12    16     7    1
    13     7     8    1
    14     8     9    1
    15     9    10    1
    16    10     1    1
    17     1     2   ar
    18     2     3   ar
    19     3     4   ar
    20     4    29    1
    21    29    30    1
    22    30    31    1
    23    31    32    1
    24    32    33    1
    25    33    34    1
    26    34    44    1
    27    44    45    1
    28    45    46   ar
    29    46    47   ar
    30    47    48   ar
    31    48    49   ar
    32    49    50    1
    33    50    51   ar
    34    51    52   ar
    35    52    53   ar
    36    53    54   ar
    37    54    55   ar
    38    34    36    1
    39    36    37   ar
    40    37    38   ar
    41    38    39   ar
    42    39    40    1
    43    39    41   ar
    44    41    42   ar
    45    42    43    1
    46    34    35    1
    47     4     5   ar
    48     5     6   ar
    49    10    11    1
    50    11    12    1
    51    16    17   ar
    52    17    18   ar
    53    22    23   ar
    54    23    24    2
    55    23    19   ar
    56    18    13   ar
    57    12     7    1
    58     6     1   ar
    59    35    31    1
    60    49    45   ar
    61    55    50   ar
    62    42    36   ar
