@<TRIPOS>MOLECULE
*****
 48 53 0 0 0
SMALL
GASTEIGER

@<TRIPOS>ATOM
      1 C         -30.8088   46.7573  -10.0028 C.ar    1  UNL1        0.0702
      2 C         -31.2899   48.0053  -10.4150 C.ar    1  UNL1        0.0191
      3 C         -31.3087   48.3408  -11.7695 C.ar    1  UNL1        0.0356
      4 C         -30.8283   47.4229  -12.7192 C.ar    1  UNL1        0.1318
      5 N         -30.3354   46.2269  -12.2903 N.ar    1  UNL1       -0.2279
      6 C         -30.3108   45.8775  -10.9770 C.ar    1  UNL1        0.1149
      7 N         -30.8283   47.7324  -14.1298 N.pl3   1  UNL1       -0.2932
      8 C         -30.7281   46.6425  -15.1128 C.3     1  UNL1        0.0923
      9 C         -30.0058   47.1338  -16.3693 C.3     1  UNL1        0.0252
     10 C         -30.7245   48.3405  -17.0259 C.3     1  UNL1        0.0472
     11 C         -31.5747   49.1556  -16.0192 C.3     1  UNL1        0.0252
     12 C         -31.0032   49.1189  -14.5966 C.3     1  UNL1        0.0923
     13 C         -29.7133   49.2497  -17.7549 C.3     1  UNL1        0.2054
     14 O         -28.3913   49.0649  -17.2448 O.3     1  UNL1       -0.4752
     15 C         -27.6923   49.9590  -16.4131 C.ar    1  UNL1        0.1449
     16 C         -28.1879   50.3385  -15.1486 C.ar    1  UNL1        0.0435
     17 C         -27.4673   51.2180  -14.3249 C.ar    1  UNL1        0.0785
     18 C         -26.2372   51.7187  -14.7749 C.ar    1  UNL1        0.0068
     19 C         -25.7354   51.3485  -16.0223 C.ar    1  UNL1        0.0097
     20 C         -26.4495   50.4682  -16.8514 C.ar    1  UNL1        0.1093
     21 C         -28.0011   51.6106  -13.0009 C.2     1  UNL1        0.3381
     22 O         -27.3186   51.4263  -11.9568 O.2     1  UNL1       -0.2451
     23 O         -29.2637   52.1887  -12.8954 O.3     1  UNL1       -0.4771
     24 H         -29.6377   52.4612  -11.9943 H       1  UNL1        0.2954
     25 C         -25.9023   50.1104  -18.1840 C.2     1  UNL1        0.3410
     26 O         -25.3743   50.9948  -18.9091 O.2     1  UNL1       -0.2450
     27 O         -25.9539   48.8011  -18.6597 O.3     1  UNL1       -0.4770
     28 H         -26.4375   48.0648  -18.1610 H       1  UNL1        0.2954
     29 C         -29.5720   46.3930   -7.8158 C.2     1  UNL1        0.2839
     30 O         -28.4447   46.3913   -8.3797 O.2     1  UNL1       -0.2665
     31 N         -30.7740   46.4348   -8.6019 N.am    1  UNL1       -0.2766
     32 H         -31.6663   46.1313   -8.1497 H       1  UNL1        0.1553
     33 C         -30.2456   48.7842   -5.7906 C.3     1  UNL1        0.0345
     34 C         -29.9553   47.3516   -5.4580 C.ar    1  UNL1        0.0202
     35 C         -29.6607   46.3105   -6.3455 C.ar    1  UNL1        0.1946
     36 O         -29.4650   45.1880   -5.6767 O.2     1  UNL1       -0.4492
     37 C         -29.6168   45.4476   -4.4010 C.ar    1  UNL1        0.1452
     38 C         -29.5027   44.5570   -3.3393 C.ar    1  UNL1        0.0375
     39 C         -29.7092   45.0497   -2.0392 C.ar    1  UNL1        0.0031
     40 C         -30.0251   46.4179   -1.8202 C.ar    1  UNL1        0.0002
     41 C         -30.1315   47.2915   -2.9292 C.ar    1  UNL1        0.0028
     42 C         -29.9198   46.7684   -4.2058 C.ar    1  UNL1        0.0337
     43 C         -30.2414   46.9270   -0.4422 C.ar    1  UNL1        0.0000
     44 C         -29.8538   48.2349   -0.0933 C.ar    1  UNL1        0.0000
     45 C         -30.0587   48.7117    1.2052 C.ar    1  UNL1        0.0000
     46 C         -30.6520   47.8919    2.1675 C.ar    1  UNL1        0.0000
     47 C         -31.0414   46.5929    1.8338 C.ar    1  UNL1        0.0000
     48 C         -30.8382   46.1105    0.5372 C.ar    1  UNL1        0.0000
@<TRIPOS>BOND
     1    33    34    1
     2    34    35   ar
     3    35    29    1
     4    29    30    2
     5    29    31   am
     6    31     1    1
     7     1     2   ar
     8     2     3   ar
     9     3     4   ar
    10     4     7    1
    11     7     8    1
    12     8     9    1
    13     9    10    1
    14    10    13    1
    15    13    14    1
    16    14    15    1
    17    15    16   ar
    18    16    17   ar
    19    17    21    1
    20    21    22    2
    21    21    23    1
    22    17    18   ar
    23    18    19   ar
    24    19    20   ar
    25    20    25    1
    26    25    26    2
    27    25    27    1
    28    10    11    1
    29    11    12    1
    30     4     5   ar
    31     5     6   ar
    32    35    36   ar
    33    36    37   ar
    34    37    38   ar
    35    38    39   ar
    36    39    40   ar
    37    40    43    1
    38    43    44   ar
    39    44    45   ar
    40    45    46   ar
    41    46    47   ar
    42    47    48   ar
    43    40    41   ar
    44    41    42   ar
    45    42    34   ar
    46     6     1   ar
    47    42    37   ar
    48    12     7    1
    49    48    43   ar
    50    20    15   ar
    51    31    32    1
    52    23    24    1
    53    27    28    1
@<TRIPOS>MOLECULE
*****
 48 53 0 0 0
SMALL
GASTEIGER

@<TRIPOS>ATOM
      1 C         -25.0891   49.9598   -8.9015 C.ar    1  UNL1        0.0702
      2 C         -25.3188   48.8173   -8.1263 C.ar    1  UNL1        0.0191
      3 C         -26.3765   47.9596   -8.4317 C.ar    1  UNL1        0.0356
      4 C         -27.2205   48.2562   -9.5157 C.ar    1  UNL1        0.1318
      5 N         -26.9956   49.3913  -10.2357 N.ar    1  UNL1       -0.2279
      6 C         -25.9697   50.2388   -9.9586 C.ar    1  UNL1        0.1149
      7 N         -28.3271   47.3959   -9.8633 N.pl3   1  UNL1       -0.2932
      8 C         -28.0692   45.9993  -10.2466 C.3     1  UNL1        0.0923
      9 C         -29.1259   45.5259  -11.2472 C.3     1  UNL1        0.0252
     10 C         -30.5641   45.6353  -10.6783 C.3     1  UNL1        0.0472
     11 C         -30.6941   46.7136   -9.5733 C.3     1  UNL1        0.0252
     12 C         -29.7157   47.8787   -9.7658 C.3     1  UNL1        0.0923
     13 C         -31.5834   45.8814  -11.8101 C.3     1  UNL1        0.2054
     14 O         -30.9278   46.0418  -13.0697 O.3     1  UNL1       -0.4752
     15 C         -30.5836   47.2650  -13.6740 C.ar    1  UNL1        0.1449
     16 C         -30.3986   48.4406  -12.9176 C.ar    1  UNL1        0.0435
     17 C         -30.0374   49.6480  -13.5365 C.ar    1  UNL1        0.0785
     18 C         -29.8586   49.6737  -14.9271 C.ar    1  UNL1        0.0068
     19 C         -30.0360   48.5168  -15.6855 C.ar    1  UNL1        0.0097
     20 C         -30.3958   47.3050  -15.0737 C.ar    1  UNL1        0.1093
     21 C         -29.8496   50.8757  -12.7305 C.2     1  UNL1        0.3381
     22 O         -30.3949   51.9580  -13.0786 O.2     1  UNL1       -0.2451
     23 O         -29.0684   50.8472  -11.5779 O.3     1  UNL1       -0.4771
     24 H         -28.9341   51.6815  -11.0194 H       1  UNL1        0.2954
     25 C         -30.6010   46.0952  -15.9088 C.2     1  UNL1        0.3410
     26 O         -31.1956   46.1842  -17.0157 O.2     1  UNL1       -0.2450
     27 O         -30.1424   44.8450  -15.4966 O.3     1  UNL1       -0.4770
     28 H         -29.7320   44.6953  -14.5834 H       1  UNL1        0.2954
     29 C         -23.0944   51.4046   -9.5171 C.2     1  UNL1        0.2839
     30 O         -23.0376   50.9395  -10.6872 O.2     1  UNL1       -0.2665
     31 N         -24.0096   50.8464   -8.5604 N.am    1  UNL1       -0.2766
     32 H         -23.8301   51.0277   -7.5467 H       1  UNL1        0.1553
     33 C         -23.3773   54.5090  -10.2627 C.3     1  UNL1        0.0345
     34 C         -22.3107   53.8550   -9.4368 C.ar    1  UNL1        0.0202
     35 C         -22.1904   52.4986   -9.1143 C.ar    1  UNL1        0.1946
     36 O         -21.1190   52.3053   -8.3657 O.2     1  UNL1       -0.4492
     37 C         -20.5378   53.4663   -8.1867 C.ar    1  UNL1        0.1452
     38 C         -19.3810   53.7279   -7.4610 C.ar    1  UNL1        0.0375
     39 C         -18.9289   55.0572   -7.3959 C.ar    1  UNL1        0.0031
     40 C         -19.6358   56.1002   -8.0534 C.ar    1  UNL1        0.0002
     41 C         -20.8093   55.7907   -8.7823 C.ar    1  UNL1        0.0028
     42 C         -21.2291   54.4603   -8.8260 C.ar    1  UNL1        0.0337
     43 C         -19.1488   57.5009   -7.9774 C.ar    1  UNL1        0.0000
     44 C         -19.4270   58.4127   -9.0136 C.ar    1  UNL1        0.0000
     45 C         -18.9672   59.7311   -8.9394 C.ar    1  UNL1        0.0000
     46 C         -18.2274   60.1542   -7.8331 C.ar    1  UNL1        0.0000
     47 C         -17.9452   59.2597   -6.7985 C.ar    1  UNL1        0.0000
     48 C         -18.4017   57.9398   -6.8677 C.ar    1  UNL1        0.0000
@<TRIPOS>BOND
     1    33    34    1
     2    34    35   ar
     3    35    29    1
     4    29    30    2
     5    29    31   am
     6    31     1    1
     7     1     2   ar
     8     2     3   ar
     9     3     4   ar
    10     4     7    1
    11     7     8    1
    12     8     9    1
    13     9    10    1
    14    10    13    1
    15    13    14    1
    16    14    15    1
    17    15    16   ar
    18    16    17   ar
    19    17    21    1
    20    21    22    2
    21    21    23    1
    22    17    18   ar
    23    18    19   ar
    24    19    20   ar
    25    20    25    1
    26    25    26    2
    27    25    27    1
    28    10    11    1
    29    11    12    1
    30     4     5   ar
    31     5     6   ar
    32    35    36   ar
    33    36    37   ar
    34    37    38   ar
    35    38    39   ar
    36    39    40   ar
    37    40    43    1
    38    43    44   ar
    39    44    45   ar
    40    45    46   ar
    41    46    47   ar
    42    47    48   ar
    43    40    41   ar
    44    41    42   ar
    45    42    34   ar
    46     6     1   ar
    47    42    37   ar
    48    12     7    1
    49    48    43   ar
    50    20    15   ar
    51    31    32    1
    52    23    24    1
    53    27    28    1
@<TRIPOS>MOLECULE
*****
 48 53 0 0 0
SMALL
GASTEIGER

@<TRIPOS>ATOM
      1 C         -25.1560   50.2487   -9.1812 C.ar    1  UNL1        0.0702
      2 C         -25.4177   49.0681   -8.4765 C.ar    1  UNL1        0.0191
      3 C         -26.4805   48.2449   -8.8512 C.ar    1  UNL1        0.0356
      4 C         -27.2974   48.6145   -9.9334 C.ar    1  UNL1        0.1318
      5 N         -27.0417   49.7847  -10.5835 N.ar    1  UNL1       -0.2279
      6 C         -26.0103   50.5998  -10.2384 C.ar    1  UNL1        0.1149
      7 N         -28.4083   47.7918  -10.3512 N.pl3   1  UNL1       -0.2932
      8 C         -28.2734   46.3270  -10.3370 C.3     1  UNL1        0.0923
      9 C         -29.1330   45.7100  -11.4427 C.3     1  UNL1        0.0252
     10 C         -30.6316   46.0798  -11.2969 C.3     1  UNL1        0.0472
     11 C         -30.8523   47.4071  -10.5286 C.3     1  UNL1        0.0252
     12 C         -29.6989   48.3997  -10.7194 C.3     1  UNL1        0.0923
     13 C         -31.3222   46.1209  -12.6759 C.3     1  UNL1        0.2054
     14 O         -30.7462   47.1263  -13.5123 O.3     1  UNL1       -0.4752
     15 C         -30.7923   47.1598  -14.9182 C.ar    1  UNL1        0.1449
     16 C         -30.5667   46.0054  -15.6961 C.ar    1  UNL1        0.0435
     17 C         -30.6349   46.0546  -17.0976 C.ar    1  UNL1        0.0785
     18 C         -30.9342   47.2736  -17.7226 C.ar    1  UNL1        0.0068
     19 C         -31.1620   48.4214  -16.9638 C.ar    1  UNL1        0.0097
     20 C         -31.0971   48.3801  -15.5616 C.ar    1  UNL1        0.1093
     21 C         -30.3926   44.8355  -17.9022 C.2     1  UNL1        0.3381
     22 O         -29.3758   44.1210  -17.6890 O.2     1  UNL1       -0.2451
     23 O         -31.2867   44.4651  -18.9036 O.3     1  UNL1       -0.4771
     24 H         -31.1302   43.6328  -19.4593 H       1  UNL1        0.2954
     25 C         -31.3206   49.6225  -14.7808 C.2     1  UNL1        0.3410
     26 O         -31.2798   50.7444  -15.3520 O.2     1  UNL1       -0.2450
     27 O         -31.5829   49.5799  -13.4123 O.3     1  UNL1       -0.4770
     28 H         -31.5470   48.7178  -12.8830 H       1  UNL1        0.2954
     29 C         -23.0500   51.5853   -9.6542 C.2     1  UNL1        0.2839
     30 O         -22.9104   51.0806  -10.8007 O.2     1  UNL1       -0.2665
     31 N         -24.0716   51.0985   -8.7689 N.am    1  UNL1       -0.2766
     32 H         -23.9753   51.3046   -7.7487 H       1  UNL1        0.1553
     33 C         -23.2614   54.7129  -10.3226 C.3     1  UNL1        0.0345
     34 C         -22.2255   54.0182   -9.4910 C.ar    1  UNL1        0.0202
     35 C         -22.1363   52.6518   -9.2023 C.ar    1  UNL1        0.1946
     36 O         -21.0857   52.4194   -8.4355 O.2     1  UNL1       -0.4492
     37 C         -20.4885   53.5646   -8.2126 C.ar    1  UNL1        0.1452
     38 C         -19.3440   53.7859   -7.4547 C.ar    1  UNL1        0.0375
     39 C         -18.8703   55.1046   -7.3440 C.ar    1  UNL1        0.0031
     40 C         -19.5436   56.1772   -7.9890 C.ar    1  UNL1        0.0002
     41 C         -20.7055   55.9084   -8.7518 C.ar    1  UNL1        0.0028
     42 C         -21.1475   54.5874   -8.8404 C.ar    1  UNL1        0.0337
     43 C         -19.0339   57.5664   -7.8647 C.ar    1  UNL1        0.0000
     44 C         -19.2842   58.5137   -8.8758 C.ar    1  UNL1        0.0000
     45 C         -18.8030   59.8212   -8.7562 C.ar    1  UNL1        0.0000
     46 C         -18.0696   60.1978   -7.6290 C.ar    1  UNL1        0.0000
     47 C         -17.8151   59.2677   -6.6189 C.ar    1  UNL1        0.0000
     48 C         -18.2931   57.9585   -6.7336 C.ar    1  UNL1        0.0000
@<TRIPOS>BOND
     1    33    34    1
     2    34    35   ar
     3    35    29    1
     4    29    30    2
     5    29    31   am
     6    31     1    1
     7     1     2   ar
     8     2     3   ar
     9     3     4   ar
    10     4     7    1
    11     7     8    1
    12     8     9    1
    13     9    10    1
    14    10    13    1
    15    13    14    1
    16    14    15    1
    17    15    16   ar
    18    16    17   ar
    19    17    21    1
    20    21    22    2
    21    21    23    1
    22    17    18   ar
    23    18    19   ar
    24    19    20   ar
    25    20    25    1
    26    25    26    2
    27    25    27    1
    28    10    11    1
    29    11    12    1
    30     4     5   ar
    31     5     6   ar
    32    35    36   ar
    33    36    37   ar
    34    37    38   ar
    35    38    39   ar
    36    39    40   ar
    37    40    43    1
    38    43    44   ar
    39    44    45   ar
    40    45    46   ar
    41    46    47   ar
    42    47    48   ar
    43    40    41   ar
    44    41    42   ar
    45    42    34   ar
    46     6     1   ar
    47    42    37   ar
    48    12     7    1
    49    48    43   ar
    50    20    15   ar
    51    31    32    1
    52    23    24    1
    53    27    28    1
