@<TRIPOS>MOLECULE
*****
 51 56 0 0 0
SMALL
GASTEIGER

@<TRIPOS>ATOM
      1 O          10.0525   76.4038   26.9305 O.2     1  UNL1       -0.2701
      2 C           8.9924   77.0878   26.9131 C.2     1  UNL1        0.2483
      3 N           8.7868   78.1109   27.9004 N.am    1  UNL1       -0.2945
      4 H           7.8403   78.5448   27.9868 H       1  UNL1        0.1501
      5 C           7.9604   76.7973   25.8932 C.ar    1  UNL1        0.0808
      6 C           8.3454   76.2807   24.6458 C.ar    1  UNL1        0.0080
      7 C           7.3888   75.9933   23.6692 C.ar    1  UNL1        0.0148
      8 C           6.0242   76.2250   23.9142 C.ar    1  UNL1        0.0502
      9 C           5.6420   76.7639   25.1551 C.ar    1  UNL1        0.0443
     10 C           6.5971   77.0507   26.1354 C.ar    1  UNL1        0.1457
     11 F           6.1873   77.6196   27.2975 F       1  UNL1       -0.2040
     12 N           5.0337   75.9325   22.9033 N.pl3   1  UNL1       -0.3040
     13 C           5.3755   75.0789   21.7566 C.3     1  UNL1        0.1123
     14 C           4.1522   74.2836   21.2872 C.3     1  UNL1        0.1136
     15 N           2.9724   75.1463   21.1065 N.pl3   1  UNL1       -0.2897
     16 C           2.9963   76.5269   21.6109 C.3     1  UNL1        0.1136
     17 C           3.7208   76.5944   22.9586 C.3     1  UNL1        0.1123
     18 C           1.8489   74.6934   20.3176 C.ar    1  UNL1        0.1323
     19 C           1.2455   75.5226   19.3594 C.ar    1  UNL1        0.0343
     20 C           0.1629   75.0491   18.6187 C.ar    1  UNL1        0.0087
     21 C          -0.3288   73.7482   18.8224 C.ar    1  UNL1        0.0947
     22 C           0.3094   72.9427   19.7911 C.ar    1  UNL1        0.1083
     23 S          -0.2220   71.2632   20.1343 S.3     1  UNL1       -0.1228
     24 N           1.3617   73.4348   20.4968 N.ar    1  UNL1       -0.2248
     25 H           0.6531   70.7324   19.1683 H       1  UNL1        0.1086
     26 C          -1.5034   73.2319   18.0190 C.3     1  UNL1        0.4204
     27 F          -1.4330   71.8538   17.9256 F       1  UNL1       -0.1658
     28 F          -2.6859   73.5867   18.6429 F       1  UNL1       -0.1658
     29 F          -1.5174   73.7536   16.7366 F       1  UNL1       -0.1658
     30 C           9.8613   78.5497   28.7969 C.3     1  UNL1        0.1535
     31 C          10.0685   80.0365   28.6216 C.2     1  UNL1        0.2443
     32 O          10.1955   80.7624   29.6443 O.2     1  UNL1       -0.2730
     33 N           9.9853   80.6642   27.3326 N.am    1  UNL1       -0.2825
     34 H           9.6121   81.6395   27.2905 H       1  UNL1        0.1549
     35 C          10.3496   80.0270   26.0997 C.ar    1  UNL1        0.0535
     36 C          11.5745   79.3567   25.9660 C.ar    1  UNL1        0.0353
     37 C          11.9031   78.7611   24.7462 C.ar    1  UNL1        0.1002
     38 N          11.0492   78.8504   23.6921 N.ar    1  UNL1       -0.2422
     39 C           9.8670   79.5155   23.7875 C.ar    1  UNL1        0.1002
     40 C           9.5004   80.1238   24.9907 C.ar    1  UNL1        0.0353
     41 C           9.5223   78.2201   30.2640 C.3     1  UNL1        0.0569
     42 C           8.0780   77.8351   30.4162 C.ar    1  UNL1       -0.0017
     43 C           7.0202   78.6880   30.7190 C.ar    1  UNL1        0.0681
     44 N           5.8477   78.0141   30.6944 N.ar    1  UNL1       -0.3523
     45 C           6.1546   76.7463   30.3696 C.ar    1  UNL1        0.0563
     46 C           5.2722   75.6796   30.2033 C.ar    1  UNL1        0.0170
     47 C           5.8106   74.4311   29.8414 C.ar    1  UNL1        0.0015
     48 C           7.2025   74.2790   29.6550 C.ar    1  UNL1        0.0001
     49 C           8.0684   75.3736   29.8290 C.ar    1  UNL1        0.0012
     50 C           7.5060   76.5983   30.1888 C.ar    1  UNL1        0.0131
     51 H           4.8974   78.4066   30.8768 H       1  UNL1        0.1660
@<TRIPOS>BOND
     1     1     2    2
     2     2     3   am
     3     3    30    1
     4    30    41    1
     5    41    42    1
     6    42    43   ar
     7    43    44   ar
     8    44    45   ar
     9    45    46   ar
    10    46    47   ar
    11    47    48   ar
    12    48    49   ar
    13    49    50   ar
    14    30    31    1
    15    31    32    2
    16    31    33   am
    17    33    35    1
    18    35    36   ar
    19    36    37   ar
    20    37    38   ar
    21    38    39   ar
    22    39    40   ar
    23     2     5    1
    24     5     6   ar
    25     6     7   ar
    26     7     8   ar
    27     8    12    1
    28    12    13    1
    29    13    14    1
    30    14    15    1
    31    15    18    1
    32    18    19   ar
    33    19    20   ar
    34    20    21   ar
    35    21    26    1
    36    26    27    1
    37    26    28    1
    38    26    29    1
    39    21    22   ar
    40    22    23    1
    41    22    24   ar
    42    15    16    1
    43    16    17    1
    44     8     9   ar
    45     9    10   ar
    46    10    11    1
    47    50    42   ar
    48    40    35   ar
    49    10     5   ar
    50    50    45   ar
    51    17    12    1
    52    24    18   ar
    53     3     4    1
    54    44    51    1
    55    33    34    1
    56    23    25    1
@<TRIPOS>MOLECULE
*****
 51 56 0 0 0
SMALL
GASTEIGER

@<TRIPOS>ATOM
      1 O          14.4837   83.2326   23.7255 O.2     1  UNL1       -0.2701
      2 C          13.3277   83.4162   24.1965 C.2     1  UNL1        0.2483
      3 N          12.8153   84.7516   24.3307 N.am    1  UNL1       -0.2945
      4 H          11.9402   84.9026   24.8811 H       1  UNL1        0.1501
      5 C          12.5320   82.2490   24.6372 C.ar    1  UNL1        0.0808
      6 C          11.1447   82.3808   24.8074 C.ar    1  UNL1        0.0080
      7 C          10.3718   81.2917   25.2171 C.ar    1  UNL1        0.0148
      8 C          10.9705   80.0464   25.4755 C.ar    1  UNL1        0.0502
      9 C          12.3629   79.9216   25.3271 C.ar    1  UNL1        0.0443
     10 C          13.1389   81.0096   24.9151 C.ar    1  UNL1        0.1457
     11 F          14.4852   80.8571   24.8372 F       1  UNL1       -0.2040
     12 N          10.1730   78.9198   25.9039 N.pl3   1  UNL1       -0.3040
     13 C          10.6502   78.0416   26.9815 C.3     1  UNL1        0.1123
     14 C           9.4730   77.4771   27.7844 C.3     1  UNL1        0.1136
     15 N           8.4369   76.9025   26.9097 N.pl3   1  UNL1       -0.2897
     16 C           8.4909   77.1452   25.4609 C.3     1  UNL1        0.1136
     17 C           8.9421   78.5803   25.1727 C.3     1  UNL1        0.1123
     18 C           7.4512   75.9904   27.4448 C.ar    1  UNL1        0.1323
     19 C           7.4124   74.6429   27.0542 C.ar    1  UNL1        0.0343
     20 C           6.4455   73.7945   27.5928 C.ar    1  UNL1        0.0087
     21 C           5.5098   74.2766   28.5243 C.ar    1  UNL1        0.0947
     22 C           5.5858   75.6368   28.8965 C.ar    1  UNL1        0.1083
     23 S           4.4527   76.3653   30.0823 S.3     1  UNL1       -0.1228
     24 N           6.5398   76.4374   28.3521 N.ar    1  UNL1       -0.2248
     25 H           5.3022   76.0595   31.1620 H       1  UNL1        0.1086
     26 C           4.4597   73.3572   29.1108 C.3     1  UNL1        0.4204
     27 F           3.2003   73.7989   28.7482 F       1  UNL1       -0.1658
     28 F           4.6471   72.0725   28.6337 F       1  UNL1       -0.1658
     29 F           4.5249   73.3192   30.4932 F       1  UNL1       -0.1658
     30 C          13.4938   85.9056   23.7316 C.3     1  UNL1        0.1535
     31 C          12.4707   86.9809   23.4463 C.2     1  UNL1        0.2443
     32 O          11.9214   87.5760   24.4123 O.2     1  UNL1       -0.2730
     33 N          12.0051   87.2464   22.1140 N.am    1  UNL1       -0.2825
     34 H          11.0136   87.5560   21.9986 H       1  UNL1        0.1549
     35 C          12.8027   87.0819   20.9326 C.ar    1  UNL1        0.0535
     36 C          13.7226   88.0646   20.5381 C.ar    1  UNL1        0.0353
     37 C          14.4711   87.8782   19.3737 C.ar    1  UNL1        0.1002
     38 N          14.2917   86.7613   18.6195 N.ar    1  UNL1       -0.2422
     39 C          13.3890   85.8054   18.9661 C.ar    1  UNL1        0.1002
     40 C          12.6214   85.9532   20.1241 C.ar    1  UNL1        0.0353
     41 C          14.5958   86.4419   24.6664 C.3     1  UNL1        0.0569
     42 C          15.7883   86.9176   23.8859 C.ar    1  UNL1       -0.0017
     43 C          16.0329   86.7022   22.5325 C.ar    1  UNL1        0.0681
     44 N          17.1594   87.3443   22.1476 N.ar    1  UNL1       -0.3523
     45 C          17.6228   87.9706   23.2432 C.ar    1  UNL1        0.0563
     46 C          18.7550   88.7787   23.3390 C.ar    1  UNL1        0.0170
     47 C          19.0480   89.3546   24.5888 C.ar    1  UNL1        0.0015
     48 C          18.2118   89.1136   25.7014 C.ar    1  UNL1        0.0001
     49 C          17.0755   88.2944   25.5745 C.ar    1  UNL1        0.0012
     50 C          16.8112   87.7365   24.3237 C.ar    1  UNL1        0.0131
     51 H          17.5734   87.3599   21.1891 H       1  UNL1        0.1660
@<TRIPOS>BOND
     1     1     2    2
     2     2     3   am
     3     3    30    1
     4    30    41    1
     5    41    42    1
     6    42    43   ar
     7    43    44   ar
     8    44    45   ar
     9    45    46   ar
    10    46    47   ar
    11    47    48   ar
    12    48    49   ar
    13    49    50   ar
    14    30    31    1
    15    31    32    2
    16    31    33   am
    17    33    35    1
    18    35    36   ar
    19    36    37   ar
    20    37    38   ar
    21    38    39   ar
    22    39    40   ar
    23     2     5    1
    24     5     6   ar
    25     6     7   ar
    26     7     8   ar
    27     8    12    1
    28    12    13    1
    29    13    14    1
    30    14    15    1
    31    15    18    1
    32    18    19   ar
    33    19    20   ar
    34    20    21   ar
    35    21    26    1
    36    26    27    1
    37    26    28    1
    38    26    29    1
    39    21    22   ar
    40    22    23    1
    41    22    24   ar
    42    15    16    1
    43    16    17    1
    44     8     9   ar
    45     9    10   ar
    46    10    11    1
    47    50    42   ar
    48    40    35   ar
    49    10     5   ar
    50    50    45   ar
    51    17    12    1
    52    24    18   ar
    53     3     4    1
    54    44    51    1
    55    33    34    1
    56    23    25    1
@<TRIPOS>MOLECULE
*****
 51 56 0 0 0
SMALL
GASTEIGER

@<TRIPOS>ATOM
      1 O           9.2207   74.3762   27.6996 O.2     1  UNL1       -0.2701
      2 C           8.6904   75.5187   27.7744 C.2     1  UNL1        0.2483
      3 N           7.4034   75.6691   28.3949 N.am    1  UNL1       -0.2945
      4 H           6.8983   76.5780   28.2933 H       1  UNL1        0.1501
      5 C           9.3915   76.6817   27.1866 C.ar    1  UNL1        0.0808
      6 C          10.7728   76.8319   27.3875 C.ar    1  UNL1        0.0080
      7 C          11.4574   77.9185   26.8377 C.ar    1  UNL1        0.0148
      8 C          10.7739   78.8862   26.0813 C.ar    1  UNL1        0.0502
      9 C           9.3867   78.7472   25.9002 C.ar    1  UNL1        0.0443
     10 C           8.6991   77.6595   26.4475 C.ar    1  UNL1        0.1457
     11 F           7.3524   77.5951   26.2920 F       1  UNL1       -0.2040
     12 N          11.4798   80.0134   25.5158 N.pl3   1  UNL1       -0.3040
     13 C          10.7867   80.9450   24.6146 C.3     1  UNL1        0.1123
     14 C          11.3554   82.3614   24.7547 C.3     1  UNL1        0.1136
     15 N          12.8257   82.3737   24.6713 N.pl3   1  UNL1       -0.2897
     16 C          13.5686   81.1066   24.7305 C.3     1  UNL1        0.1136
     17 C          12.9267   80.1538   25.7435 C.3     1  UNL1        0.1123
     18 C          13.5324   83.6036   24.3925 C.ar    1  UNL1        0.1323
     19 C          13.7978   84.5407   25.4029 C.ar    1  UNL1        0.0343
     20 C          14.4819   85.7159   25.0936 C.ar    1  UNL1        0.0087
     21 C          14.9090   85.9700   23.7789 C.ar    1  UNL1        0.0947
     22 C          14.6284   84.9997   22.7918 C.ar    1  UNL1        0.1083
     23 S          15.1303   85.2072   21.0813 S.3     1  UNL1       -0.1228
     24 N          13.9587   83.8651   23.1261 N.ar    1  UNL1       -0.2248
     25 H          16.3625   84.5666   21.3096 H       1  UNL1        0.1086
     26 C          15.6524   87.2447   23.4410 C.3     1  UNL1        0.4204
     27 F          14.9283   87.9736   22.5151 F       1  UNL1       -0.1658
     28 F          15.8216   88.0022   24.5859 F       1  UNL1       -0.1658
     29 F          16.9025   86.9838   22.9062 F       1  UNL1       -0.1658
     30 C           6.7756   74.5803   29.1505 C.3     1  UNL1        0.1535
     31 C           6.7748   74.9402   30.6184 C.2     1  UNL1        0.2443
     32 O           6.8941   74.0226   31.4745 O.2     1  UNL1       -0.2730
     33 N           6.5028   76.2765   31.0686 N.am    1  UNL1       -0.2825
     34 H           6.0054   76.3900   31.9808 H       1  UNL1        0.1549
     35 C           6.8398   77.4607   30.3317 C.ar    1  UNL1        0.0535
     36 C           8.1022   78.0583   30.4607 C.ar    1  UNL1        0.0353
     37 C           8.3905   79.2194   29.7399 C.ar    1  UNL1        0.1002
     38 N           7.4450   79.7752   28.9364 N.ar    1  UNL1       -0.2422
     39 C           6.2055   79.2301   28.8127 C.ar    1  UNL1        0.1002
     40 C           5.8777   78.0681   29.5157 C.ar    1  UNL1        0.0353
     41 C           5.3383   74.3248   28.6554 C.3     1  UNL1        0.0569
     42 C           5.0632   75.0640   27.3766 C.ar    1  UNL1       -0.0017
     43 C           4.3405   76.2461   27.2413 C.ar    1  UNL1        0.0681
     44 N           4.3649   76.6708   25.9574 N.ar    1  UNL1       -0.3523
     45 C           5.1041   75.7730   25.2831 C.ar    1  UNL1        0.0563
     46 C           5.4295   75.7943   23.9274 C.ar    1  UNL1        0.0170
     47 C           6.2375   74.7559   23.4288 C.ar    1  UNL1        0.0015
     48 C           6.6974   73.7323   24.2867 C.ar    1  UNL1        0.0001
     49 C           6.3535   73.7375   25.6505 C.ar    1  UNL1        0.0012
     50 C           5.5505   74.7788   26.1157 C.ar    1  UNL1        0.0131
     51 H           3.9123   77.5306   25.5748 H       1  UNL1        0.1660
@<TRIPOS>BOND
     1     1     2    2
     2     2     3   am
     3     3    30    1
     4    30    41    1
     5    41    42    1
     6    42    43   ar
     7    43    44   ar
     8    44    45   ar
     9    45    46   ar
    10    46    47   ar
    11    47    48   ar
    12    48    49   ar
    13    49    50   ar
    14    30    31    1
    15    31    32    2
    16    31    33   am
    17    33    35    1
    18    35    36   ar
    19    36    37   ar
    20    37    38   ar
    21    38    39   ar
    22    39    40   ar
    23     2     5    1
    24     5     6   ar
    25     6     7   ar
    26     7     8   ar
    27     8    12    1
    28    12    13    1
    29    13    14    1
    30    14    15    1
    31    15    18    1
    32    18    19   ar
    33    19    20   ar
    34    20    21   ar
    35    21    26    1
    36    26    27    1
    37    26    28    1
    38    26    29    1
    39    21    22   ar
    40    22    23    1
    41    22    24   ar
    42    15    16    1
    43    16    17    1
    44     8     9   ar
    45     9    10   ar
    46    10    11    1
    47    50    42   ar
    48    40    35   ar
    49    10     5   ar
    50    50    45   ar
    51    17    12    1
    52    24    18   ar
    53     3     4    1
    54    44    51    1
    55    33    34    1
    56    23    25    1
@<TRIPOS>MOLECULE
*****
 51 56 0 0 0
SMALL
GASTEIGER

@<TRIPOS>ATOM
      1 O           9.1399   74.5085   27.8742 O.2     1  UNL1       -0.2701
      2 C           8.5718   75.6341   27.8243 C.2     1  UNL1        0.2483
      3 N           7.2287   75.7781   28.3133 N.am    1  UNL1       -0.2945
      4 H           6.7090   76.6604   28.1060 H       1  UNL1        0.1501
      5 C           9.2905   76.7815   27.2272 C.ar    1  UNL1        0.0808
      6 C          10.6198   77.0362   27.6000 C.ar    1  UNL1        0.0080
      7 C          11.3206   78.1100   27.0456 C.ar    1  UNL1        0.0148
      8 C          10.7044   78.9607   26.1115 C.ar    1  UNL1        0.0502
      9 C           9.3659   78.7185   25.7562 C.ar    1  UNL1        0.0443
     10 C           8.6626   77.6431   26.3079 C.ar    1  UNL1        0.1457
     11 F           7.3567   77.4799   25.9762 F       1  UNL1       -0.2040
     12 N          11.4265   80.0748   25.5405 N.pl3   1  UNL1       -0.3040
     13 C          10.7481   81.0092   24.6311 C.3     1  UNL1        0.1123
     14 C          11.3347   82.4190   24.7634 C.3     1  UNL1        0.1136
     15 N          12.8053   82.4116   24.6842 N.pl3   1  UNL1       -0.2897
     16 C          13.5315   81.1354   24.7539 C.3     1  UNL1        0.1136
     17 C          12.8744   80.1979   25.7714 C.3     1  UNL1        0.1123
     18 C          13.5287   83.6304   24.3992 C.ar    1  UNL1        0.1323
     19 C          13.8132   84.5654   25.4063 C.ar    1  UNL1        0.0343
     20 C          14.5130   85.7298   25.0911 C.ar    1  UNL1        0.0087
     21 C          14.9371   85.9748   23.7737 C.ar    1  UNL1        0.0947
     22 C          14.6369   85.0069   22.7901 C.ar    1  UNL1        0.1083
     23 S          15.1330   85.2036   21.0766 S.3     1  UNL1       -0.1228
     24 N          13.9523   83.8830   23.1302 N.ar    1  UNL1       -0.2248
     25 H          16.3567   84.5453   21.2999 H       1  UNL1        0.1086
     26 C          15.6975   87.2378   23.4294 C.3     1  UNL1        0.4204
     27 F          15.8667   88.0037   24.5685 F       1  UNL1       -0.1658
     28 F          16.9378   86.9082   22.9133 F       1  UNL1       -0.1658
     29 F          15.0265   88.0009   22.4891 F       1  UNL1       -0.1658
     30 C           6.5650   74.7179   29.0789 C.3     1  UNL1        0.1535
     31 C           5.6071   75.3504   30.0620 C.2     1  UNL1        0.2443
     32 O           4.8221   74.6112   30.7150 O.2     1  UNL1       -0.2730
     33 N           5.4684   76.7756   30.1716 N.am    1  UNL1       -0.2825
     34 H           4.5246   77.1548   30.4118 H       1  UNL1        0.1549
     35 C           6.5323   77.7101   29.9399 C.ar    1  UNL1        0.0535
     36 C           7.6916   77.6968   30.7294 C.ar    1  UNL1        0.0353
     37 C           8.7005   78.6314   30.4857 C.ar    1  UNL1        0.1002
     38 N           8.5476   79.5591   29.5036 N.ar    1  UNL1       -0.2422
     39 C           7.4233   79.6096   28.7405 C.ar    1  UNL1        0.1002
     40 C           6.3914   78.6917   28.9515 C.ar    1  UNL1        0.0353
     41 C           5.8172   73.7489   28.1421 C.3     1  UNL1        0.0569
     42 C           5.8013   74.2603   26.7294 C.ar    1  UNL1       -0.0017
     43 C           6.4552   73.6977   25.6368 C.ar    1  UNL1        0.0681
     44 N           6.1520   74.3735   24.5051 N.ar    1  UNL1       -0.3523
     45 C           5.3054   75.3513   24.8718 C.ar    1  UNL1        0.0563
     46 C           4.7009   76.2989   24.0466 C.ar    1  UNL1        0.0170
     47 C           3.8271   77.2272   24.6417 C.ar    1  UNL1        0.0015
     48 C           3.5792   77.1873   26.0318 C.ar    1  UNL1        0.0001
     49 C           4.2029   76.2191   26.8392 C.ar    1  UNL1        0.0012
     50 C           5.0648   75.3129   26.2214 C.ar    1  UNL1        0.0131
     51 H           6.4962   74.1652   23.5415 H       1  UNL1        0.1660
@<TRIPOS>BOND
     1     1     2    2
     2     2     3   am
     3     3    30    1
     4    30    41    1
     5    41    42    1
     6    42    43   ar
     7    43    44   ar
     8    44    45   ar
     9    45    46   ar
    10    46    47   ar
    11    47    48   ar
    12    48    49   ar
    13    49    50   ar
    14    30    31    1
    15    31    32    2
    16    31    33   am
    17    33    35    1
    18    35    36   ar
    19    36    37   ar
    20    37    38   ar
    21    38    39   ar
    22    39    40   ar
    23     2     5    1
    24     5     6   ar
    25     6     7   ar
    26     7     8   ar
    27     8    12    1
    28    12    13    1
    29    13    14    1
    30    14    15    1
    31    15    18    1
    32    18    19   ar
    33    19    20   ar
    34    20    21   ar
    35    21    26    1
    36    26    27    1
    37    26    28    1
    38    26    29    1
    39    21    22   ar
    40    22    23    1
    41    22    24   ar
    42    15    16    1
    43    16    17    1
    44     8     9   ar
    45     9    10   ar
    46    10    11    1
    47    50    42   ar
    48    40    35   ar
    49    10     5   ar
    50    50    45   ar
    51    17    12    1
    52    24    18   ar
    53     3     4    1
    54    44    51    1
    55    33    34    1
    56    23    25    1
@<TRIPOS>MOLECULE
*****
 51 56 0 0 0
SMALL
GASTEIGER

@<TRIPOS>ATOM
      1 O          14.5004   82.9074   23.8440 O.2     1  UNL1       -0.2701
      2 C          13.3072   83.1145   24.1981 C.2     1  UNL1        0.2483
      3 N          12.7682   84.4452   24.1470 N.am    1  UNL1       -0.2945
      4 H          11.8488   84.6343   24.6058 H       1  UNL1        0.1501
      5 C          12.4934   81.9833   24.6957 C.ar    1  UNL1        0.0808
      6 C          11.1226   82.1689   24.9355 C.ar    1  UNL1        0.0080
      7 C          10.3327   81.1145   25.3998 C.ar    1  UNL1        0.0148
      8 C          10.8979   79.8509   25.6445 C.ar    1  UNL1        0.0502
      9 C          12.2751   79.6724   25.4261 C.ar    1  UNL1        0.0443
     10 C          13.0680   80.7255   24.9592 C.ar    1  UNL1        0.1457
     11 F          14.4019   80.5219   24.8140 F       1  UNL1       -0.2040
     12 N          10.0830   78.7603   26.1293 N.pl3   1  UNL1       -0.3040
     13 C          10.5354   77.9463   27.2665 C.3     1  UNL1        0.1123
     14 C           9.3408   77.4433   28.0844 C.3     1  UNL1        0.1136
     15 N           8.3123   76.8247   27.2309 N.pl3   1  UNL1       -0.2897
     16 C           8.3904   76.9767   25.7709 C.3     1  UNL1        0.1136
     17 C           8.8600   78.3870   25.4015 C.3     1  UNL1        0.1123
     18 C           7.3098   75.9563   27.8060 C.ar    1  UNL1        0.1323
     19 C           7.1491   74.6328   27.3678 C.ar    1  UNL1        0.0343
     20 C           6.1699   73.8266   27.9474 C.ar    1  UNL1        0.0087
     21 C           5.3429   74.3274   28.9676 C.ar    1  UNL1        0.0947
     22 C           5.5400   75.6620   29.3851 C.ar    1  UNL1        0.1083
     23 S           4.5528   76.4101   30.6838 S.3     1  UNL1       -0.1228
     24 N           6.5027   76.4216   28.7989 N.ar    1  UNL1       -0.2248
     25 H           5.4587   76.0022   31.6806 H       1  UNL1        0.1086
     26 C           4.2797   73.4537   29.5987 C.3     1  UNL1        0.4204
     27 F           4.1942   72.2562   28.9121 F       1  UNL1       -0.1658
     28 F           4.6085   73.2002   30.9181 F       1  UNL1       -0.1658
     29 F           3.0350   74.0593   29.5717 F       1  UNL1       -0.1658
     30 C          13.4784   85.5439   23.4844 C.3     1  UNL1        0.1535
     31 C          13.1462   86.8380   24.1909 C.2     1  UNL1        0.2443
     32 O          13.4155   86.9536   25.4170 O.2     1  UNL1       -0.2730
     33 N          12.4077   87.8851   23.5423 N.am    1  UNL1       -0.2825
     34 H          11.7692   88.4660   24.1314 H       1  UNL1        0.1549
     35 C          12.4659   88.1614   22.1355 C.ar    1  UNL1        0.0535
     36 C          11.8360   87.3203   21.2063 C.ar    1  UNL1        0.0353
     37 C          11.9265   87.6112   19.8433 C.ar    1  UNL1        0.1002
     38 N          12.6382   88.6905   19.4224 N.ar    1  UNL1       -0.2422
     39 C          13.2788   89.5076   20.3004 C.ar    1  UNL1        0.1002
     40 C          13.2118   89.2520   21.6723 C.ar    1  UNL1        0.0353
     41 C          15.0002   85.2988   23.4920 C.3     1  UNL1        0.0569
     42 C          15.7061   86.2262   22.5438 C.ar    1  UNL1       -0.0017
     43 C          15.4697   86.3526   21.1778 C.ar    1  UNL1        0.0681
     44 N          16.2300   87.3421   20.6560 N.ar    1  UNL1       -0.3523
     45 C          16.9370   87.8476   21.6816 C.ar    1  UNL1        0.0563
     46 C          17.8484   88.9020   21.6410 C.ar    1  UNL1        0.0170
     47 C          18.4669   89.2832   22.8458 C.ar    1  UNL1        0.0015
     48 C          18.1632   88.6106   24.0502 C.ar    1  UNL1        0.0001
     49 C          17.2386   87.5507   24.0607 C.ar    1  UNL1        0.0012
     50 C          16.6424   87.1945   22.8511 C.ar    1  UNL1        0.0131
     51 H          16.2497   87.6563   19.6603 H       1  UNL1        0.1660
@<TRIPOS>BOND
     1     1     2    2
     2     2     3   am
     3     3    30    1
     4    30    41    1
     5    41    42    1
     6    42    43   ar
     7    43    44   ar
     8    44    45   ar
     9    45    46   ar
    10    46    47   ar
    11    47    48   ar
    12    48    49   ar
    13    49    50   ar
    14    30    31    1
    15    31    32    2
    16    31    33   am
    17    33    35    1
    18    35    36   ar
    19    36    37   ar
    20    37    38   ar
    21    38    39   ar
    22    39    40   ar
    23     2     5    1
    24     5     6   ar
    25     6     7   ar
    26     7     8   ar
    27     8    12    1
    28    12    13    1
    29    13    14    1
    30    14    15    1
    31    15    18    1
    32    18    19   ar
    33    19    20   ar
    34    20    21   ar
    35    21    26    1
    36    26    27    1
    37    26    28    1
    38    26    29    1
    39    21    22   ar
    40    22    23    1
    41    22    24   ar
    42    15    16    1
    43    16    17    1
    44     8     9   ar
    45     9    10   ar
    46    10    11    1
    47    50    42   ar
    48    40    35   ar
    49    10     5   ar
    50    50    45   ar
    51    17    12    1
    52    24    18   ar
    53     3     4    1
    54    44    51    1
    55    33    34    1
    56    23    25    1
@<TRIPOS>MOLECULE
*****
 51 56 0 0 0
SMALL
GASTEIGER

@<TRIPOS>ATOM
      1 O          10.0004   75.1967   21.2070 O.2     1  UNL1       -0.2701
      2 C           9.2827   75.9534   21.9171 C.2     1  UNL1        0.2483
      3 N           7.8632   75.7405   21.9776 N.am    1  UNL1       -0.2945
      4 H           7.2624   76.4721   22.4194 H       1  UNL1        0.1501
      5 C           9.9152   77.0732   22.6490 C.ar    1  UNL1        0.0808
      6 C          11.0540   76.8323   23.4339 C.ar    1  UNL1        0.0080
      7 C          11.6719   77.8745   24.1292 C.ar    1  UNL1        0.0148
      8 C          11.1590   79.1816   24.0633 C.ar    1  UNL1        0.0502
      9 C          10.0051   79.4173   23.2957 C.ar    1  UNL1        0.0443
     10 C           9.3856   78.3765   22.5968 C.ar    1  UNL1        0.1457
     11 F           8.2438   78.6404   21.9123 F       1  UNL1       -0.2040
     12 N          11.7943   80.2600   24.7859 N.pl3   1  UNL1       -0.3040
     13 C          13.2555   80.2870   24.9423 C.3     1  UNL1        0.1123
     14 C          13.7704   81.7297   24.9917 C.3     1  UNL1        0.1136
     15 N          13.0142   82.5502   25.9529 N.pl3   1  UNL1       -0.2897
     16 C          11.7655   82.0309   26.5288 C.3     1  UNL1        0.1136
     17 C          10.9650   81.2627   25.4728 C.3     1  UNL1        0.1123
     18 C          13.5601   83.7977   26.4384 C.ar    1  UNL1        0.1323
     19 C          13.9109   83.9679   27.7866 C.ar    1  UNL1        0.0343
     20 C          14.4340   85.1871   28.2163 C.ar    1  UNL1        0.0087
     21 C          14.6143   86.2469   27.3108 C.ar    1  UNL1        0.0947
     22 C          14.2553   86.0342   25.9617 C.ar    1  UNL1        0.1083
     23 S          14.4471   87.3078   24.7120 S.3     1  UNL1       -0.1228
     24 N          13.7470   84.8341   25.5755 N.ar    1  UNL1       -0.2248
     25 H          15.7491   86.8764   24.3962 H       1  UNL1        0.1086
     26 C          15.1827   87.5711   27.7750 C.3     1  UNL1        0.4204
     27 F          14.2779   88.5833   27.5116 F       1  UNL1       -0.1658
     28 F          15.4276   87.5212   29.1354 F       1  UNL1       -0.1658
     29 F          16.3712   87.8732   27.1322 F       1  UNL1       -0.1658
     30 C           7.2361   74.5358   21.4241 C.3     1  UNL1        0.1535
     31 C           7.4969   73.3756   22.3569 C.2     1  UNL1        0.2443
     32 O           7.9604   72.3023   21.8855 O.2     1  UNL1       -0.2730
     33 N           7.1023   73.4124   23.7373 N.am    1  UNL1       -0.2825
     34 H           6.8068   72.5141   24.1821 H       1  UNL1        0.1549
     35 C           7.0566   74.6063   24.5319 C.ar    1  UNL1        0.0535
     36 C           8.2110   75.1086   25.1503 C.ar    1  UNL1        0.0353
     37 C           8.1265   76.2646   25.9295 C.ar    1  UNL1        0.1002
     38 N           6.9286   76.8839   26.1024 N.ar    1  UNL1       -0.2422
     39 C           5.7901   76.4039   25.5346 C.ar    1  UNL1        0.1002
     40 C           5.8323   75.2509   24.7468 C.ar    1  UNL1        0.0353
     41 C           5.7212   74.7441   21.2301 C.3     1  UNL1        0.0569
     42 C           5.3856   76.2016   21.0872 C.ar    1  UNL1       -0.0017
     43 C           5.9752   77.1058   20.2081 C.ar    1  UNL1        0.0681
     44 N           5.3685   78.3117   20.2929 N.ar    1  UNL1       -0.3523
     45 C           4.3955   78.1743   21.2103 C.ar    1  UNL1        0.0563
     46 C           3.4852   79.1444   21.6279 C.ar    1  UNL1        0.0170
     47 C           2.5305   78.7777   22.5941 C.ar    1  UNL1        0.0015
     48 C           2.5068   77.4646   23.1143 C.ar    1  UNL1        0.0001
     49 C           3.4374   76.5067   22.6732 C.ar    1  UNL1        0.0012
     50 C           4.3724   76.8996   21.7157 C.ar    1  UNL1        0.0131
     51 H           5.6022   79.1688   19.7442 H       1  UNL1        0.1660
@<TRIPOS>BOND
     1     1     2    2
     2     2     3   am
     3     3    30    1
     4    30    41    1
     5    41    42    1
     6    42    43   ar
     7    43    44   ar
     8    44    45   ar
     9    45    46   ar
    10    46    47   ar
    11    47    48   ar
    12    48    49   ar
    13    49    50   ar
    14    30    31    1
    15    31    32    2
    16    31    33   am
    17    33    35    1
    18    35    36   ar
    19    36    37   ar
    20    37    38   ar
    21    38    39   ar
    22    39    40   ar
    23     2     5    1
    24     5     6   ar
    25     6     7   ar
    26     7     8   ar
    27     8    12    1
    28    12    13    1
    29    13    14    1
    30    14    15    1
    31    15    18    1
    32    18    19   ar
    33    19    20   ar
    34    20    21   ar
    35    21    26    1
    36    26    27    1
    37    26    28    1
    38    26    29    1
    39    21    22   ar
    40    22    23    1
    41    22    24   ar
    42    15    16    1
    43    16    17    1
    44     8     9   ar
    45     9    10   ar
    46    10    11    1
    47    50    42   ar
    48    40    35   ar
    49    10     5   ar
    50    50    45   ar
    51    17    12    1
    52    24    18   ar
    53     3     4    1
    54    44    51    1
    55    33    34    1
    56    23    25    1
@<TRIPOS>MOLECULE
*****
 51 56 0 0 0
SMALL
GASTEIGER

@<TRIPOS>ATOM
      1 O          14.3744   82.8348   23.9394 O.2     1  UNL1       -0.2701
      2 C          13.2276   83.0337   24.4264 C.2     1  UNL1        0.2483
      3 N          12.7499   84.3772   24.6022 N.am    1  UNL1       -0.2945
      4 H          11.8838   84.5344   25.1649 H       1  UNL1        0.1501
      5 C          12.4071   81.8748   24.8425 C.ar    1  UNL1        0.0808
      6 C          11.0355   82.0490   25.0863 C.ar    1  UNL1        0.0080
      7 C          10.2394   80.9687   25.4746 C.ar    1  UNL1        0.0148
      8 C          10.7990   79.6896   25.6374 C.ar    1  UNL1        0.0502
      9 C          12.1769   79.5210   25.4154 C.ar    1  UNL1        0.0443
     10 C          12.9760   80.6001   25.0247 C.ar    1  UNL1        0.1457
     11 F          14.3101   80.4018   24.8738 F       1  UNL1       -0.2040
     12 N           9.9777   78.5719   26.0435 N.pl3   1  UNL1       -0.3040
     13 C          10.4464   77.6489   27.0869 C.3     1  UNL1        0.1123
     14 C           9.2659   77.0915   27.8899 C.3     1  UNL1        0.1136
     15 N           8.2025   76.5714   27.0138 N.pl3   1  UNL1       -0.2897
     16 C           8.2425   76.8567   25.5723 C.3     1  UNL1        0.1136
     17 C           8.7280   78.2875   25.3208 C.3     1  UNL1        0.1123
     18 C           7.2003   75.6696   27.5358 C.ar    1  UNL1        0.1323
     19 C           7.1206   74.3359   27.1063 C.ar    1  UNL1        0.0343
     20 C           6.1389   73.4973   27.6334 C.ar    1  UNL1        0.0087
     21 C           5.2291   73.9755   28.5920 C.ar    1  UNL1        0.0947
     22 C           5.3460   75.3216   29.0030 C.ar    1  UNL1        0.1083
     23 S           4.2487   76.0436   30.2259 S.3     1  UNL1       -0.1228
     24 N           6.3135   76.1129   28.4689 N.ar    1  UNL1       -0.2248
     25 H           5.1044   75.6837   31.2838 H       1  UNL1        0.1086
     26 C           4.1630   73.0668   29.1661 C.3     1  UNL1        0.4204
     27 F           4.1954   73.1270   30.5475 F       1  UNL1       -0.1658
     28 F           2.9174   73.4715   28.7212 F       1  UNL1       -0.1658
     29 F           4.3516   71.7493   28.7847 F       1  UNL1       -0.1658
     30 C          13.4515   85.5302   24.0285 C.3     1  UNL1        0.1535
     31 C          14.3600   86.1235   25.0806 C.2     1  UNL1        0.2443
     32 O          14.4744   85.5391   26.1917 O.2     1  UNL1       -0.2730
     33 N          14.9860   87.4037   24.9037 N.am    1  UNL1       -0.2825
     34 H          15.1360   87.9928   25.7538 H       1  UNL1        0.1549
     35 C          15.3870   87.9373   23.6334 C.ar    1  UNL1        0.0535
     36 C          16.5407   87.4726   22.9851 C.ar    1  UNL1        0.0353
     37 C          16.9096   88.0258   21.7568 C.ar    1  UNL1        0.1002
     38 N          16.1652   89.0217   21.2068 N.ar    1  UNL1       -0.2422
     39 C          15.0565   89.5074   21.8262 C.ar    1  UNL1        0.1002
     40 C          14.6529   88.9802   23.0555 C.ar    1  UNL1        0.0353
     41 C          14.2623   85.1172   22.7843 C.3     1  UNL1        0.0569
     42 C          13.6872   85.7207   21.5343 C.ar    1  UNL1       -0.0017
     43 C          12.7014   86.7012   21.4647 C.ar    1  UNL1        0.0681
     44 N          12.4877   87.0664   20.1801 N.ar    1  UNL1       -0.3523
     45 C          13.3361   86.3326   19.4392 C.ar    1  UNL1        0.0563
     46 C          13.4988   86.3707   18.0549 C.ar    1  UNL1        0.0170
     47 C          14.4651   85.5231   17.4828 C.ar    1  UNL1        0.0015
     48 C          15.2387   84.6673   18.2978 C.ar    1  UNL1        0.0001
     49 C          15.0530   84.6511   19.6919 C.ar    1  UNL1        0.0012
     50 C          14.0872   85.5014   20.2303 C.ar    1  UNL1        0.0131
     51 H          11.8105   87.7843   19.8388 H       1  UNL1        0.1660
@<TRIPOS>BOND
     1     1     2    2
     2     2     3   am
     3     3    30    1
     4    30    41    1
     5    41    42    1
     6    42    43   ar
     7    43    44   ar
     8    44    45   ar
     9    45    46   ar
    10    46    47   ar
    11    47    48   ar
    12    48    49   ar
    13    49    50   ar
    14    30    31    1
    15    31    32    2
    16    31    33   am
    17    33    35    1
    18    35    36   ar
    19    36    37   ar
    20    37    38   ar
    21    38    39   ar
    22    39    40   ar
    23     2     5    1
    24     5     6   ar
    25     6     7   ar
    26     7     8   ar
    27     8    12    1
    28    12    13    1
    29    13    14    1
    30    14    15    1
    31    15    18    1
    32    18    19   ar
    33    19    20   ar
    34    20    21   ar
    35    21    26    1
    36    26    27    1
    37    26    28    1
    38    26    29    1
    39    21    22   ar
    40    22    23    1
    41    22    24   ar
    42    15    16    1
    43    16    17    1
    44     8     9   ar
    45     9    10   ar
    46    10    11    1
    47    50    42   ar
    48    40    35   ar
    49    10     5   ar
    50    50    45   ar
    51    17    12    1
    52    24    18   ar
    53     3     4    1
    54    44    51    1
    55    33    34    1
    56    23    25    1
@<TRIPOS>MOLECULE
*****
 51 56 0 0 0
SMALL
GASTEIGER

@<TRIPOS>ATOM
      1 O          12.4387   75.2759   23.1610 O.2     1  UNL1       -0.2701
      2 C          11.4238   75.8848   23.5982 C.2     1  UNL1        0.2483
      3 N          11.5453   76.7452   24.7422 N.am    1  UNL1       -0.2945
      4 H          10.6760   77.0999   25.2004 H       1  UNL1        0.1501
      5 C          10.1142   75.6718   22.9430 C.ar    1  UNL1        0.0808
      6 C           9.3815   76.7778   22.4836 C.ar    1  UNL1        0.0080
      7 C           8.1456   76.6014   21.8568 C.ar    1  UNL1        0.0148
      8 C           7.6087   75.3139   21.6832 C.ar    1  UNL1        0.0502
      9 C           8.3324   74.2089   22.1643 C.ar    1  UNL1        0.0443
     10 C           9.5709   74.3822   22.7902 C.ar    1  UNL1        0.1457
     11 F          10.2085   73.2915   23.2861 F       1  UNL1       -0.2040
     12 N           6.3280   75.1301   21.0392 N.pl3   1  UNL1       -0.3040
     13 C           5.9760   73.8313   20.4480 C.3     1  UNL1        0.1123
     14 C           4.4665   73.5826   20.5414 C.3     1  UNL1        0.1136
     15 N           3.6890   74.7339   20.0525 N.pl3   1  UNL1       -0.2897
     16 C           4.3659   76.0133   19.7964 C.3     1  UNL1        0.1136
     17 C           5.4296   76.2822   20.8652 C.3     1  UNL1        0.1123
     18 C           2.2981   74.5768   19.6911 C.ar    1  UNL1        0.1323
     19 C           1.5933   75.5960   19.0321 C.ar    1  UNL1        0.0343
     20 C           0.2520   75.4064   18.7008 C.ar    1  UNL1        0.0087
     21 C          -0.4004   74.2030   19.0201 C.ar    1  UNL1        0.0947
     22 C           0.3448   73.1996   19.6776 C.ar    1  UNL1        0.1083
     23 S          -0.3754   71.6189   20.1288 S.3     1  UNL1       -0.1228
     24 N           1.6504   73.4165   19.9873 N.ar    1  UNL1       -0.2248
     25 H          -0.0048   71.0395   18.9010 H       1  UNL1        0.1086
     26 C          -1.8562   73.9948   18.6609 C.3     1  UNL1        0.4204
     27 F          -1.9945   72.8210   17.9427 F       1  UNL1       -0.1658
     28 F          -2.6136   73.9147   19.8155 F       1  UNL1       -0.1658
     29 F          -2.3490   75.0349   17.8914 F       1  UNL1       -0.1658
     30 C          12.8513   77.1246   25.2910 C.3     1  UNL1        0.1535
     31 C          13.6058   77.9221   24.2523 C.2     1  UNL1        0.2443
     32 O          14.5347   77.3649   23.6074 O.2     1  UNL1       -0.2730
     33 N          13.3895   79.3310   24.0774 N.am    1  UNL1       -0.2825
     34 H          14.2069   79.9162   23.7917 H       1  UNL1        0.1549
     35 C          12.1341   79.9887   24.3018 C.ar    1  UNL1        0.0535
     36 C          10.9764   79.5909   23.6170 C.ar    1  UNL1        0.0353
     37 C           9.7747   80.2640   23.8488 C.ar    1  UNL1        0.1002
     38 N           9.7356   81.3099   24.7165 N.ar    1  UNL1       -0.2422
     39 C          10.8485   81.7315   25.3743 C.ar    1  UNL1        0.1002
     40 C          12.0699   81.0842   25.1714 C.ar    1  UNL1        0.0353
     41 C          12.6865   77.9431   26.5867 C.3     1  UNL1        0.0569
     42 C          11.3095   77.7772   27.1645 C.ar    1  UNL1       -0.0017
     43 C          10.2478   78.6698   27.0464 C.ar    1  UNL1        0.0681
     44 N           9.1345   78.1588   27.6200 N.ar    1  UNL1       -0.3523
     45 C           9.4812   76.9482   28.0905 C.ar    1  UNL1        0.0563
     46 C           8.6620   76.0308   28.7473 C.ar    1  UNL1        0.0170
     47 C           9.2306   74.8056   29.1410 C.ar    1  UNL1        0.0015
     48 C          10.5890   74.5277   28.8714 C.ar    1  UNL1        0.0001
     49 C          11.3911   75.4723   28.2061 C.ar    1  UNL1        0.0012
     50 C          10.8002   76.6782   27.8290 C.ar    1  UNL1        0.0131
     51 H           8.1944   78.6105   27.6714 H       1  UNL1        0.1660
@<TRIPOS>BOND
     1     1     2    2
     2     2     3   am
     3     3    30    1
     4    30    41    1
     5    41    42    1
     6    42    43   ar
     7    43    44   ar
     8    44    45   ar
     9    45    46   ar
    10    46    47   ar
    11    47    48   ar
    12    48    49   ar
    13    49    50   ar
    14    30    31    1
    15    31    32    2
    16    31    33   am
    17    33    35    1
    18    35    36   ar
    19    36    37   ar
    20    37    38   ar
    21    38    39   ar
    22    39    40   ar
    23     2     5    1
    24     5     6   ar
    25     6     7   ar
    26     7     8   ar
    27     8    12    1
    28    12    13    1
    29    13    14    1
    30    14    15    1
    31    15    18    1
    32    18    19   ar
    33    19    20   ar
    34    20    21   ar
    35    21    26    1
    36    26    27    1
    37    26    28    1
    38    26    29    1
    39    21    22   ar
    40    22    23    1
    41    22    24   ar
    42    15    16    1
    43    16    17    1
    44     8     9   ar
    45     9    10   ar
    46    10    11    1
    47    50    42   ar
    48    40    35   ar
    49    10     5   ar
    50    50    45   ar
    51    17    12    1
    52    24    18   ar
    53     3     4    1
    54    44    51    1
    55    33    34    1
    56    23    25    1
@<TRIPOS>MOLECULE
*****
 51 56 0 0 0
SMALL
GASTEIGER

@<TRIPOS>ATOM
      1 O          14.2209   83.7122   25.7049 O.2     1  UNL1       -0.2701
      2 C          13.5827   83.1655   24.7638 C.2     1  UNL1        0.2483
      3 N          13.6750   83.7002   23.4336 N.am    1  UNL1       -0.2945
      4 H          13.0110   83.3550   22.7046 H       1  UNL1        0.1501
      5 C          12.7189   82.0002   25.0563 C.ar    1  UNL1        0.0808
      6 C          11.3616   82.2014   25.3536 C.ar    1  UNL1        0.0080
      7 C          10.5252   81.1166   25.6274 C.ar    1  UNL1        0.0148
      8 C          11.0295   79.8045   25.6197 C.ar    1  UNL1        0.0502
      9 C          12.3938   79.6060   25.3446 C.ar    1  UNL1        0.0443
     10 C          13.2330   80.6898   25.0681 C.ar    1  UNL1        0.1457
     11 F          14.5536   80.4549   24.8610 F       1  UNL1       -0.2040
     12 N          10.1666   78.6814   25.9073 N.pl3   1  UNL1       -0.3040
     13 C          10.7157   77.4630   26.5191 C.3     1  UNL1        0.1123
     14 C           9.6717   76.7860   27.4140 C.3     1  UNL1        0.1136
     15 N           8.3803   76.6233   26.7250 N.pl3   1  UNL1       -0.2897
     16 C           8.1454   77.3110   25.4472 C.3     1  UNL1        0.1136
     17 C           8.7621   78.7129   25.4699 C.3     1  UNL1        0.1123
     18 C           7.3986   75.6860   27.2227 C.ar    1  UNL1        0.1323
     19 C           7.0667   74.5248   26.5078 C.ar    1  UNL1        0.0343
     20 C           6.1139   73.6454   27.0212 C.ar    1  UNL1        0.0087
     21 C           5.4835   73.9111   28.2490 C.ar    1  UNL1        0.0947
     22 C           5.8493   75.0866   28.9410 C.ar    1  UNL1        0.1083
     23 S           5.1208   75.5287   30.5205 S.3     1  UNL1       -0.1228
     24 N           6.7810   75.9234   28.4126 N.ar    1  UNL1       -0.2248
     25 H           6.1199   74.8405   31.2340 H       1  UNL1        0.1086
     26 C           4.4493   72.9576   28.8085 C.3     1  UNL1        0.4204
     27 F           3.1904   73.3292   28.3728 F       1  UNL1       -0.1658
     28 F           4.7201   71.6717   28.3767 F       1  UNL1       -0.1658
     29 F           4.4468   72.9575   30.1930 F       1  UNL1       -0.1658
     30 C          14.6619   84.7248   23.0771 C.3     1  UNL1        0.1535
     31 C          15.1166   84.4925   21.6546 C.2     1  UNL1        0.2443
     32 O          15.6905   83.4083   21.3639 O.2     1  UNL1       -0.2730
     33 N          15.0397   85.5242   20.6586 N.am    1  UNL1       -0.2825
     34 H          15.7808   85.5445   19.9220 H       1  UNL1        0.1549
     35 C          14.0322   86.5455   20.6308 C.ar    1  UNL1        0.0535
     36 C          12.6867   86.2281   20.3931 C.ar    1  UNL1        0.0353
     37 C          11.7350   87.2497   20.3574 C.ar    1  UNL1        0.1002
     38 N          12.1164   88.5431   20.5312 N.ar    1  UNL1       -0.2422
     39 C          13.4173   88.8802   20.7383 C.ar    1  UNL1        0.1002
     40 C          14.3999   87.8880   20.7824 C.ar    1  UNL1        0.0353
     41 C          14.0669   86.1384   23.2307 C.3     1  UNL1        0.0569
     42 C          14.7449   86.8977   24.3359 C.ar    1  UNL1       -0.0017
     43 C          14.2631   87.0875   25.6281 C.ar    1  UNL1        0.0681
     44 N          15.1731   87.7482   26.3796 N.ar    1  UNL1       -0.3523
     45 C          16.2284   87.9688   25.5765 C.ar    1  UNL1        0.0563
     46 C          17.4251   88.6024   25.9090 C.ar    1  UNL1        0.0170
     47 C          18.4112   88.7103   24.9113 C.ar    1  UNL1        0.0015
     48 C          18.1820   88.1876   23.6192 C.ar    1  UNL1        0.0001
     49 C          16.9650   87.5526   23.3130 C.ar    1  UNL1        0.0012
     50 C          16.0060   87.4616   24.3218 C.ar    1  UNL1        0.0131
     51 H          15.0772   88.0172   27.3840 H       1  UNL1        0.1660
@<TRIPOS>BOND
     1     1     2    2
     2     2     3   am
     3     3    30    1
     4    30    41    1
     5    41    42    1
     6    42    43   ar
     7    43    44   ar
     8    44    45   ar
     9    45    46   ar
    10    46    47   ar
    11    47    48   ar
    12    48    49   ar
    13    49    50   ar
    14    30    31    1
    15    31    32    2
    16    31    33   am
    17    33    35    1
    18    35    36   ar
    19    36    37   ar
    20    37    38   ar
    21    38    39   ar
    22    39    40   ar
    23     2     5    1
    24     5     6   ar
    25     6     7   ar
    26     7     8   ar
    27     8    12    1
    28    12    13    1
    29    13    14    1
    30    14    15    1
    31    15    18    1
    32    18    19   ar
    33    19    20   ar
    34    20    21   ar
    35    21    26    1
    36    26    27    1
    37    26    28    1
    38    26    29    1
    39    21    22   ar
    40    22    23    1
    41    22    24   ar
    42    15    16    1
    43    16    17    1
    44     8     9   ar
    45     9    10   ar
    46    10    11    1
    47    50    42   ar
    48    40    35   ar
    49    10     5   ar
    50    50    45   ar
    51    17    12    1
    52    24    18   ar
    53     3     4    1
    54    44    51    1
    55    33    34    1
    56    23    25    1
