@<TRIPOS>MOLECULE
*****
 24 27 0 0 0
SMALL
GASTEIGER

@<TRIPOS>ATOM
      1 C         -23.6126  -12.6115  -16.4985 C.3     1  UNL1        0.1420
      2 O         -24.0340  -12.0899  -17.7365 O.3     1  UNL1       -0.3753
      3 C         -22.0850  -12.8857  -16.5345 C.3     1  UNL1        0.0395
      4 C         -21.5138  -12.4626  -15.1670 C.3     1  UNL1        0.0036
      5 C         -22.7406  -12.1336  -14.3244 C.3     1  UNL1        0.0035
      6 C         -22.5780  -11.2217  -13.0920 C.3     1  UNL1        0.0045
      7 C         -21.5247  -11.7570  -12.1136 C.3     1  UNL1        0.0050
      8 C         -21.2941  -10.7423  -10.9910 C.3     1  UNL1        0.0261
      9 C         -22.5735  -10.1691  -10.4209 C.ar    1  UNL1       -0.0231
     10 C         -22.4849   -9.4383   -9.2248 C.ar    1  UNL1        0.0320
     11 C         -23.6178   -8.8543   -8.6590 C.ar    1  UNL1        0.1333
     12 O         -23.5020   -8.1386   -7.4693 O.3     1  UNL1       -0.5055
     13 C         -24.8564   -8.9962   -9.2869 C.ar    1  UNL1        0.0363
     14 C         -24.9627   -9.7094  -10.4818 C.ar    1  UNL1       -0.0015
     15 C         -23.8229  -10.2764  -11.0932 C.ar    1  UNL1       -0.0263
     16 C         -23.9471  -11.1355  -12.3536 C.3     1  UNL1        0.0220
     17 C         -25.0903  -10.6938  -13.3188 C.3     1  UNL1        0.0045
     18 C         -25.1456  -11.5323  -14.6213 C.3     1  UNL1        0.0035
     19 C         -23.7668  -11.5855  -15.3293 C.3     1  UNL1        0.0333
     20 C         -23.4117  -10.1552  -15.8618 C.3     1  UNL1        0.0033
     21 H         -25.0021  -11.8807  -17.6567 H       1  UNL1        0.2114
     22 H         -24.3061   -7.7036   -7.0322 H       1  UNL1        0.2922
     23 C         -24.9058  -14.9267  -16.0432 C.1     1  UNL1       -0.0119
     24 C         -24.3273  -13.8887  -16.2481 C.1     1  UNL1       -0.0526
@<TRIPOS>BOND
     1    23    24    3
     2     1    24    1
     3     1     2    1
     4     1     3    1
     5     3     4    1
     6     4     5    1
     7     5     6    1
     8     6     7    1
     9     7     8    1
    10     8     9    1
    11     9    10   ar
    12    10    11   ar
    13    11    12    1
    14    11    13   ar
    15    13    14   ar
    16    14    15   ar
    17    15    16    1
    18    16    17    1
    19    17    18    1
    20    18    19    1
    21    19    20    1
    22    19     1    1
    23    19     5    1
    24    16     6    1
    25    15     9   ar
    26     2    21    1
    27    12    22    1
@<TRIPOS>MOLECULE
*****
 24 27 0 0 0
SMALL
GASTEIGER

@<TRIPOS>ATOM
      1 C         -24.1781  -12.4284  -15.3171 C.3     1  UNL1        0.1420
      2 O         -24.6568  -11.9754  -16.5612 O.3     1  UNL1       -0.3753
      3 C         -22.9285  -13.3250  -15.5279 C.3     1  UNL1        0.0395
      4 C         -21.9250  -12.9779  -14.4108 C.3     1  UNL1        0.0036
      5 C         -22.6890  -12.0351  -13.4886 C.3     1  UNL1        0.0035
      6 C         -21.8969  -11.0995  -12.5537 C.3     1  UNL1        0.0045
      7 C         -20.9228  -11.8721  -11.6551 C.3     1  UNL1        0.0050
      8 C         -20.0576  -10.8904  -10.8609 C.3     1  UNL1        0.0261
      9 C         -20.8419   -9.7493  -10.2500 C.ar    1  UNL1       -0.0231
     10 C         -20.1936   -8.9497   -9.2946 C.ar    1  UNL1        0.0320
     11 C         -20.8442   -7.8616   -8.7137 C.ar    1  UNL1        0.1333
     12 O         -20.1788   -7.0881   -7.7651 O.3     1  UNL1       -0.5055
     13 C         -22.1560   -7.5613   -9.0844 C.ar    1  UNL1        0.0363
     14 C         -22.8132   -8.3374  -10.0401 C.ar    1  UNL1       -0.0015
     15 C         -22.1611   -9.4202  -10.6698 C.ar    1  UNL1       -0.0263
     16 C         -22.9057  -10.3294  -11.6503 C.3     1  UNL1        0.0220
     17 C         -23.9923   -9.6002  -12.4995 C.3     1  UNL1        0.0045
     18 C         -24.6779  -10.5265  -13.5361 C.3     1  UNL1        0.0035
     19 C         -23.6405  -11.2665  -14.4200 C.3     1  UNL1        0.0333
     20 C         -22.9089  -10.2220  -15.3304 C.3     1  UNL1        0.0033
     21 H         -25.4214  -11.3668  -16.3817 H       1  UNL1        0.2114
     22 H         -20.6242   -6.2920   -7.3237 H       1  UNL1        0.2922
     23 C         -26.1023  -13.8781  -14.1189 C.1     1  UNL1       -0.0119
     24 C         -25.2410  -13.2277  -14.6566 C.1     1  UNL1       -0.0526
@<TRIPOS>BOND
     1    23    24    3
     2     1    24    1
     3     1     2    1
     4     1     3    1
     5     3     4    1
     6     4     5    1
     7     5     6    1
     8     6     7    1
     9     7     8    1
    10     8     9    1
    11     9    10   ar
    12    10    11   ar
    13    11    12    1
    14    11    13   ar
    15    13    14   ar
    16    14    15   ar
    17    15    16    1
    18    16    17    1
    19    17    18    1
    20    18    19    1
    21    19    20    1
    22    19     1    1
    23    19     5    1
    24    16     6    1
    25    15     9   ar
    26     2    21    1
    27    12    22    1
@<TRIPOS>MOLECULE
*****
 24 27 0 0 0
SMALL
GASTEIGER

@<TRIPOS>ATOM
      1 C         -23.1711  -13.0350  -15.3770 C.3     1  UNL1        0.1420
      2 O         -23.3037  -12.9919  -16.7780 O.3     1  UNL1       -0.3753
      3 C         -21.9585  -13.9235  -14.9894 C.3     1  UNL1        0.0395
      4 C         -21.2434  -13.2305  -13.8131 C.3     1  UNL1        0.0036
      5 C         -22.1586  -12.0709  -13.4378 C.3     1  UNL1        0.0035
      6 C         -21.5714  -10.8774  -12.6582 C.3     1  UNL1        0.0045
      7 C         -20.8917  -11.3180  -11.3555 C.3     1  UNL1        0.0050
      8 C         -20.1966  -10.1216  -10.7009 C.3     1  UNL1        0.0261
      9 C         -21.0441   -8.8680  -10.6766 C.ar    1  UNL1       -0.0231
     10 C         -20.6084   -7.8012   -9.8735 C.ar    1  UNL1        0.0320
     11 C         -21.3220   -6.6041   -9.8274 C.ar    1  UNL1        0.1333
     12 O         -20.8695   -5.5638   -9.0186 O.3     1  UNL1       -0.5055
     13 C         -22.4839   -6.4613  -10.5876 C.ar    1  UNL1        0.0363
     14 C         -22.9269   -7.5060  -11.4001 C.ar    1  UNL1       -0.0015
     15 C         -22.1995   -8.7130  -11.4924 C.ar    1  UNL1       -0.0263
     16 C         -22.7282   -9.8938  -12.3099 C.3     1  UNL1        0.0220
     17 C         -23.5313   -9.4824  -13.5824 C.3     1  UNL1        0.0045
     18 C         -23.9899  -10.6952  -14.4317 C.3     1  UNL1        0.0035
     19 C         -22.8086  -11.6436  -14.7638 C.3     1  UNL1        0.0333
     20 C         -21.8200  -10.9070  -15.7310 C.3     1  UNL1        0.0033
     21 H         -24.0548  -12.3758  -16.9866 H       1  UNL1        0.2114
     22 H         -21.3660   -4.6822   -8.9620 H       1  UNL1        0.2922
     23 C         -25.4075  -14.1000  -14.3262 C.1     1  UNL1       -0.0119
     24 C         -24.4055  -13.6215  -14.7964 C.1     1  UNL1       -0.0526
@<TRIPOS>BOND
     1    23    24    3
     2     1    24    1
     3     1     2    1
     4     1     3    1
     5     3     4    1
     6     4     5    1
     7     5     6    1
     8     6     7    1
     9     7     8    1
    10     8     9    1
    11     9    10   ar
    12    10    11   ar
    13    11    12    1
    14    11    13   ar
    15    13    14   ar
    16    14    15   ar
    17    15    16    1
    18    16    17    1
    19    17    18    1
    20    18    19    1
    21    19    20    1
    22    19     1    1
    23    19     5    1
    24    16     6    1
    25    15     9   ar
    26     2    21    1
    27    12    22    1
@<TRIPOS>MOLECULE
*****
 24 27 0 0 0
SMALL
GASTEIGER

@<TRIPOS>ATOM
      1 C         -22.1784   -7.8205  -11.7598 C.3     1  UNL1        0.1420
      2 O         -21.5730   -7.7739  -10.4896 O.3     1  UNL1       -0.3753
      3 C         -21.1592   -7.3824  -12.8458 C.3     1  UNL1        0.0395
      4 C         -21.3647   -8.3059  -14.0625 C.3     1  UNL1        0.0036
      5 C         -22.6065   -9.1205  -13.7199 C.3     1  UNL1        0.0035
      6 C         -22.8410  -10.4638  -14.4394 C.3     1  UNL1        0.0045
      7 C         -22.8461  -10.3072  -15.9654 C.3     1  UNL1        0.0050
      8 C         -22.9289  -11.6839  -16.6294 C.3     1  UNL1        0.0261
      9 C         -23.9583  -12.5982  -16.0011 C.ar    1  UNL1       -0.0231
     10 C         -24.2957  -13.7734  -16.6922 C.ar    1  UNL1        0.0320
     11 C         -25.2126  -14.6781  -16.1578 C.ar    1  UNL1        0.1333
     12 O         -25.5323  -15.8338  -16.8670 O.3     1  UNL1       -0.5055
     13 C         -25.8039  -14.4149  -14.9211 C.ar    1  UNL1        0.0363
     14 C         -25.4733  -13.2579  -14.2142 C.ar    1  UNL1       -0.0015
     15 C         -24.5188  -12.3469  -14.7176 C.ar    1  UNL1       -0.0263
     16 C         -24.2201  -11.0333  -13.9914 C.3     1  UNL1        0.0220
     17 C         -24.3237  -11.1236  -12.4375 C.3     1  UNL1        0.0045
     18 C         -23.9431   -9.8012  -11.7239 C.3     1  UNL1        0.0035
     19 C         -22.5616   -9.2734  -12.1908 C.3     1  UNL1        0.0333
     20 C         -21.4466  -10.2577  -11.6976 C.3     1  UNL1        0.0033
     21 H         -22.2377   -8.1085   -9.8312 H       1  UNL1        0.2114
     22 H         -26.1956  -16.5101  -16.5068 H       1  UNL1        0.2922
     23 C         -24.2697   -6.1278  -11.7903 C.1     1  UNL1       -0.0119
     24 C         -23.3328   -6.8868  -11.7753 C.1     1  UNL1       -0.0526
@<TRIPOS>BOND
     1    23    24    3
     2     1    24    1
     3     1     2    1
     4     1     3    1
     5     3     4    1
     6     4     5    1
     7     5     6    1
     8     6     7    1
     9     7     8    1
    10     8     9    1
    11     9    10   ar
    12    10    11   ar
    13    11    12    1
    14    11    13   ar
    15    13    14   ar
    16    14    15   ar
    17    15    16    1
    18    16    17    1
    19    17    18    1
    20    18    19    1
    21    19    20    1
    22    19     1    1
    23    19     5    1
    24    16     6    1
    25    15     9   ar
    26     2    21    1
    27    12    22    1
@<TRIPOS>MOLECULE
*****
 24 27 0 0 0
SMALL
GASTEIGER

@<TRIPOS>ATOM
      1 C         -22.0220   -7.7875   -9.6899 C.3     1  UNL1        0.1420
      2 O         -22.5123   -7.4009   -8.4280 O.3     1  UNL1       -0.3753
      3 C         -20.5973   -8.3858   -9.5411 C.3     1  UNL1        0.0395
      4 C         -20.5087   -9.5940  -10.4939 C.3     1  UNL1        0.0036
      5 C         -21.8058   -9.5478  -11.2930 C.3     1  UNL1        0.0035
      6 C         -22.3066  -10.8340  -11.9799 C.3     1  UNL1        0.0045
      7 C         -21.2527  -11.4337  -12.9195 C.3     1  UNL1        0.0050
      8 C         -21.7399  -12.7826  -13.4543 C.3     1  UNL1        0.0261
      9 C         -23.1815  -12.7666  -13.9145 C.ar    1  UNL1       -0.0231
     10 C         -23.6417  -13.8662  -14.6572 C.ar    1  UNL1        0.0320
     11 C         -24.9667  -13.9340  -15.0865 C.ar    1  UNL1        0.1333
     12 O         -25.3952  -15.0344  -15.8258 O.3     1  UNL1       -0.5055
     13 C         -25.8487  -12.8977  -14.7758 C.ar    1  UNL1        0.0363
     14 C         -25.4131  -11.8019  -14.0293 C.ar    1  UNL1       -0.0015
     15 C         -24.0862  -11.7302  -13.5511 C.ar    1  UNL1       -0.0263
     16 C         -23.5788  -10.4905  -12.8110 C.3     1  UNL1        0.0220
     17 C         -24.6584   -9.7809  -11.9366 C.3     1  UNL1        0.0045
     18 C         -24.1000   -8.5744  -11.1397 C.3     1  UNL1        0.0035
     19 C         -22.8411   -8.9603  -10.3201 C.3     1  UNL1        0.0333
     20 C         -23.2583   -9.9540   -9.1826 C.3     1  UNL1        0.0033
     21 H         -23.4409   -7.0722   -8.5579 H       1  UNL1        0.2114
     22 H         -26.3509  -15.1128  -16.1536 H       1  UNL1        0.2922
     23 C         -21.8978   -5.6171  -11.2753 C.1     1  UNL1       -0.0119
     24 C         -21.9547   -6.5902  -10.5655 C.1     1  UNL1       -0.0526
@<TRIPOS>BOND
     1    23    24    3
     2     1    24    1
     3     1     2    1
     4     1     3    1
     5     3     4    1
     6     4     5    1
     7     5     6    1
     8     6     7    1
     9     7     8    1
    10     8     9    1
    11     9    10   ar
    12    10    11   ar
    13    11    12    1
    14    11    13   ar
    15    13    14   ar
    16    14    15   ar
    17    15    16    1
    18    16    17    1
    19    17    18    1
    20    18    19    1
    21    19    20    1
    22    19     1    1
    23    19     5    1
    24    16     6    1
    25    15     9   ar
    26     2    21    1
    27    12    22    1
@<TRIPOS>MOLECULE
*****
 24 27 0 0 0
SMALL
GASTEIGER

@<TRIPOS>ATOM
      1 C         -21.9372   -7.7777   -9.2124 C.3     1  UNL1        0.1420
      2 O         -21.9467   -6.4252   -8.8212 O.3     1  UNL1       -0.3753
      3 C         -23.0958   -8.5372   -8.5118 C.3     1  UNL1        0.0395
      4 C         -23.6957   -9.5084   -9.5473 C.3     1  UNL1        0.0036
      5 C         -22.7588   -9.4173  -10.7461 C.3     1  UNL1        0.0035
      6 C         -23.2763   -9.8467  -12.1334 C.3     1  UNL1        0.0045
      7 C         -23.8171  -11.2822  -12.1280 C.3     1  UNL1        0.0050
      8 C         -24.4545  -11.6031  -13.4822 C.3     1  UNL1        0.0261
      9 C         -23.6213  -11.1575  -14.6644 C.ar    1  UNL1       -0.0231
     10 C         -23.9844  -11.6331  -15.9350 C.ar    1  UNL1        0.0320
     11 C         -23.2816  -11.2386  -17.0730 C.ar    1  UNL1        0.1333
     12 O         -23.6606  -11.7295  -18.3206 O.3     1  UNL1       -0.5055
     13 C         -22.2035  -10.3605  -16.9508 C.ar    1  UNL1        0.0363
     14 C         -21.8343   -9.8684  -15.6981 C.ar    1  UNL1       -0.0015
     15 C         -22.5553  -10.2235  -14.5369 C.ar    1  UNL1       -0.0263
     16 C         -22.1001   -9.7601  -13.1512 C.3     1  UNL1        0.0220
     17 C         -21.4332   -8.3499  -13.1355 C.3     1  UNL1        0.0045
     18 C         -21.0504   -7.8732  -11.7111 C.3     1  UNL1        0.0035
     19 C         -22.2498   -7.9667  -10.7323 C.3     1  UNL1        0.0333
     20 C         -23.3379   -6.9227  -11.1582 C.3     1  UNL1        0.0033
     21 H         -21.2264   -5.9644   -9.3274 H       1  UNL1        0.2114
     22 H         -23.1696  -11.4633  -19.1661 H       1  UNL1        0.2922
     23 C         -19.5959   -8.8781   -8.4727 C.1     1  UNL1       -0.0119
     24 C         -20.6449   -8.3854   -8.8056 C.1     1  UNL1       -0.0526
@<TRIPOS>BOND
     1    23    24    3
     2     1    24    1
     3     1     2    1
     4     1     3    1
     5     3     4    1
     6     4     5    1
     7     5     6    1
     8     6     7    1
     9     7     8    1
    10     8     9    1
    11     9    10   ar
    12    10    11   ar
    13    11    12    1
    14    11    13   ar
    15    13    14   ar
    16    14    15   ar
    17    15    16    1
    18    16    17    1
    19    17    18    1
    20    18    19    1
    21    19    20    1
    22    19     1    1
    23    19     5    1
    24    16     6    1
    25    15     9   ar
    26     2    21    1
    27    12    22    1
@<TRIPOS>MOLECULE
*****
 24 27 0 0 0
SMALL
GASTEIGER

@<TRIPOS>ATOM
      1 C         -22.1769   -7.4600  -11.6273 C.3     1  UNL1        0.1420
      2 O         -21.0602   -6.6139  -11.7653 O.3     1  UNL1       -0.3753
      3 C         -23.4636   -6.7107  -12.0668 C.3     1  UNL1        0.0395
      4 C         -24.3321   -7.7163  -12.8478 C.3     1  UNL1        0.0036
      5 C         -23.6169   -9.0517  -12.6801 C.3     1  UNL1        0.0035
      6 C         -23.8902  -10.1786  -13.6961 C.3     1  UNL1        0.0045
      7 C         -25.3843  -10.5098  -13.8017 C.3     1  UNL1        0.0050
      8 C         -25.6148  -11.5211  -14.9275 C.3     1  UNL1        0.0261
      9 C         -24.6269  -12.6677  -14.9229 C.ar    1  UNL1       -0.0231
     10 C         -24.9077  -13.7741  -15.7412 C.ar    1  UNL1        0.0320
     11 C         -24.0262  -14.8524  -15.8115 C.ar    1  UNL1        0.1333
     12 O         -24.3320  -15.9391  -16.6279 O.3     1  UNL1       -0.5055
     13 C         -22.8498  -14.8346  -15.0605 C.ar    1  UNL1        0.0363
     14 C         -22.5479  -13.7393  -14.2500 C.ar    1  UNL1       -0.0015
     15 C         -23.4065  -12.6195  -14.1929 C.ar    1  UNL1       -0.0263
     16 C         -23.1267  -11.4569  -13.2378 C.3     1  UNL1        0.0220
     17 C         -21.6109  -11.1666  -13.0104 C.3     1  UNL1        0.0045
     18 C         -21.3560   -9.9383  -12.1000 C.3     1  UNL1        0.0035
     19 C         -22.1260   -8.6864  -12.5952 C.3     1  UNL1        0.0333
     20 C         -21.5208   -8.2246  -13.9648 C.3     1  UNL1        0.0033
     21 H         -20.2546   -7.1433  -11.5244 H       1  UNL1        0.2114
     22 H         -23.7132  -16.7384  -16.6999 H       1  UNL1        0.2922
     23 C         -22.4181   -8.1694   -9.0430 C.1     1  UNL1       -0.0119
     24 C         -22.3086   -7.8513  -10.2009 C.1     1  UNL1       -0.0526
@<TRIPOS>BOND
     1    23    24    3
     2     1    24    1
     3     1     2    1
     4     1     3    1
     5     3     4    1
     6     4     5    1
     7     5     6    1
     8     6     7    1
     9     7     8    1
    10     8     9    1
    11     9    10   ar
    12    10    11   ar
    13    11    12    1
    14    11    13   ar
    15    13    14   ar
    16    14    15   ar
    17    15    16    1
    18    16    17    1
    19    17    18    1
    20    18    19    1
    21    19    20    1
    22    19     1    1
    23    19     5    1
    24    16     6    1
    25    15     9   ar
    26     2    21    1
    27    12    22    1
@<TRIPOS>MOLECULE
*****
 24 27 0 0 0
SMALL
GASTEIGER

@<TRIPOS>ATOM
      1 C         -23.6511  -12.3771  -15.8982 C.3     1  UNL1        0.1420
      2 O         -24.8668  -13.0563  -16.1051 O.3     1  UNL1       -0.3753
      3 C         -23.4472  -11.3112  -17.0083 C.3     1  UNL1        0.0395
      4 C         -22.8524  -10.0593  -16.3343 C.3     1  UNL1        0.0036
      5 C         -22.5599  -10.4967  -14.9038 C.3     1  UNL1        0.0035
      6 C         -22.4269   -9.4222  -13.8062 C.3     1  UNL1        0.0045
      7 C         -21.3635   -8.3724  -14.1528 C.3     1  UNL1        0.0050
      8 C         -21.3792   -7.2519  -13.1101 C.3     1  UNL1        0.0261
      9 C         -21.4508   -7.7531  -11.6839 C.ar    1  UNL1       -0.0231
     10 C         -21.2071   -6.8291  -10.6546 C.ar    1  UNL1        0.0320
     11 C         -21.2875   -7.2130   -9.3164 C.ar    1  UNL1        0.1333
     12 O         -21.0363   -6.2769   -8.3156 O.3     1  UNL1       -0.5055
     13 C         -21.6139   -8.5310   -8.9930 C.ar    1  UNL1        0.0363
     14 C         -21.8703   -9.4610  -10.0015 C.ar    1  UNL1       -0.0015
     15 C         -21.8327   -9.0855  -11.3624 C.ar    1  UNL1       -0.0263
     16 C         -22.0231  -10.1206  -12.4735 C.3     1  UNL1        0.0220
     17 C         -23.0090  -11.2740  -12.1110 C.3     1  UNL1        0.0045
     18 C         -23.2418  -12.2658  -13.2792 C.3     1  UNL1        0.0035
     19 C         -23.6502  -11.5320  -14.5831 C.3     1  UNL1        0.0333
     20 C         -25.0700  -10.8986  -14.3883 C.3     1  UNL1        0.0033
     21 H         -24.9850  -13.6908  -15.3497 H       1  UNL1        0.2114
     22 H         -21.0851   -6.5245   -7.3341 H       1  UNL1        0.2922
     23 C         -21.6348  -14.1553  -16.0101 C.1     1  UNL1       -0.0119
     24 C         -22.5377  -13.3576  -15.9590 C.1     1  UNL1       -0.0526
@<TRIPOS>BOND
     1    23    24    3
     2     1    24    1
     3     1     2    1
     4     1     3    1
     5     3     4    1
     6     4     5    1
     7     5     6    1
     8     6     7    1
     9     7     8    1
    10     8     9    1
    11     9    10   ar
    12    10    11   ar
    13    11    12    1
    14    11    13   ar
    15    13    14   ar
    16    14    15   ar
    17    15    16    1
    18    16    17    1
    19    17    18    1
    20    18    19    1
    21    19    20    1
    22    19     1    1
    23    19     5    1
    24    16     6    1
    25    15     9   ar
    26     2    21    1
    27    12    22    1
@<TRIPOS>MOLECULE
*****
 24 27 0 0 0
SMALL
GASTEIGER

@<TRIPOS>ATOM
      1 C         -24.4008   -8.4679  -12.6787 C.3     1  UNL1        0.1420
      2 O         -25.7472   -8.8781  -12.7111 O.3     1  UNL1       -0.3753
      3 C         -24.2659   -7.1680  -11.8407 C.3     1  UNL1        0.0395
      4 C         -22.9751   -7.2946  -11.0081 C.3     1  UNL1        0.0036
      5 C         -22.3116   -8.5674  -11.5208 C.3     1  UNL1        0.0035
      6 C         -21.2831   -9.2868  -10.6254 C.3     1  UNL1        0.0045
      7 C         -20.1402   -8.3570  -10.1985 C.3     1  UNL1        0.0050
      8 C         -19.2348   -9.0732   -9.1932 C.3     1  UNL1        0.0261
      9 C         -18.8911  -10.4921   -9.5918 C.ar    1  UNL1       -0.0231
     10 C         -17.8666  -11.1394   -8.8818 C.ar    1  UNL1        0.0320
     11 C         -17.5184  -12.4579   -9.1733 C.ar    1  UNL1        0.1333
     12 O         -16.4951  -13.0740   -8.4563 O.3     1  UNL1       -0.5055
     13 C         -18.1947  -13.1452  -10.1826 C.ar    1  UNL1        0.0363
     14 C         -19.2229  -12.5228  -10.8918 C.ar    1  UNL1       -0.0015
     15 C         -19.6186  -11.2016  -10.5878 C.ar    1  UNL1       -0.0263
     16 C         -20.6822  -10.4835  -11.4216 C.3     1  UNL1        0.0220
     17 C         -21.7999  -11.4198  -11.9763 C.3     1  UNL1        0.0045
     18 C         -22.9038  -10.6570  -12.7524 C.3     1  UNL1        0.0035
     19 C         -23.4811   -9.4808  -11.9226 C.3     1  UNL1        0.0333
     20 C         -24.2669  -10.0592  -10.6966 C.3     1  UNL1        0.0033
     21 H         -25.7844   -9.7362  -13.2108 H       1  UNL1        0.2114
     22 H         -16.2174  -14.0302   -8.6448 H       1  UNL1        0.2922
     23 C         -23.5787   -7.9783  -15.1935 C.1     1  UNL1       -0.0119
     24 C         -23.9485   -8.1974  -14.0669 C.1     1  UNL1       -0.0526
@<TRIPOS>BOND
     1    23    24    3
     2     1    24    1
     3     1     2    1
     4     1     3    1
     5     3     4    1
     6     4     5    1
     7     5     6    1
     8     6     7    1
     9     7     8    1
    10     8     9    1
    11     9    10   ar
    12    10    11   ar
    13    11    12    1
    14    11    13   ar
    15    13    14   ar
    16    14    15   ar
    17    15    16    1
    18    16    17    1
    19    17    18    1
    20    18    19    1
    21    19    20    1
    22    19     1    1
    23    19     5    1
    24    16     6    1
    25    15     9   ar
    26     2    21    1
    27    12    22    1
