@<TRIPOS>MOLECULE
*****
 40 44 0 0 0
SMALL
GASTEIGER

@<TRIPOS>ATOM
      1 C         -29.0341   49.4127   -9.7532 C.ar    1  UNL1        0.0675
      2 C         -30.2936   49.6840  -10.3303 C.ar    1  UNL1        0.0193
      3 C         -30.4546   50.7477  -11.2456 C.ar    1  UNL1        0.0398
      4 C         -29.3540   51.5647  -11.5992 C.ar    1  UNL1        0.1557
      5 C         -28.1266   51.2676  -11.0078 C.ar    1  UNL1        0.1112
      6 N         -26.9552   51.8973  -11.1702 N.ar    1  UNL1       -0.3349
      7 C         -26.0992   51.2207  -10.3593 C.ar    1  UNL1        0.1406
      8 N         -26.6942   50.1920   -9.6978 N.ar    1  UNL1       -0.2257
      9 C         -27.9680   50.2398  -10.1266 C.ar    1  UNL1        0.1146
     10 H         -26.7677   52.7165  -11.7883 H       1  UNL1        0.1675
     11 N         -28.8521   46.1413   -7.0305 N.3     1  UNL1       -0.2655
     12 C         -29.5447   47.3923   -6.6596 C.3     1  UNL1        0.0941
     13 C         -28.9132   48.5836   -7.3828 C.3     1  UNL1        0.1082
     14 N         -28.8670   48.3253   -8.8248 N.pl3   1  UNL1       -0.3034
     15 C         -28.3356   47.0350   -9.2735 C.3     1  UNL1        0.1082
     16 C         -28.9905   45.9010   -8.4834 C.3     1  UNL1        0.0941
     17 C         -29.4036   45.0085   -6.2586 C.3     1  UNL1        0.1154
     18 N         -27.5264   45.4397   -3.0073 N.am    1  UNL1       -0.0442
     19 C         -27.8057   45.2964   -4.3365 C.2     1  UNL1        0.2969
     20 C         -29.1263   45.1881   -4.7844 C.2     1  UNL1        0.1684
     21 C         -30.1501   45.2153   -3.8264 C.2     1  UNL1        0.4261
     22 O         -31.3580   45.1108   -4.1733 O.2     1  UNL1       -0.2139
     23 N         -29.8403   45.3485   -2.5101 N.am    1  UNL1       -0.0486
     24 C         -28.5489   45.4534   -2.0944 C.2     1  UNL1        0.6659
     25 O         -28.3055   45.5592   -0.8604 O.2     1  UNL1       -0.1527
     26 H         -30.6098   45.3631   -1.8016 H       1  UNL1        0.4575
     27 C         -25.5202   44.1185   -2.4704 C.3     1  UNL1        0.0920
     28 C         -26.1210   45.5163   -2.5769 C.3     1  UNL1        0.3234
     29 C         -24.6597   51.5479  -10.1965 C.ar    1  UNL1        0.0339
     30 C         -23.9184   52.0042  -11.2974 C.ar    1  UNL1        0.0027
     31 C         -22.5630   52.3183  -11.1688 C.ar    1  UNL1       -0.0042
     32 C         -21.8991   52.1844   -9.9282 C.ar    1  UNL1       -0.0228
     33 C         -22.6545   51.7216   -8.8293 C.ar    1  UNL1       -0.0042
     34 C         -24.0097   51.4086   -8.9603 C.ar    1  UNL1        0.0027
     35 C         -20.4047   52.5189   -9.7398 C.3     1  UNL1        0.0189
     36 C         -20.1449   53.9782  -10.1732 C.3     1  UNL1        0.0044
     37 C         -20.0229   52.3499   -8.2530 C.3     1  UNL1        0.0044
     38 C         -19.4691   51.6085  -10.5714 C.3     1  UNL1        0.0044
     39 O         -29.4512   52.6359  -12.4986 O.3     1  UNL1       -0.4699
     40 C         -30.4909   53.6076  -12.4726 C.3     1  UNL1        0.2525
@<TRIPOS>BOND
     1    27    28    1
     2    28    18    1
     3    18    19    1
     4    19    20    2
     5    20    17    1
     6    17    11    1
     7    11    12    1
     8    12    13    1
     9    13    14    1
    10    14     1    1
    11     1     2   ar
    12     2     3   ar
    13     3     4   ar
    14     4    39    1
    15    39    40    1
    16     4     5   ar
    17     5     6   ar
    18     6     7   ar
    19     7    29    1
    20    29    30   ar
    21    30    31   ar
    22    31    32   ar
    23    32    35    1
    24    35    36    1
    25    35    37    1
    26    35    38    1
    27    32    33   ar
    28    33    34   ar
    29     7     8   ar
    30     8     9   ar
    31    14    15    1
    32    15    16    1
    33    20    21    1
    34    21    22    2
    35    21    23    1
    36    23    24    1
    37    24    25    2
    38    24    18    1
    39    16    11    1
    40     9     1   ar
    41     9     5   ar
    42    34    29   ar
    43     6    10    1
    44    23    26    1
@<TRIPOS>MOLECULE
*****
 40 44 0 0 0
SMALL
GASTEIGER

@<TRIPOS>ATOM
      1 C         -29.2855   49.2093   -9.8062 C.ar    1  UNL1        0.0675
      2 C         -30.5510   49.4357  -10.3895 C.ar    1  UNL1        0.0193
      3 C         -30.7373   50.4719  -11.3313 C.ar    1  UNL1        0.0398
      4 C         -29.6565   51.3057  -11.7059 C.ar    1  UNL1        0.1557
      5 C         -28.4224   51.0532  -11.1077 C.ar    1  UNL1        0.1112
      6 N         -27.2664   51.7064  -11.2864 N.ar    1  UNL1       -0.3349
      7 C         -26.3946   51.0712  -10.4590 C.ar    1  UNL1        0.1406
      8 N         -26.9649   50.0455   -9.7716 N.ar    1  UNL1       -0.2257
      9 C         -28.2395   50.0520  -10.2008 C.ar    1  UNL1        0.1146
     10 H         -27.0984   52.5140  -11.9250 H       1  UNL1        0.1675
     11 N         -29.0244   46.0086   -7.0071 N.3     1  UNL1       -0.2655
     12 C         -29.7698   47.2402   -6.6756 C.3     1  UNL1        0.0941
     13 C         -29.1719   48.4383   -7.4159 C.3     1  UNL1        0.1082
     14 N         -29.0926   48.1500   -8.8508 N.pl3   1  UNL1       -0.3034
     15 C         -28.5056   46.8713   -9.2617 C.3     1  UNL1        0.1082
     16 C         -29.1300   45.7309   -8.4560 C.3     1  UNL1        0.0941
     17 C         -29.5452   44.8731   -6.2181 C.3     1  UNL1        0.1154
     18 N         -29.9431   45.3082   -2.4854 N.am    1  UNL1       -0.0442
     19 C         -30.2263   45.1353   -3.8102 C.2     1  UNL1        0.2969
     20 C         -29.2009   45.0422   -4.7568 C.2     1  UNL1        0.1684
     21 C         -27.8774   45.1477   -4.3053 C.2     1  UNL1        0.4261
     22 O         -26.9142   45.0817   -5.1167 O.2     1  UNL1       -0.2139
     23 N         -27.6273   45.3300   -2.9822 N.am    1  UNL1       -0.0486
     24 C         -28.6391   45.4171   -2.0765 C.2     1  UNL1        0.6659
     25 O         -28.3621   45.6028   -0.8593 O.2     1  UNL1       -0.1527
     26 H         -26.6374   45.4125   -2.6545 H       1  UNL1        0.4575
     27 C         -31.4923   46.8908   -1.4112 C.3     1  UNL1        0.0920
     28 C         -31.0538   45.4347   -1.5280 C.3     1  UNL1        0.3234
     29 C         -24.9633   51.4367  -10.3052 C.ar    1  UNL1        0.0339
     30 C         -24.2166   51.8229  -11.4289 C.ar    1  UNL1        0.0027
     31 C         -22.8687   52.1712  -11.3091 C.ar    1  UNL1       -0.0042
     32 C         -22.2182   52.1435  -10.0546 C.ar    1  UNL1       -0.0228
     33 C         -22.9791   51.7504   -8.9324 C.ar    1  UNL1       -0.0042
     34 C         -24.3267   51.4030   -9.0547 C.ar    1  UNL1        0.0027
     35 C         -20.7326   52.5193   -9.8750 C.3     1  UNL1        0.0189
     36 C         -19.8568   51.5830  -10.7359 C.3     1  UNL1        0.0044
     37 C         -20.5137   53.9811  -10.3222 C.3     1  UNL1        0.0044
     38 C         -20.2487   52.3990   -8.4097 C.3     1  UNL1        0.0044
     39 O         -29.7792   52.3513  -12.6320 O.3     1  UNL1       -0.4699
     40 C         -30.5044   53.5515  -12.3886 C.3     1  UNL1        0.2525
@<TRIPOS>BOND
     1    27    28    1
     2    28    18    1
     3    18    19    1
     4    19    20    2
     5    20    17    1
     6    17    11    1
     7    11    12    1
     8    12    13    1
     9    13    14    1
    10    14     1    1
    11     1     2   ar
    12     2     3   ar
    13     3     4   ar
    14     4    39    1
    15    39    40    1
    16     4     5   ar
    17     5     6   ar
    18     6     7   ar
    19     7    29    1
    20    29    30   ar
    21    30    31   ar
    22    31    32   ar
    23    32    35    1
    24    35    36    1
    25    35    37    1
    26    35    38    1
    27    32    33   ar
    28    33    34   ar
    29     7     8   ar
    30     8     9   ar
    31    14    15    1
    32    15    16    1
    33    20    21    1
    34    21    22    2
    35    21    23    1
    36    23    24    1
    37    24    25    2
    38    24    18    1
    39    16    11    1
    40     9     1   ar
    41     9     5   ar
    42    34    29   ar
    43     6    10    1
    44    23    26    1
@<TRIPOS>MOLECULE
*****
 40 44 0 0 0
SMALL
GASTEIGER

@<TRIPOS>ATOM
      1 C         -29.4925   50.4535   -9.6615 C.ar    1  UNL1        0.0675
      2 C         -30.5070   50.3895   -8.6819 C.ar    1  UNL1        0.0193
      3 C         -30.2334   50.7201   -7.3361 C.ar    1  UNL1        0.0398
      4 C         -28.9332   51.1195   -6.9440 C.ar    1  UNL1        0.1557
      5 C         -27.9570   51.1692   -7.9386 C.ar    1  UNL1        0.1112
      6 N         -26.6647   51.5000   -7.8145 N.ar    1  UNL1       -0.3349
      7 C         -26.1658   51.3677   -9.0722 C.ar    1  UNL1        0.1406
      8 N         -27.1002   50.9669   -9.9756 N.ar    1  UNL1       -0.2257
      9 C         -28.2193   50.8536   -9.2384 C.ar    1  UNL1        0.1146
     10 H         -26.1768   51.7934   -6.9403 H       1  UNL1        0.1675
     11 N         -30.6265   49.4933  -13.6540 N.3     1  UNL1       -0.2655
     12 C         -30.8840   48.5467  -12.5495 C.3     1  UNL1        0.0941
     13 C         -29.8361   48.7181  -11.4479 C.3     1  UNL1        0.1082
     14 N         -29.7711   50.1229  -11.0346 N.pl3   1  UNL1       -0.3034
     15 C         -29.6723   51.1422  -12.0832 C.3     1  UNL1        0.1082
     16 C         -30.7279   50.8835  -13.1594 C.3     1  UNL1        0.0941
     17 C         -31.5832   49.2594  -14.7555 C.3     1  UNL1        0.1154
     18 N         -30.8369   46.5613  -17.2940 N.am    1  UNL1       -0.0442
     19 C         -31.4313   47.2713  -16.2901 C.2     1  UNL1        0.2969
     20 C         -30.9172   48.5069  -15.8836 C.2     1  UNL1        0.1684
     21 C         -29.7663   48.9843  -16.5272 C.2     1  UNL1        0.4261
     22 O         -29.2539   50.0872  -16.1934 O.2     1  UNL1       -0.2139
     23 N         -29.1912   48.2503  -17.5155 N.am    1  UNL1       -0.0486
     24 C         -29.7073   47.0505  -17.8973 C.2     1  UNL1        0.6659
     25 O         -29.1316   46.3942  -18.8088 O.2     1  UNL1       -0.1527
     26 H         -28.3301   48.6114  -17.9871 H       1  UNL1        0.4575
     27 C         -30.7759   44.1487  -16.8101 C.3     1  UNL1        0.0920
     28 C         -31.3916   45.2500  -17.6669 C.3     1  UNL1        0.3234
     29 C         -24.7531   51.6298   -9.4481 C.ar    1  UNL1        0.0339
     30 C         -23.7354   51.4679   -8.4953 C.ar    1  UNL1        0.0027
     31 C         -22.3991   51.7085   -8.8254 C.ar    1  UNL1       -0.0042
     32 C         -22.0337   52.1229  -10.1263 C.ar    1  UNL1       -0.0228
     33 C         -23.0665   52.2852  -11.0748 C.ar    1  UNL1       -0.0042
     34 C         -24.4018   52.0437  -10.7425 C.ar    1  UNL1        0.0027
     35 C         -20.5721   52.4002  -10.5354 C.3     1  UNL1        0.0189
     36 C         -20.5203   53.6428  -11.4509 C.3     1  UNL1        0.0044
     37 C         -19.7240   52.6590   -9.2711 C.3     1  UNL1        0.0044
     38 C         -19.9229   51.2238  -11.3036 C.3     1  UNL1        0.0044
     39 O         -28.5993   51.4567   -5.6246 O.3     1  UNL1       -0.4699
     40 C         -27.9572   50.5720   -4.7132 C.3     1  UNL1        0.2525
@<TRIPOS>BOND
     1    27    28    1
     2    28    18    1
     3    18    19    1
     4    19    20    2
     5    20    17    1
     6    17    11    1
     7    11    12    1
     8    12    13    1
     9    13    14    1
    10    14     1    1
    11     1     2   ar
    12     2     3   ar
    13     3     4   ar
    14     4    39    1
    15    39    40    1
    16     4     5   ar
    17     5     6   ar
    18     6     7   ar
    19     7    29    1
    20    29    30   ar
    21    30    31   ar
    22    31    32   ar
    23    32    35    1
    24    35    36    1
    25    35    37    1
    26    35    38    1
    27    32    33   ar
    28    33    34   ar
    29     7     8   ar
    30     8     9   ar
    31    14    15    1
    32    15    16    1
    33    20    21    1
    34    21    22    2
    35    21    23    1
    36    23    24    1
    37    24    25    2
    38    24    18    1
    39    16    11    1
    40     9     1   ar
    41     9     5   ar
    42    34    29   ar
    43     6    10    1
    44    23    26    1
@<TRIPOS>MOLECULE
*****
 40 44 0 0 0
SMALL
GASTEIGER

@<TRIPOS>ATOM
      1 C         -28.6120   49.3946   -9.1744 C.ar    1  UNL1        0.0675
      2 C         -29.9193   49.6354   -9.6498 C.ar    1  UNL1        0.0193
      3 C         -30.1762   50.6905  -10.5532 C.ar    1  UNL1        0.0398
      4 C         -29.1257   51.5291  -10.9967 C.ar    1  UNL1        0.1557
      5 C         -27.8487   51.2619  -10.5044 C.ar    1  UNL1        0.1112
      6 N         -26.7082   51.9159  -10.7623 N.ar    1  UNL1       -0.3349
      7 C         -25.7754   51.2623  -10.0201 C.ar    1  UNL1        0.1406
      8 N         -26.2929   50.2245   -9.3094 N.ar    1  UNL1       -0.2257
      9 C         -27.5976   50.2425   -9.6350 C.ar    1  UNL1        0.1146
     10 H         -26.5887   52.7356  -11.3965 H       1  UNL1        0.1675
     11 N         -27.7250   46.4202   -6.2565 N.3     1  UNL1       -0.2655
     12 C         -26.6402   47.1767   -6.9147 C.3     1  UNL1        0.0941
     13 C         -27.0678   47.6038   -8.3204 C.3     1  UNL1        0.1082
     14 N         -28.3474   48.3160   -8.2585 N.pl3   1  UNL1       -0.3034
     15 C         -29.4353   47.7052   -7.4892 C.3     1  UNL1        0.1082
     16 C         -28.9217   47.2775   -6.1135 C.3     1  UNL1        0.0941
     17 C         -27.2730   45.9296   -4.9380 C.3     1  UNL1        0.1154
     18 N         -26.5321   49.4440   -3.7630 N.am    1  UNL1       -0.0442
     19 C         -27.0024   48.3916   -4.4955 C.2     1  UNL1        0.2969
     20 C         -26.7590   47.0736   -4.0957 C.2     1  UNL1        0.1684
     21 C         -26.0054   46.8681   -2.9310 C.2     1  UNL1        0.4261
     22 O         -25.7467   45.7006   -2.5304 O.2     1  UNL1       -0.2139
     23 N         -25.5421   47.9352   -2.2289 N.am    1  UNL1       -0.0486
     24 C         -25.7906   49.2103   -2.6340 C.2     1  UNL1        0.6659
     25 O         -25.3272   50.1720   -1.9606 O.2     1  UNL1       -0.1527
     26 H         -24.9767   47.7731   -1.3639 H       1  UNL1        0.4575
     27 C         -26.6294   50.8878   -5.7541 C.3     1  UNL1        0.0920
     28 C         -26.7830   50.8141   -4.2385 C.3     1  UNL1        0.3234
     29 C         -24.3350   51.6214   -9.9743 C.ar    1  UNL1        0.0339
     30 C         -23.6173   51.4779   -8.7768 C.ar    1  UNL1        0.0027
     31 C         -22.2615   51.8092   -8.7092 C.ar    1  UNL1       -0.0042
     32 C         -21.5744   52.2994   -9.8429 C.ar    1  UNL1       -0.0228
     33 C         -22.3078   52.4422  -11.0405 C.ar    1  UNL1       -0.0042
     34 C         -23.6631   52.1099  -11.1057 C.ar    1  UNL1        0.0027
     35 C         -20.0789   52.6779   -9.8146 C.3     1  UNL1        0.0189
     36 C         -19.9236   54.1859  -10.1094 C.3     1  UNL1        0.0044
     37 C         -19.4950   52.3653   -8.4195 C.3     1  UNL1        0.0044
     38 C         -19.2374   51.9063  -10.8596 C.3     1  UNL1        0.0044
     39 O         -29.3181   52.5932  -11.8894 O.3     1  UNL1       -0.4699
     40 C         -30.5802   53.1964  -12.1513 C.3     1  UNL1        0.2525
@<TRIPOS>BOND
     1    27    28    1
     2    28    18    1
     3    18    19    1
     4    19    20    2
     5    20    17    1
     6    17    11    1
     7    11    12    1
     8    12    13    1
     9    13    14    1
    10    14     1    1
    11     1     2   ar
    12     2     3   ar
    13     3     4   ar
    14     4    39    1
    15    39    40    1
    16     4     5   ar
    17     5     6   ar
    18     6     7   ar
    19     7    29    1
    20    29    30   ar
    21    30    31   ar
    22    31    32   ar
    23    32    35    1
    24    35    36    1
    25    35    37    1
    26    35    38    1
    27    32    33   ar
    28    33    34   ar
    29     7     8   ar
    30     8     9   ar
    31    14    15    1
    32    15    16    1
    33    20    21    1
    34    21    22    2
    35    21    23    1
    36    23    24    1
    37    24    25    2
    38    24    18    1
    39    16    11    1
    40     9     1   ar
    41     9     5   ar
    42    34    29   ar
    43     6    10    1
    44    23    26    1
@<TRIPOS>MOLECULE
*****
 40 44 0 0 0
SMALL
GASTEIGER

@<TRIPOS>ATOM
      1 C         -29.3122   50.3757   -8.6046 C.ar    1  UNL1        0.0675
      2 C         -30.5629   50.2973   -9.2547 C.ar    1  UNL1        0.0193
      3 C         -30.6809   50.5915  -10.6312 C.ar    1  UNL1        0.0398
      4 C         -29.5453   50.9742  -11.3846 C.ar    1  UNL1        0.1557
      5 C         -28.3277   51.0422  -10.7081 C.ar    1  UNL1        0.1112
      6 N         -27.1286   51.3894  -11.1943 N.ar    1  UNL1       -0.3349
      7 C         -26.2984   51.3069  -10.1210 C.ar    1  UNL1        0.1406
      8 N         -26.9363   50.9205   -8.9836 N.ar    1  UNL1       -0.2257
      9 C         -28.2107   50.7559   -9.3806 C.ar    1  UNL1        0.1146
     10 H         -26.9074   51.6546  -12.1788 H       1  UNL1        0.1675
     11 N         -29.2617   49.4212   -4.4531 N.3     1  UNL1       -0.2655
     12 C         -29.9151   50.6556   -4.9342 C.3     1  UNL1        0.0941
     13 C         -29.2382   51.1507   -6.2140 C.3     1  UNL1        0.1082
     14 N         -29.1891   50.0702   -7.2032 N.pl3   1  UNL1       -0.3034
     15 C         -28.6975   48.7609   -6.7644 C.3     1  UNL1        0.1082
     16 C         -29.3963   48.3525   -5.4667 C.3     1  UNL1        0.0941
     17 C         -29.8569   49.0005   -3.1678 C.3     1  UNL1        0.1154
     18 N         -27.0523   46.5514   -2.5222 N.am    1  UNL1       -0.0442
     19 C         -27.7778   47.5900   -3.0324 C.2     1  UNL1        0.2969
     20 C         -29.0700   47.8583   -2.5691 C.2     1  UNL1        0.1684
     21 C         -29.6009   47.0195   -1.5785 C.2     1  UNL1        0.4261
     22 O         -30.7651   47.2088   -1.1322 O.2     1  UNL1       -0.2139
     23 N         -28.8588   45.9877   -1.0979 N.am    1  UNL1       -0.0486
     24 C         -27.6028   45.7438   -1.5610 C.2     1  UNL1        0.6659
     25 O         -26.9549   44.7645   -1.0981 O.2     1  UNL1       -0.1527
     26 H         -29.2642   45.3640   -0.3625 H       1  UNL1        0.4575
     27 C         -25.8039   45.4428   -4.3308 C.3     1  UNL1        0.0920
     28 C         -25.7095   46.2847   -3.0625 C.3     1  UNL1        0.3234
     29 C         -24.8429   51.5997  -10.1595 C.ar    1  UNL1        0.0339
     30 C         -24.0897   51.5534   -8.9762 C.ar    1  UNL1        0.0027
     31 C         -22.7191   51.8250   -8.9873 C.ar    1  UNL1       -0.0042
     32 C         -22.0521   52.1554  -10.1889 C.ar    1  UNL1       -0.0228
     33 C         -22.8210   52.2018  -11.3718 C.ar    1  UNL1       -0.0042
     34 C         -24.1911   51.9295  -11.3581 C.ar    1  UNL1        0.0027
     35 C         -20.5413   52.4630  -10.2487 C.3     1  UNL1        0.0189
     36 C         -19.8521   51.4740  -11.2139 C.3     1  UNL1        0.0044
     37 C         -20.3295   53.9062  -10.7557 C.3     1  UNL1        0.0044
     38 C         -19.8420   52.3409   -8.8733 C.3     1  UNL1        0.0044
     39 O         -29.5991   51.2812  -12.7516 O.3     1  UNL1       -0.4699
     40 C         -30.0457   50.3764  -13.7554 C.3     1  UNL1        0.2525
@<TRIPOS>BOND
     1    27    28    1
     2    28    18    1
     3    18    19    1
     4    19    20    2
     5    20    17    1
     6    17    11    1
     7    11    12    1
     8    12    13    1
     9    13    14    1
    10    14     1    1
    11     1     2   ar
    12     2     3   ar
    13     3     4   ar
    14     4    39    1
    15    39    40    1
    16     4     5   ar
    17     5     6   ar
    18     6     7   ar
    19     7    29    1
    20    29    30   ar
    21    30    31   ar
    22    31    32   ar
    23    32    35    1
    24    35    36    1
    25    35    37    1
    26    35    38    1
    27    32    33   ar
    28    33    34   ar
    29     7     8   ar
    30     8     9   ar
    31    14    15    1
    32    15    16    1
    33    20    21    1
    34    21    22    2
    35    21    23    1
    36    23    24    1
    37    24    25    2
    38    24    18    1
    39    16    11    1
    40     9     1   ar
    41     9     5   ar
    42    34    29   ar
    43     6    10    1
    44    23    26    1
@<TRIPOS>MOLECULE
*****
 40 44 0 0 0
SMALL
GASTEIGER

@<TRIPOS>ATOM
      1 C         -28.2222   49.7462   -9.1692 C.ar    1  UNL1        0.0675
      2 C         -29.4239   49.8105   -9.9073 C.ar    1  UNL1        0.0193
      3 C         -29.4883   50.5305  -11.1209 C.ar    1  UNL1        0.0398
      4 C         -28.3475   51.2048  -11.6183 C.ar    1  UNL1        0.1557
      5 C         -27.1794   51.1203  -10.8612 C.ar    1  UNL1        0.1112
      6 N         -25.9874   51.6776  -11.1129 N.ar    1  UNL1       -0.3349
      7 C         -25.2146   51.2985  -10.0607 C.ar    1  UNL1        0.1406
      8 N         -25.8814   50.5248   -9.1625 N.ar    1  UNL1       -0.2257
      9 C         -27.1138   50.4235   -9.6914 C.ar    1  UNL1        0.1146
     10 H         -25.7339   52.2624  -11.9388 H       1  UNL1        0.1675
     11 N         -27.7282   47.6847   -5.4741 N.3     1  UNL1       -0.2655
     12 C         -26.9104   47.3272   -6.6511 C.3     1  UNL1        0.0941
     13 C         -27.6792   47.6207   -7.9410 C.3     1  UNL1        0.1082
     14 N         -28.1531   49.0077   -7.9354 N.pl3   1  UNL1       -0.3034
     15 C         -28.8410   49.4923   -6.7353 C.3     1  UNL1        0.1082
     16 C         -28.0282   49.1329   -5.4905 C.3     1  UNL1        0.0941
     17 C         -27.0195   47.3118   -4.2323 C.3     1  UNL1        0.1154
     18 N         -29.7237   45.2505   -2.5834 N.am    1  UNL1       -0.0442
     19 C         -28.8180   45.7146   -3.4942 C.2     1  UNL1        0.2969
     20 C         -27.9968   46.8070   -3.1967 C.2     1  UNL1        0.1684
     21 C         -28.1440   47.4184   -1.9432 C.2     1  UNL1        0.4261
     22 O         -27.4371   48.4135   -1.6264 O.2     1  UNL1       -0.2139
     23 N         -29.0612   46.9405   -1.0618 N.am    1  UNL1       -0.0486
     24 C         -29.8503   45.8756   -1.3700 C.2     1  UNL1        0.6659
     25 O         -30.7005   45.4747   -0.5277 O.2     1  UNL1       -0.1527
     26 H         -29.1679   47.4053   -0.1309 H       1  UNL1        0.4575
     27 C         -31.1589   44.3182   -4.3525 C.3     1  UNL1        0.0920
     28 C         -30.5911   44.1196   -2.9509 C.3     1  UNL1        0.3234
     29 C         -23.7881   51.6735   -9.8870 C.ar    1  UNL1        0.0339
     30 C         -23.0579   52.1670  -10.9792 C.ar    1  UNL1        0.0027
     31 C         -21.7147   52.5264  -10.8403 C.ar    1  UNL1       -0.0042
     32 C         -21.0525   52.4023   -9.5978 C.ar    1  UNL1       -0.0228
     33 C         -21.7967   51.9018   -8.5077 C.ar    1  UNL1       -0.0042
     34 C         -23.1396   51.5435   -8.6490 C.ar    1  UNL1        0.0027
     35 C         -19.5716   52.7862   -9.3981 C.3     1  UNL1        0.0189
     36 C         -18.8174   52.6441  -10.7382 C.3     1  UNL1        0.0044
     37 C         -19.4802   54.2488   -8.9109 C.3     1  UNL1        0.0044
     38 C         -18.8492   51.8982   -8.3564 C.3     1  UNL1        0.0044
     39 O         -28.3496   51.9376  -12.8136 O.3     1  UNL1       -0.4699
     40 C         -27.5070   51.6537  -13.9249 C.3     1  UNL1        0.2525
@<TRIPOS>BOND
     1    27    28    1
     2    28    18    1
     3    18    19    1
     4    19    20    2
     5    20    17    1
     6    17    11    1
     7    11    12    1
     8    12    13    1
     9    13    14    1
    10    14     1    1
    11     1     2   ar
    12     2     3   ar
    13     3     4   ar
    14     4    39    1
    15    39    40    1
    16     4     5   ar
    17     5     6   ar
    18     6     7   ar
    19     7    29    1
    20    29    30   ar
    21    30    31   ar
    22    31    32   ar
    23    32    35    1
    24    35    36    1
    25    35    37    1
    26    35    38    1
    27    32    33   ar
    28    33    34   ar
    29     7     8   ar
    30     8     9   ar
    31    14    15    1
    32    15    16    1
    33    20    21    1
    34    21    22    2
    35    21    23    1
    36    23    24    1
    37    24    25    2
    38    24    18    1
    39    16    11    1
    40     9     1   ar
    41     9     5   ar
    42    34    29   ar
    43     6    10    1
    44    23    26    1
@<TRIPOS>MOLECULE
*****
 40 44 0 0 0
SMALL
GASTEIGER

@<TRIPOS>ATOM
      1 C         -29.7104   50.2504   -8.3501 C.ar    1  UNL1        0.0675
      2 C         -31.0247   50.2430   -8.8654 C.ar    1  UNL1        0.0193
      3 C         -31.2897   50.7016  -10.1749 C.ar    1  UNL1        0.0398
      4 C         -30.2401   51.1807  -10.9950 C.ar    1  UNL1        0.1557
      5 C         -28.9559   51.1744  -10.4514 C.ar    1  UNL1        0.1112
      6 N         -27.8144   51.5863  -11.0192 N.ar    1  UNL1       -0.3349
      7 C         -26.8731   51.3797  -10.0603 C.ar    1  UNL1        0.1406
      8 N         -27.3863   50.8536   -8.9158 N.ar    1  UNL1       -0.2257
      9 C         -28.6973   50.7296   -9.1891 C.ar    1  UNL1        0.1146
     10 H         -27.6998   51.9707  -11.9822 H       1  UNL1        0.1675
     11 N         -28.6093   48.7818   -4.5058 N.3     1  UNL1       -0.2655
     12 C         -28.7324   47.8632   -5.6561 C.3     1  UNL1        0.0941
     13 C         -29.7633   48.3960   -6.6533 C.3     1  UNL1        0.1082
     14 N         -29.4378   49.7778   -7.0180 N.pl3   1  UNL1       -0.3034
     15 C         -29.1463   50.7220   -5.9354 C.3     1  UNL1        0.1082
     16 C         -28.1361   50.1052   -4.9668 C.3     1  UNL1        0.0941
     17 C         -27.6838   48.2163   -3.5023 C.3     1  UNL1        0.1154
     18 N         -30.1842   47.6789   -0.7203 N.am    1  UNL1       -0.0442
     19 C         -29.4841   48.2492   -1.7450 C.2     1  UNL1        0.2969
     20 C         -28.4554   47.5517   -2.3864 C.2     1  UNL1        0.1684
     21 C         -28.1563   46.2582   -1.9345 C.2     1  UNL1        0.4261
     22 O         -27.2314   45.5882   -2.4693 O.2     1  UNL1       -0.2139
     23 N         -28.8635   45.7215   -0.9058 N.am    1  UNL1       -0.0486
     24 C         -29.8617   46.4162   -0.2952 C.2     1  UNL1        0.6659
     25 O         -30.4821   45.8855    0.6673 O.2     1  UNL1       -0.1527
     26 H         -28.6307   44.7580   -0.5717 H       1  UNL1        0.4575
     27 C         -31.5797   49.7009   -0.8711 C.3     1  UNL1        0.0920
     28 C         -31.2362   48.4614   -0.0515 C.3     1  UNL1        0.3234
     29 C         -25.4286   51.6850  -10.2207 C.ar    1  UNL1        0.0339
     30 C         -24.6398   50.9003  -11.0761 C.ar    1  UNL1        0.0027
     31 C         -23.2786   51.1682  -11.2433 C.ar    1  UNL1       -0.0042
     32 C         -22.6566   52.2348  -10.5555 C.ar    1  UNL1       -0.0228
     33 C         -23.4598   53.0148   -9.6957 C.ar    1  UNL1       -0.0042
     34 C         -24.8205   52.7452   -9.5305 C.ar    1  UNL1        0.0027
     35 C         -21.1577   52.5671  -10.7090 C.3     1  UNL1        0.0189
     36 C         -20.3962   51.3075  -11.1760 C.3     1  UNL1        0.0044
     37 C         -20.9837   53.6891  -11.7556 C.3     1  UNL1        0.0044
     38 C         -20.5046   53.0488   -9.3910 C.3     1  UNL1        0.0044
     39 O         -30.4401   51.6511  -12.3006 O.3     1  UNL1       -0.4699
     40 C         -31.5840   51.3479  -13.0913 C.3     1  UNL1        0.2525
@<TRIPOS>BOND
     1    27    28    1
     2    28    18    1
     3    18    19    1
     4    19    20    2
     5    20    17    1
     6    17    11    1
     7    11    12    1
     8    12    13    1
     9    13    14    1
    10    14     1    1
    11     1     2   ar
    12     2     3   ar
    13     3     4   ar
    14     4    39    1
    15    39    40    1
    16     4     5   ar
    17     5     6   ar
    18     6     7   ar
    19     7    29    1
    20    29    30   ar
    21    30    31   ar
    22    31    32   ar
    23    32    35    1
    24    35    36    1
    25    35    37    1
    26    35    38    1
    27    32    33   ar
    28    33    34   ar
    29     7     8   ar
    30     8     9   ar
    31    14    15    1
    32    15    16    1
    33    20    21    1
    34    21    22    2
    35    21    23    1
    36    23    24    1
    37    24    25    2
    38    24    18    1
    39    16    11    1
    40     9     1   ar
    41     9     5   ar
    42    34    29   ar
    43     6    10    1
    44    23    26    1
@<TRIPOS>MOLECULE
*****
 40 44 0 0 0
SMALL
GASTEIGER

@<TRIPOS>ATOM
      1 C         -28.6272   50.3059  -10.3099 C.ar    1  UNL1        0.0675
      2 C         -29.6004   50.3359  -11.3321 C.ar    1  UNL1        0.0193
      3 C         -29.2883   50.8462  -12.6118 C.ar    1  UNL1        0.0398
      4 C         -27.9919   51.3407  -12.8919 C.ar    1  UNL1        0.1557
      5 C         -27.0578   51.2964  -11.8574 C.ar    1  UNL1        0.1112
      6 N         -25.7846   51.7131  -11.8729 N.ar    1  UNL1       -0.3349
      7 C         -25.3363   51.4581  -10.6151 C.ar    1  UNL1        0.1406
      8 N         -26.2836   50.8972   -9.8163 N.ar    1  UNL1       -0.2257
      9 C         -27.3557   50.8017  -10.6227 C.ar    1  UNL1        0.1146
     10 H         -25.2748   52.1313  -12.6813 H       1  UNL1        0.1675
     11 N         -29.8412   48.6644   -6.5710 N.3     1  UNL1       -0.2655
     12 C         -30.4902   49.8784   -7.1069 C.3     1  UNL1        0.0941
     13 C         -29.5105   50.6616   -7.9831 C.3     1  UNL1        0.1082
     14 N         -28.9418   49.7805   -9.0071 N.pl3   1  UNL1       -0.3034
     15 C         -28.4150   48.4817   -8.5783 C.3     1  UNL1        0.1082
     16 C         -29.4360   47.7775   -7.6832 C.3     1  UNL1        0.0941
     17 C         -30.7601   47.9624   -5.6511 C.3     1  UNL1        0.1154
     18 N         -28.8123   47.1046   -2.5285 N.am    1  UNL1       -0.0442
     19 C         -29.2869   47.0867   -3.8090 C.2     1  UNL1        0.2969
     20 C         -30.2372   48.0204   -4.2349 C.2     1  UNL1        0.1684
     21 C         -30.6973   48.9624   -3.3034 C.2     1  UNL1        0.4261
     22 O         -31.5617   49.8205   -3.6303 O.2     1  UNL1       -0.2139
     23 N         -30.2140   48.9486   -2.0335 N.am    1  UNL1       -0.0486
     24 C         -29.2887   48.0323   -1.6388 C.2     1  UNL1        0.6659
     25 O         -28.8790   48.0454   -0.4450 O.2     1  UNL1       -0.1527
     26 H         -30.5660   49.6516   -1.3436 H       1  UNL1        0.4575
     27 C         -26.4759   46.3601   -2.7413 C.3     1  UNL1        0.0920
     28 C         -27.8379   46.0826   -2.1135 C.3     1  UNL1        0.3234
     29 C         -23.9603   51.7489  -10.1379 C.ar    1  UNL1        0.0339
     30 C         -23.0268   52.3294  -11.0103 C.ar    1  UNL1        0.0027
     31 C         -21.7264   52.6123  -10.5843 C.ar    1  UNL1       -0.0042
     32 C         -21.3131   52.3211   -9.2644 C.ar    1  UNL1       -0.0228
     33 C         -22.2601   51.7345   -8.3974 C.ar    1  UNL1       -0.0042
     34 C         -23.5597   51.4529   -8.8256 C.ar    1  UNL1        0.0027
     35 C         -19.8883   52.6155   -8.7507 C.3     1  UNL1        0.0189
     36 C         -19.8017   52.2727   -7.2475 C.3     1  UNL1        0.0044
     37 C         -18.8713   51.7555   -9.5323 C.3     1  UNL1        0.0044
     38 C         -19.4767   54.0981   -8.9186 C.3     1  UNL1        0.0044
     39 O         -27.6226   51.8619  -14.1401 O.3     1  UNL1       -0.4699
     40 C         -26.3587   51.6389  -14.7554 C.3     1  UNL1        0.2525
@<TRIPOS>BOND
     1    27    28    1
     2    28    18    1
     3    18    19    1
     4    19    20    2
     5    20    17    1
     6    17    11    1
     7    11    12    1
     8    12    13    1
     9    13    14    1
    10    14     1    1
    11     1     2   ar
    12     2     3   ar
    13     3     4   ar
    14     4    39    1
    15    39    40    1
    16     4     5   ar
    17     5     6   ar
    18     6     7   ar
    19     7    29    1
    20    29    30   ar
    21    30    31   ar
    22    31    32   ar
    23    32    35    1
    24    35    36    1
    25    35    37    1
    26    35    38    1
    27    32    33   ar
    28    33    34   ar
    29     7     8   ar
    30     8     9   ar
    31    14    15    1
    32    15    16    1
    33    20    21    1
    34    21    22    2
    35    21    23    1
    36    23    24    1
    37    24    25    2
    38    24    18    1
    39    16    11    1
    40     9     1   ar
    41     9     5   ar
    42    34    29   ar
    43     6    10    1
    44    23    26    1
@<TRIPOS>MOLECULE
*****
 40 44 0 0 0
SMALL
GASTEIGER

@<TRIPOS>ATOM
      1 C         -28.7846   49.4917   -7.9961 C.ar    1  UNL1        0.0675
      2 C         -29.5542   49.2843   -6.8309 C.ar    1  UNL1        0.0193
      3 C         -29.0681   49.6786   -5.5646 C.ar    1  UNL1        0.0398
      4 C         -27.7963   50.2874   -5.4405 C.ar    1  UNL1        0.1557
      5 C         -27.0644   50.4743   -6.6127 C.ar    1  UNL1        0.1112
      6 N         -25.8439   51.0095   -6.7504 N.ar    1  UNL1       -0.3349
      7 C         -25.5976   50.9358   -8.0854 C.ar    1  UNL1        0.1406
      8 N         -26.6203   50.3747   -8.7847 N.ar    1  UNL1       -0.2257
      9 C         -27.5326   50.0975   -7.8362 C.ar    1  UNL1        0.1146
     10 H         -25.2412   51.3927   -5.9900 H       1  UNL1        0.1675
     11 N         -30.5180   48.2201  -11.6739 N.3     1  UNL1       -0.2655
     12 C         -30.1114   47.2338  -10.6521 C.3     1  UNL1        0.0941
     13 C         -28.9426   47.7755   -9.8265 C.3     1  UNL1        0.1082
     14 N         -29.2811   49.0960   -9.2881 N.pl3   1  UNL1       -0.3034
     15 C         -29.8409   50.0891  -10.2094 C.3     1  UNL1        0.1082
     16 C         -30.9783   49.4635  -11.0183 C.3     1  UNL1        0.0941
     17 C         -31.5827   47.6550  -12.5285 C.3     1  UNL1        0.1154
     18 N         -31.0551   47.9506  -16.2588 N.am    1  UNL1       -0.0442
     19 C         -31.4977   48.1811  -14.9874 C.2     1  UNL1        0.2969
     20 C         -31.0589   47.3903  -13.9206 C.2     1  UNL1        0.1684
     21 C         -30.1651   46.3463  -14.1998 C.2     1  UNL1        0.4261
     22 O         -29.7455   45.5954  -13.2777 O.2     1  UNL1       -0.2139
     23 N         -29.7506   46.1350  -15.4765 N.am    1  UNL1       -0.0486
     24 C         -30.1885   46.9164  -16.5009 C.2     1  UNL1        0.6659
     25 O         -29.7905   46.6745  -17.6739 O.2     1  UNL1       -0.1527
     26 H         -29.0876   45.3512  -15.6769 H       1  UNL1        0.4575
     27 C         -30.4494   49.6389  -17.9444 C.3     1  UNL1        0.0920
     28 C         -31.5686   48.7858  -17.3565 C.3     1  UNL1        0.3234
     29 C         -24.3519   51.4132   -8.7380 C.ar    1  UNL1        0.0339
     30 C         -23.1263   51.3122   -8.0618 C.ar    1  UNL1        0.0027
     31 C         -21.9411   51.7545   -8.6552 C.ar    1  UNL1       -0.0042
     32 C         -21.9420   52.3173   -9.9517 C.ar    1  UNL1       -0.0228
     33 C         -23.1812   52.4164  -10.6204 C.ar    1  UNL1       -0.0042
     34 C         -24.3648   51.9731  -10.0251 C.ar    1  UNL1        0.0027
     35 C         -20.6586   52.8190  -10.6458 C.3     1  UNL1        0.0189
     36 C         -19.9378   51.6298  -11.3175 C.3     1  UNL1        0.0044
     37 C         -21.0293   53.8662  -11.7186 C.3     1  UNL1        0.0044
     38 C         -19.6590   53.4822   -9.6678 C.3     1  UNL1        0.0044
     39 O         -27.2584   50.6975   -4.2123 O.3     1  UNL1       -0.4699
     40 C         -25.9220   50.4347   -3.7991 C.3     1  UNL1        0.2525
@<TRIPOS>BOND
     1    27    28    1
     2    28    18    1
     3    18    19    1
     4    19    20    2
     5    20    17    1
     6    17    11    1
     7    11    12    1
     8    12    13    1
     9    13    14    1
    10    14     1    1
    11     1     2   ar
    12     2     3   ar
    13     3     4   ar
    14     4    39    1
    15    39    40    1
    16     4     5   ar
    17     5     6   ar
    18     6     7   ar
    19     7    29    1
    20    29    30   ar
    21    30    31   ar
    22    31    32   ar
    23    32    35    1
    24    35    36    1
    25    35    37    1
    26    35    38    1
    27    32    33   ar
    28    33    34   ar
    29     7     8   ar
    30     8     9   ar
    31    14    15    1
    32    15    16    1
    33    20    21    1
    34    21    22    2
    35    21    23    1
    36    23    24    1
    37    24    25    2
    38    24    18    1
    39    16    11    1
    40     9     1   ar
    41     9     5   ar
    42    34    29   ar
    43     6    10    1
    44    23    26    1
