@<TRIPOS>MOLECULE
*****
 45 50 0 0 0
SMALL
GASTEIGER

@<TRIPOS>ATOM
      1 C         -63.6730  -51.6862  -24.2019 C.ar    1  UNL1        0.0702
      2 C         -63.2124  -52.4373  -23.1102 C.ar    1  UNL1        0.0191
      3 C         -63.9330  -53.5480  -22.6679 C.ar    1  UNL1        0.0356
      4 C         -65.1313  -53.9049  -23.3131 C.ar    1  UNL1        0.1318
      5 N         -65.5643  -53.1438  -24.3577 N.ar    1  UNL1       -0.2279
      6 C         -64.8801  -52.0585  -24.8048 C.ar    1  UNL1        0.1149
      7 N         -65.9016  -55.0563  -22.8925 N.pl3   1  UNL1       -0.2924
      8 C         -66.8094  -55.7386  -23.8319 C.3     1  UNL1        0.0923
      9 C         -67.7559  -56.7091  -23.1098 C.3     1  UNL1        0.0261
     10 C         -68.3380  -56.0461  -21.8466 C.3     1  UNL1        0.0576
     11 C         -67.2181  -55.5825  -20.8631 C.3     1  UNL1        0.0805
     12 BR        -67.6387  -53.8196  -20.1466 Br      1  UNL1       -0.0798
     13 C         -65.8212  -55.5501  -21.5090 C.3     1  UNL1        0.1036
     14 C         -69.3346  -57.0019  -21.1597 C.3     1  UNL1        0.2062
     15 O         -70.5274  -56.3164  -20.7749 O.3     1  UNL1       -0.4754
     16 C         -70.7920  -55.7884  -19.5005 C.ar    1  UNL1        0.1388
     17 C         -70.3031  -56.3724  -18.3171 C.ar    1  UNL1        0.0369
     18 C         -70.6097  -55.8081  -17.0778 C.ar    1  UNL1        0.0033
     19 C         -71.3954  -54.6560  -17.0022 C.ar    1  UNL1        0.0066
     20 C         -71.8794  -54.0476  -18.1735 C.ar    1  UNL1        0.0785
     21 C         -71.5744  -54.6299  -19.4176 C.ar    1  UNL1        0.0433
     22 C         -72.7193  -52.8263  -18.1132 C.2     1  UNL1        0.3381
     23 O         -73.5948  -52.7138  -17.2142 O.2     1  UNL1       -0.2451
     24 O         -72.5805  -51.7924  -19.0386 O.3     1  UNL1       -0.4771
     25 H         -71.9725  -51.8593  -19.8443 H       1  UNL1        0.2954
     26 C         -63.6166  -49.2914  -25.0291 C.2     1  UNL1        0.2839
     27 O         -64.7301  -48.9925  -24.5197 O.2     1  UNL1       -0.2665
     28 N         -62.9708  -50.5220  -24.6704 N.am    1  UNL1       -0.2766
     29 H         -61.9267  -50.5344  -24.6450 H       1  UNL1        0.1553
     30 C         -63.8744  -49.0954  -28.2470 C.3     1  UNL1        0.0345
     31 C         -63.0675  -48.2383  -27.3190 C.ar    1  UNL1        0.0202
     32 C         -62.9636  -48.3203  -25.9247 C.ar    1  UNL1        0.1946
     33 O         -62.1743  -47.3612  -25.4735 O.2     1  UNL1       -0.4492
     34 C         -61.7432  -46.6758  -26.5040 C.ar    1  UNL1        0.1452
     35 C         -60.8849  -45.5819  -26.4926 C.ar    1  UNL1        0.0375
     36 C         -60.5486  -44.9941  -27.7246 C.ar    1  UNL1        0.0031
     37 C         -61.0719  -45.5056  -28.9432 C.ar    1  UNL1        0.0002
     38 C         -61.9432  -46.6208  -28.9097 C.ar    1  UNL1        0.0028
     39 C         -62.2554  -47.1779  -27.6693 C.ar    1  UNL1        0.0337
     40 C         -60.7088  -44.8775  -30.2388 C.ar    1  UNL1        0.0000
     41 C         -61.6424  -44.0899  -30.9390 C.ar    1  UNL1        0.0000
     42 C         -61.2979  -43.5004  -32.1593 C.ar    1  UNL1        0.0000
     43 C         -60.0213  -43.6889  -32.6934 C.ar    1  UNL1        0.0000
     44 C         -59.0862  -44.4678  -32.0084 C.ar    1  UNL1        0.0000
     45 C         -59.4253  -45.0604  -30.7882 C.ar    1  UNL1        0.0000
@<TRIPOS>BOND
     1    30    31    1
     2    31    32   ar
     3    32    26    1
     4    26    27    2
     5    26    28   am
     6    28     1    1
     7     1     2   ar
     8     2     3   ar
     9     3     4   ar
    10     4     7    1
    11     7     8    1
    12     8     9    1
    13     9    10    1
    14    10    14    1
    15    14    15    1
    16    15    16    1
    17    16    17   ar
    18    17    18   ar
    19    18    19   ar
    20    19    20   ar
    21    20    22    1
    22    22    23    2
    23    22    24    1
    24    20    21   ar
    25    10    11    1
    26    11    12    1
    27    11    13    1
    28     4     5   ar
    29     5     6   ar
    30    32    33   ar
    31    33    34   ar
    32    34    35   ar
    33    35    36   ar
    34    36    37   ar
    35    37    40    1
    36    40    41   ar
    37    41    42   ar
    38    42    43   ar
    39    43    44   ar
    40    44    45   ar
    41    37    38   ar
    42    38    39   ar
    43    39    31   ar
    44     6     1   ar
    45    39    34   ar
    46    13     7    1
    47    45    40   ar
    48    21    16   ar
    49    28    29    1
    50    24    25    1
@<TRIPOS>MOLECULE
*****
 45 50 0 0 0
SMALL
GASTEIGER

@<TRIPOS>ATOM
      1 C         -63.6614  -51.6622  -24.2194 C.ar    1  UNL1        0.0702
      2 C         -63.2147  -52.4037  -23.1153 C.ar    1  UNL1        0.0191
      3 C         -63.9459  -53.5048  -22.6667 C.ar    1  UNL1        0.0356
      4 C         -65.1408  -53.8618  -23.3181 C.ar    1  UNL1        0.1318
      5 N         -65.5602  -53.1100  -24.3749 N.ar    1  UNL1       -0.2279
      6 C         -64.8655  -52.0340  -24.8284 C.ar    1  UNL1        0.1149
      7 N         -65.9217  -55.0036  -22.8912 N.pl3   1  UNL1       -0.2924
      8 C         -66.8319  -55.6859  -23.8283 C.3     1  UNL1        0.0923
      9 C         -67.7886  -56.6431  -23.1018 C.3     1  UNL1        0.0261
     10 C         -68.3694  -55.9656  -21.8458 C.3     1  UNL1        0.0576
     11 C         -67.2491  -55.5034  -20.8622 C.3     1  UNL1        0.0805
     12 BR        -67.6577  -53.7317  -20.1607 Br      1  UNL1       -0.0798
     13 C         -65.8499  -55.4873  -21.5036 C.3     1  UNL1        0.1036
     14 C         -69.3759  -56.9080  -21.1548 C.3     1  UNL1        0.2062
     15 O         -70.4105  -56.1707  -20.5015 O.3     1  UNL1       -0.4754
     16 C         -71.7621  -56.1452  -20.8827 C.ar    1  UNL1        0.1388
     17 C         -72.8164  -56.1237  -19.9509 C.ar    1  UNL1        0.0369
     18 C         -74.1410  -56.1107  -20.3907 C.ar    1  UNL1        0.0033
     19 C         -74.4308  -56.1099  -21.7568 C.ar    1  UNL1        0.0066
     20 C         -73.3919  -56.1140  -22.7038 C.ar    1  UNL1        0.0785
     21 C         -72.0598  -56.1384  -22.2511 C.ar    1  UNL1        0.0433
     22 C         -73.6798  -56.1181  -24.1590 C.2     1  UNL1        0.3381
     23 O         -73.1740  -57.0078  -24.8937 O.2     1  UNL1       -0.2451
     24 O         -74.4898  -55.1492  -24.7507 O.3     1  UNL1       -0.4771
     25 H         -74.8440  -54.3496  -24.2423 H       1  UNL1        0.2954
     26 C         -63.5784  -49.2624  -25.0297 C.2     1  UNL1        0.2839
     27 O         -64.6743  -48.9468  -24.4930 O.2     1  UNL1       -0.2665
     28 N         -62.9480  -50.5077  -24.6949 N.am    1  UNL1       -0.2766
     29 H         -61.9040  -50.5399  -24.6933 H       1  UNL1        0.1553
     30 C         -63.8730  -49.0622  -28.2442 C.3     1  UNL1        0.0345
     31 C         -63.0473  -48.2129  -27.3255 C.ar    1  UNL1        0.0202
     32 C         -62.9275  -48.2967  -25.9326 C.ar    1  UNL1        0.1946
     33 O         -62.1242  -47.3449  -25.4904 O.2     1  UNL1       -0.4492
     34 C         -61.6994  -46.6628  -26.5257 C.ar    1  UNL1        0.1452
     35 C         -60.8313  -45.5766  -26.5240 C.ar    1  UNL1        0.0375
     36 C         -60.5045  -44.9911  -27.7597 C.ar    1  UNL1        0.0031
     37 C         -61.0469  -45.4972  -28.9721 C.ar    1  UNL1        0.0002
     38 C         -61.9278  -46.6046  -28.9288 C.ar    1  UNL1        0.0028
     39 C         -62.2301  -47.1596  -27.6850 C.ar    1  UNL1        0.0337
     40 C         -60.6938  -44.8716  -30.2717 C.ar    1  UNL1        0.0000
     41 C         -61.6369  -44.0958  -30.9725 C.ar    1  UNL1        0.0000
     42 C         -61.3018  -43.5087  -32.1964 C.ar    1  UNL1        0.0000
     43 C         -60.0252  -43.6876  -32.7338 C.ar    1  UNL1        0.0000
     44 C         -59.0807  -44.4547  -32.0483 C.ar    1  UNL1        0.0000
     45 C         -59.4105  -45.0450  -30.8244 C.ar    1  UNL1        0.0000
@<TRIPOS>BOND
     1    30    31    1
     2    31    32   ar
     3    32    26    1
     4    26    27    2
     5    26    28   am
     6    28     1    1
     7     1     2   ar
     8     2     3   ar
     9     3     4   ar
    10     4     7    1
    11     7     8    1
    12     8     9    1
    13     9    10    1
    14    10    14    1
    15    14    15    1
    16    15    16    1
    17    16    17   ar
    18    17    18   ar
    19    18    19   ar
    20    19    20   ar
    21    20    22    1
    22    22    23    2
    23    22    24    1
    24    20    21   ar
    25    10    11    1
    26    11    12    1
    27    11    13    1
    28     4     5   ar
    29     5     6   ar
    30    32    33   ar
    31    33    34   ar
    32    34    35   ar
    33    35    36   ar
    34    36    37   ar
    35    37    40    1
    36    40    41   ar
    37    41    42   ar
    38    42    43   ar
    39    43    44   ar
    40    44    45   ar
    41    37    38   ar
    42    38    39   ar
    43    39    31   ar
    44     6     1   ar
    45    39    34   ar
    46    13     7    1
    47    45    40   ar
    48    21    16   ar
    49    28    29    1
    50    24    25    1
@<TRIPOS>MOLECULE
*****
 45 50 0 0 0
SMALL
GASTEIGER

@<TRIPOS>ATOM
      1 C         -63.9016  -51.8186  -24.3641 C.ar    1  UNL1        0.0702
      2 C         -64.6906  -52.5745  -25.2441 C.ar    1  UNL1        0.0191
      3 C         -65.3872  -53.6914  -24.7797 C.ar    1  UNL1        0.0356
      4 C         -65.2853  -54.0650  -23.4270 C.ar    1  UNL1        0.1318
      5 N         -64.4946  -53.3234  -22.6007 N.ar    1  UNL1       -0.2279
      6 C         -63.8072  -52.2332  -23.0306 C.ar    1  UNL1        0.1149
      7 N         -66.0010  -55.2095  -22.9036 N.pl3   1  UNL1       -0.2924
      8 C         -66.9887  -55.9231  -23.7327 C.3     1  UNL1        0.0923
      9 C         -67.8524  -56.8798  -22.8970 C.3     1  UNL1        0.0261
     10 C         -68.3161  -56.1864  -21.6016 C.3     1  UNL1        0.0576
     11 C         -67.1111  -55.6888  -20.7435 C.3     1  UNL1        0.0805
     12 BR        -67.4768  -53.9099  -20.0366 Br      1  UNL1       -0.0798
     13 C         -65.7832  -55.6649  -21.5218 C.3     1  UNL1        0.1036
     14 C         -69.2331  -57.1297  -20.7967 C.3     1  UNL1        0.2062
     15 O         -70.3624  -56.4297  -20.2717 O.3     1  UNL1       -0.4754
     16 C         -70.7178  -56.3518  -18.9151 C.ar    1  UNL1        0.1388
     17 C         -72.0549  -56.3532  -18.4763 C.ar    1  UNL1        0.0369
     18 C         -72.3463  -56.2617  -17.1143 C.ar    1  UNL1        0.0033
     19 C         -71.3150  -56.1772  -16.1764 C.ar    1  UNL1        0.0066
     20 C         -69.9724  -56.1914  -16.5930 C.ar    1  UNL1        0.0785
     21 C         -69.6886  -56.2727  -17.9687 C.ar    1  UNL1        0.0433
     22 C         -68.8635  -56.0978  -15.6121 C.2     1  UNL1        0.3381
     23 O         -68.8815  -56.8173  -14.5780 O.2     1  UNL1       -0.2451
     24 O         -67.7961  -55.2184  -15.7911 O.3     1  UNL1       -0.4771
     25 H         -67.7677  -54.5406  -16.5415 H       1  UNL1        0.2954
     26 C         -63.7291  -49.3843  -25.0478 C.2     1  UNL1        0.2839
     27 O         -64.7813  -49.0447  -24.4425 O.2     1  UNL1       -0.2665
     28 N         -63.1508  -50.6765  -24.8111 N.am    1  UNL1       -0.2766
     29 H         -62.1109  -50.7610  -24.8617 H       1  UNL1        0.1553
     30 C         -63.9148  -49.1915  -28.2708 C.3     1  UNL1        0.0345
     31 C         -63.1426  -48.3226  -27.3244 C.ar    1  UNL1        0.0202
     32 C         -63.0700  -48.4034  -25.9280 C.ar    1  UNL1        0.1946
     33 O         -62.3058  -47.4327  -25.4586 O.2     1  UNL1       -0.4492
     34 C         -61.8611  -46.7408  -26.4789 C.ar    1  UNL1        0.1452
     35 C         -61.0198  -45.6341  -26.4476 C.ar    1  UNL1        0.0375
     36 C         -60.6637  -45.0411  -27.6716 C.ar    1  UNL1        0.0031
     37 C         -61.1507  -45.5601  -28.9019 C.ar    1  UNL1        0.0002
     38 C         -62.0059  -46.6882  -28.8886 C.ar    1  UNL1        0.0028
     39 C         -62.3385  -47.2502  -27.6557 C.ar    1  UNL1        0.0337
     40 C         -60.7669  -44.9264  -30.1888 C.ar    1  UNL1        0.0000
     41 C         -61.6960  -44.1537  -30.9114 C.ar    1  UNL1        0.0000
     42 C         -61.3321  -43.5590  -32.1233 C.ar    1  UNL1        0.0000
     43 C         -60.0403  -43.7270  -32.6269 C.ar    1  UNL1        0.0000
     44 C         -59.1094  -44.4909  -31.9195 C.ar    1  UNL1        0.0000
     45 C         -59.4680  -45.0888  -30.7074 C.ar    1  UNL1        0.0000
@<TRIPOS>BOND
     1    30    31    1
     2    31    32   ar
     3    32    26    1
     4    26    27    2
     5    26    28   am
     6    28     1    1
     7     1     2   ar
     8     2     3   ar
     9     3     4   ar
    10     4     7    1
    11     7     8    1
    12     8     9    1
    13     9    10    1
    14    10    14    1
    15    14    15    1
    16    15    16    1
    17    16    17   ar
    18    17    18   ar
    19    18    19   ar
    20    19    20   ar
    21    20    22    1
    22    22    23    2
    23    22    24    1
    24    20    21   ar
    25    10    11    1
    26    11    12    1
    27    11    13    1
    28     4     5   ar
    29     5     6   ar
    30    32    33   ar
    31    33    34   ar
    32    34    35   ar
    33    35    36   ar
    34    36    37   ar
    35    37    40    1
    36    40    41   ar
    37    41    42   ar
    38    42    43   ar
    39    43    44   ar
    40    44    45   ar
    41    37    38   ar
    42    38    39   ar
    43    39    31   ar
    44     6     1   ar
    45    39    34   ar
    46    13     7    1
    47    45    40   ar
    48    21    16   ar
    49    28    29    1
    50    24    25    1
@<TRIPOS>MOLECULE
*****
 45 50 0 0 0
SMALL
GASTEIGER

@<TRIPOS>ATOM
      1 C         -63.2419  -51.5780  -23.3537 C.ar    1  UNL1        0.0702
      2 C         -61.9863  -51.1531  -22.8942 C.ar    1  UNL1        0.0191
      3 C         -61.3289  -50.0955  -23.5247 C.ar    1  UNL1        0.0356
      4 C         -61.9243  -49.4642  -24.6322 C.ar    1  UNL1        0.1318
      5 N         -63.1352  -49.9127  -25.0687 N.ar    1  UNL1       -0.2279
      6 C         -63.7930  -50.9405  -24.4713 C.ar    1  UNL1        0.1149
      7 N         -61.2805  -48.3565  -25.3064 N.pl3   1  UNL1       -0.2924
      8 C         -61.0509  -47.0801  -24.6062 C.3     1  UNL1        0.0923
      9 C         -60.6630  -45.9560  -25.5785 C.3     1  UNL1        0.0261
     10 C         -61.5793  -45.9819  -26.8169 C.3     1  UNL1        0.0576
     11 C         -61.5194  -47.3546  -27.5575 C.3     1  UNL1        0.0805
     12 BR        -63.3091  -47.9089  -28.0941 Br      1  UNL1       -0.0798
     13 C         -60.8720  -48.4686  -26.7152 C.3     1  UNL1        0.1036
     14 C         -61.2259  -44.8140  -27.7601 C.3     1  UNL1        0.2062
     15 O         -60.2303  -45.1989  -28.7096 O.3     1  UNL1       -0.4754
     16 C         -60.1899  -44.8049  -30.0572 C.ar    1  UNL1        0.1388
     17 C         -59.0838  -45.0530  -30.8909 C.ar    1  UNL1        0.0369
     18 C         -59.0974  -44.6265  -32.2199 C.ar    1  UNL1        0.0033
     19 C         -60.2107  -43.9591  -32.7352 C.ar    1  UNL1        0.0066
     20 C         -61.3326  -43.7166  -31.9236 C.ar    1  UNL1        0.0785
     21 C         -61.3053  -44.1403  -30.5821 C.ar    1  UNL1        0.0433
     22 C         -62.5224  -43.0051  -32.4517 C.2     1  UNL1        0.3381
     23 O         -62.6545  -42.8455  -33.6944 O.2     1  UNL1       -0.2451
     24 O         -63.5041  -42.4876  -31.6072 O.3     1  UNL1       -0.4771
     25 H         -63.4128  -42.4882  -30.5998 H       1  UNL1        0.2954
     26 C         -64.9716  -53.4297  -23.4002 C.2     1  UNL1        0.2839
     27 O         -65.0011  -53.4957  -24.6585 O.2     1  UNL1       -0.2665
     28 N         -63.9381  -52.6794  -22.7452 N.am    1  UNL1       -0.2766
     29 H         -63.6001  -53.0228  -21.8185 H       1  UNL1        0.1553
     30 C         -68.1172  -52.7799  -23.0214 C.3     1  UNL1        0.0345
     31 C         -67.3217  -53.9172  -22.4549 C.ar    1  UNL1        0.0202
     32 C         -65.9610  -54.2008  -22.6268 C.ar    1  UNL1        0.1946
     33 O         -65.6474  -55.3141  -21.9875 O.2     1  UNL1       -0.4492
     34 C         -66.7283  -55.7547  -21.3916 C.ar    1  UNL1        0.1452
     35 C         -66.8547  -56.8932  -20.6033 C.ar    1  UNL1        0.0375
     36 C         -68.1174  -57.1799  -20.0557 C.ar    1  UNL1        0.0031
     37 C         -69.2290  -56.3290  -20.3024 C.ar    1  UNL1        0.0002
     38 C         -69.0568  -55.1802  -21.1114 C.ar    1  UNL1        0.0028
     39 C         -67.7900  -54.9275  -21.6385 C.ar    1  UNL1        0.0337
     40 C         -70.5578  -56.6410  -19.7177 C.ar    1  UNL1        0.0000
     41 C         -70.7402  -56.6550  -18.3217 C.ar    1  UNL1        0.0000
     42 C         -71.9925  -56.9500  -17.7740 C.ar    1  UNL1        0.0000
     43 C         -73.0746  -57.2330  -18.6104 C.ar    1  UNL1        0.0000
     44 C         -72.9066  -57.2221  -19.9968 C.ar    1  UNL1        0.0000
     45 C         -71.6564  -56.9286  -20.5501 C.ar    1  UNL1        0.0000
@<TRIPOS>BOND
     1    30    31    1
     2    31    32   ar
     3    32    26    1
     4    26    27    2
     5    26    28   am
     6    28     1    1
     7     1     2   ar
     8     2     3   ar
     9     3     4   ar
    10     4     7    1
    11     7     8    1
    12     8     9    1
    13     9    10    1
    14    10    14    1
    15    14    15    1
    16    15    16    1
    17    16    17   ar
    18    17    18   ar
    19    18    19   ar
    20    19    20   ar
    21    20    22    1
    22    22    23    2
    23    22    24    1
    24    20    21   ar
    25    10    11    1
    26    11    12    1
    27    11    13    1
    28     4     5   ar
    29     5     6   ar
    30    32    33   ar
    31    33    34   ar
    32    34    35   ar
    33    35    36   ar
    34    36    37   ar
    35    37    40    1
    36    40    41   ar
    37    41    42   ar
    38    42    43   ar
    39    43    44   ar
    40    44    45   ar
    41    37    38   ar
    42    38    39   ar
    43    39    31   ar
    44     6     1   ar
    45    39    34   ar
    46    13     7    1
    47    45    40   ar
    48    21    16   ar
    49    28    29    1
    50    24    25    1
@<TRIPOS>MOLECULE
*****
 45 50 0 0 0
SMALL
GASTEIGER

@<TRIPOS>ATOM
      1 C         -64.6317  -53.2571  -23.3752 C.ar    1  UNL1        0.0702
      2 C         -64.1678  -54.3201  -22.5859 C.ar    1  UNL1        0.0191
      3 C         -65.0678  -55.2458  -22.0555 C.ar    1  UNL1        0.0356
      4 C         -66.4451  -55.1021  -22.3044 C.ar    1  UNL1        0.1318
      5 N         -66.8678  -54.0475  -23.0574 N.ar    1  UNL1       -0.2279
      6 C         -66.0104  -53.1341  -23.5833 C.ar    1  UNL1        0.1149
      7 N         -67.4096  -56.0472  -21.7823 N.pl3   1  UNL1       -0.2924
      8 C         -68.5397  -56.5044  -22.6105 C.3     1  UNL1        0.0923
      9 C         -69.6030  -57.2331  -21.7751 C.3     1  UNL1        0.0261
     10 C         -69.8870  -56.4546  -20.4762 C.3     1  UNL1        0.0576
     11 C         -68.5966  -56.2587  -19.6202 C.3     1  UNL1        0.0805
     12 BR        -68.5304  -54.4463  -18.9070 Br      1  UNL1       -0.0798
     13 C         -67.3024  -56.5462  -20.4025 C.3     1  UNL1        0.1036
     14 C         -70.9990  -57.1576  -19.6713 C.3     1  UNL1        0.2062
     15 O         -71.2883  -56.4518  -18.4634 O.3     1  UNL1       -0.4754
     16 C         -72.4555  -55.7136  -18.2073 C.ar    1  UNL1        0.1388
     17 C         -73.7108  -56.3175  -18.0082 C.ar    1  UNL1        0.0369
     18 C         -74.8381  -55.5299  -17.7689 C.ar    1  UNL1        0.0033
     19 C         -74.7284  -54.1387  -17.7162 C.ar    1  UNL1        0.0066
     20 C         -73.4805  -53.5168  -17.8956 C.ar    1  UNL1        0.0785
     21 C         -72.3517  -54.3183  -18.1474 C.ar    1  UNL1        0.0433
     22 C         -73.3448  -52.0403  -17.8478 C.2     1  UNL1        0.3381
     23 O         -73.7255  -51.3458  -18.8277 O.2     1  UNL1       -0.2451
     24 O         -72.7896  -51.3885  -16.7472 O.3     1  UNL1       -0.4771
     25 H         -72.3706  -51.8862  -15.9726 H       1  UNL1        0.2954
     26 C         -62.7396  -51.5868  -23.1457 C.2     1  UNL1        0.2839
     27 O         -62.2677  -52.1253  -22.1083 O.2     1  UNL1       -0.2665
     28 N         -63.7375  -52.2706  -23.9183 N.am    1  UNL1       -0.2766
     29 H         -63.7392  -52.1216  -24.9521 H       1  UNL1        0.1553
     30 C         -64.0935  -49.4508  -25.1616 C.3     1  UNL1        0.0345
     31 C         -62.7687  -49.3703  -24.4649 C.ar    1  UNL1        0.0202
     32 C         -62.1879  -50.2933  -23.5861 C.ar    1  UNL1        0.1946
     33 O         -61.0220  -49.8395  -23.1603 O.2     1  UNL1       -0.4492
     34 C         -60.8063  -48.6813  -23.7344 C.ar    1  UNL1        0.1452
     35 C         -59.6997  -47.8538  -23.5792 C.ar    1  UNL1        0.0375
     36 C         -59.6729  -46.6459  -24.2980 C.ar    1  UNL1        0.0031
     37 C         -60.7464  -46.2850  -25.1570 C.ar    1  UNL1        0.0002
     38 C         -61.8546  -47.1564  -25.2855 C.ar    1  UNL1        0.0028
     39 C         -61.8474  -48.3460  -24.5567 C.ar    1  UNL1        0.0337
     40 C         -60.7068  -45.0072  -25.9124 C.ar    1  UNL1        0.0000
     41 C         -60.7904  -43.7741  -25.2381 C.ar    1  UNL1        0.0000
     42 C         -60.7538  -42.5725  -25.9522 C.ar    1  UNL1        0.0000
     43 C         -60.6330  -42.5870  -27.3435 C.ar    1  UNL1        0.0000
     44 C         -60.5489  -43.8037  -28.0240 C.ar    1  UNL1        0.0000
     45 C         -60.5859  -45.0085  -27.3152 C.ar    1  UNL1        0.0000
@<TRIPOS>BOND
     1    30    31    1
     2    31    32   ar
     3    32    26    1
     4    26    27    2
     5    26    28   am
     6    28     1    1
     7     1     2   ar
     8     2     3   ar
     9     3     4   ar
    10     4     7    1
    11     7     8    1
    12     8     9    1
    13     9    10    1
    14    10    14    1
    15    14    15    1
    16    15    16    1
    17    16    17   ar
    18    17    18   ar
    19    18    19   ar
    20    19    20   ar
    21    20    22    1
    22    22    23    2
    23    22    24    1
    24    20    21   ar
    25    10    11    1
    26    11    12    1
    27    11    13    1
    28     4     5   ar
    29     5     6   ar
    30    32    33   ar
    31    33    34   ar
    32    34    35   ar
    33    35    36   ar
    34    36    37   ar
    35    37    40    1
    36    40    41   ar
    37    41    42   ar
    38    42    43   ar
    39    43    44   ar
    40    44    45   ar
    41    37    38   ar
    42    38    39   ar
    43    39    31   ar
    44     6     1   ar
    45    39    34   ar
    46    13     7    1
    47    45    40   ar
    48    21    16   ar
    49    28    29    1
    50    24    25    1
@<TRIPOS>MOLECULE
*****
 45 50 0 0 0
SMALL
GASTEIGER

@<TRIPOS>ATOM
      1 C         -70.5315  -55.6704  -22.1354 C.ar    1  UNL1        0.0702
      2 C         -70.8556  -56.8761  -22.7753 C.ar    1  UNL1        0.0191
      3 C         -70.6775  -57.0098  -24.1532 C.ar    1  UNL1        0.0356
      4 C         -70.1832  -55.9258  -24.9017 C.ar    1  UNL1        0.1318
      5 N         -69.8968  -54.7604  -24.2555 N.ar    1  UNL1       -0.2279
      6 C         -70.0628  -54.6071  -22.9158 C.ar    1  UNL1        0.1149
      7 N         -69.9732  -56.0279  -26.3305 N.pl3   1  UNL1       -0.2924
      8 C         -69.3744  -54.9122  -27.0849 C.3     1  UNL1        0.0923
      9 C         -69.5396  -55.0932  -28.6012 C.3     1  UNL1        0.0261
     10 C         -70.9762  -55.5412  -28.9318 C.3     1  UNL1        0.0576
     11 C         -71.3542  -56.8696  -28.2047 C.3     1  UNL1        0.0805
     12 BR        -73.1663  -56.7574  -27.4961 Br      1  UNL1       -0.0798
     13 C         -70.3837  -57.2336  -27.0667 C.3     1  UNL1        0.1036
     14 C         -71.1539  -55.6615  -30.4590 C.3     1  UNL1        0.2062
     15 O         -72.2155  -56.5594  -30.7872 O.3     1  UNL1       -0.4754
     16 C         -73.2498  -56.3029  -31.7023 C.ar    1  UNL1        0.1388
     17 C         -74.2889  -57.2179  -31.9540 C.ar    1  UNL1        0.0369
     18 C         -75.2834  -56.9114  -32.8842 C.ar    1  UNL1        0.0033
     19 C         -75.2608  -55.6924  -33.5653 C.ar    1  UNL1        0.0066
     20 C         -74.2410  -54.7576  -33.3157 C.ar    1  UNL1        0.0785
     21 C         -73.2366  -55.0800  -32.3845 C.ar    1  UNL1        0.0433
     22 C         -74.1975  -53.4596  -34.0326 C.2     1  UNL1        0.3381
     23 O         -73.1202  -53.0720  -34.5585 O.2     1  UNL1       -0.2451
     24 O         -75.3191  -52.6371  -34.1323 O.3     1  UNL1       -0.4771
     25 H         -76.1854  -52.8349  -33.6489 H       1  UNL1        0.2954
     26 C         -72.0136  -55.4137  -20.0958 C.2     1  UNL1        0.2839
     27 O         -73.0089  -55.9673  -20.6358 O.2     1  UNL1       -0.2665
     28 N         -70.7242  -55.4874  -20.7222 N.am    1  UNL1       -0.2766
     29 H         -69.8835  -55.5192  -20.1032 H       1  UNL1        0.1553
     30 C         -70.9972  -56.4956  -17.2224 C.3     1  UNL1        0.0345
     31 C         -71.7550  -55.2405  -17.5351 C.ar    1  UNL1        0.0202
     32 C         -72.1873  -54.7703  -18.7815 C.ar    1  UNL1        0.1946
     33 O         -72.7958  -53.6059  -18.6386 O.2     1  UNL1       -0.4492
     34 C         -72.8006  -53.3076  -17.3625 C.ar    1  UNL1        0.1452
     35 C         -73.3417  -52.1770  -16.7605 C.ar    1  UNL1        0.0375
     36 C         -73.2358  -52.0584  -15.3637 C.ar    1  UNL1        0.0031
     37 C         -72.5945  -53.0661  -14.5932 C.ar    1  UNL1        0.0002
     38 C         -72.0564  -54.2010  -15.2462 C.ar    1  UNL1        0.0028
     39 C         -72.1793  -54.2848  -16.6334 C.ar    1  UNL1        0.0337
     40 C         -72.4896  -52.9309  -13.1181 C.ar    1  UNL1        0.0000
     41 C         -73.6483  -52.8385  -12.3236 C.ar    1  UNL1        0.0000
     42 C         -73.5463  -52.7103  -10.9349 C.ar    1  UNL1        0.0000
     43 C         -72.2908  -52.6736  -10.3244 C.ar    1  UNL1        0.0000
     44 C         -71.1340  -52.7645  -11.1016 C.ar    1  UNL1        0.0000
     45 C         -71.2298  -52.8920  -12.4907 C.ar    1  UNL1        0.0000
@<TRIPOS>BOND
     1    30    31    1
     2    31    32   ar
     3    32    26    1
     4    26    27    2
     5    26    28   am
     6    28     1    1
     7     1     2   ar
     8     2     3   ar
     9     3     4   ar
    10     4     7    1
    11     7     8    1
    12     8     9    1
    13     9    10    1
    14    10    14    1
    15    14    15    1
    16    15    16    1
    17    16    17   ar
    18    17    18   ar
    19    18    19   ar
    20    19    20   ar
    21    20    22    1
    22    22    23    2
    23    22    24    1
    24    20    21   ar
    25    10    11    1
    26    11    12    1
    27    11    13    1
    28     4     5   ar
    29     5     6   ar
    30    32    33   ar
    31    33    34   ar
    32    34    35   ar
    33    35    36   ar
    34    36    37   ar
    35    37    40    1
    36    40    41   ar
    37    41    42   ar
    38    42    43   ar
    39    43    44   ar
    40    44    45   ar
    41    37    38   ar
    42    38    39   ar
    43    39    31   ar
    44     6     1   ar
    45    39    34   ar
    46    13     7    1
    47    45    40   ar
    48    21    16   ar
    49    28    29    1
    50    24    25    1
@<TRIPOS>MOLECULE
*****
 45 50 0 0 0
SMALL
GASTEIGER

@<TRIPOS>ATOM
      1 C         -64.1749  -52.2500  -24.3549 C.ar    1  UNL1        0.0702
      2 C         -63.4682  -52.8762  -23.3173 C.ar    1  UNL1        0.0191
      3 C         -64.0562  -53.9154  -22.5944 C.ar    1  UNL1        0.0356
      4 C         -65.3667  -54.3251  -22.9014 C.ar    1  UNL1        0.1318
      5 N         -66.0359  -53.6840  -23.9010 N.ar    1  UNL1       -0.2279
      6 C         -65.4841  -52.6699  -24.6172 C.ar    1  UNL1        0.1149
      7 N         -66.0077  -55.4065  -22.1833 N.pl3   1  UNL1       -0.2924
      8 C         -66.8520  -56.3846  -22.8923 C.3     1  UNL1        0.0923
      9 C         -67.6831  -57.2343  -21.9194 C.3     1  UNL1        0.0261
     10 C         -68.3143  -56.3401  -20.8350 C.3     1  UNL1        0.0576
     11 C         -67.2358  -55.5413  -20.0381 C.3     1  UNL1        0.0805
     12 BR        -67.8277  -53.7058  -19.7580 Br      1  UNL1       -0.0798
     13 C         -65.8584  -55.5334  -20.7252 C.3     1  UNL1        0.1036
     14 C         -69.1971  -57.1893  -19.8980 C.3     1  UNL1        0.2062
     15 O         -70.1935  -56.3887  -19.2598 O.3     1  UNL1       -0.4754
     16 C         -70.3581  -56.2401  -17.8729 C.ar    1  UNL1        0.1388
     17 C         -71.6221  -56.1526  -17.2606 C.ar    1  UNL1        0.0369
     18 C         -71.7220  -55.9936  -15.8775 C.ar    1  UNL1        0.0033
     19 C         -70.5706  -55.9292  -15.0898 C.ar    1  UNL1        0.0066
     20 C         -69.2989  -56.0317  -15.6801 C.ar    1  UNL1        0.0785
     21 C         -69.2079  -56.1806  -17.0763 C.ar    1  UNL1        0.0433
     22 C         -68.0644  -55.9608  -14.8606 C.2     1  UNL1        0.3381
     23 O         -68.1510  -55.8652  -13.6073 O.2     1  UNL1       -0.2451
     24 O         -66.7958  -55.9816  -15.4394 O.3     1  UNL1       -0.4771
     25 H         -66.6523  -55.9530  -16.4403 H       1  UNL1        0.2954
     26 C         -63.9960  -49.7885  -24.9310 C.2     1  UNL1        0.2839
     27 O         -64.4690  -49.4020  -23.8285 O.2     1  UNL1       -0.2665
     28 N         -63.6113  -51.1604  -25.1052 N.am    1  UNL1       -0.2766
     29 H         -62.8014  -51.3628  -25.7329 H       1  UNL1        0.1553
     30 C         -62.6066  -46.8818  -24.6477 C.3     1  UNL1        0.0345
     31 C         -63.1779  -47.5305  -25.8724 C.ar    1  UNL1        0.0202
     32 C         -63.7722  -48.7929  -25.9941 C.ar    1  UNL1        0.1946
     33 O         -64.1203  -49.0089  -27.2505 O.2     1  UNL1       -0.4492
     34 C         -63.8034  -47.9439  -27.9453 C.ar    1  UNL1        0.1452
     35 C         -63.9961  -47.7341  -29.3063 C.ar    1  UNL1        0.0375
     36 C         -63.5793  -46.5065  -29.8504 C.ar    1  UNL1        0.0031
     37 C         -62.9798  -45.5121  -29.0306 C.ar    1  UNL1        0.0002
     38 C         -62.8015  -45.7669  -27.6496 C.ar    1  UNL1        0.0028
     39 C         -63.2264  -46.9961  -27.1446 C.ar    1  UNL1        0.0337
     40 C         -62.5446  -44.2186  -29.6158 C.ar    1  UNL1        0.0000
     41 C         -62.4395  -43.0681  -28.8111 C.ar    1  UNL1        0.0000
     42 C         -62.0303  -41.8512  -29.3652 C.ar    1  UNL1        0.0000
     43 C         -61.7215  -41.7684  -30.7247 C.ar    1  UNL1        0.0000
     44 C         -61.8216  -42.9025  -31.5334 C.ar    1  UNL1        0.0000
     45 C         -62.2310  -44.1218  -30.9851 C.ar    1  UNL1        0.0000
@<TRIPOS>BOND
     1    30    31    1
     2    31    32   ar
     3    32    26    1
     4    26    27    2
     5    26    28   am
     6    28     1    1
     7     1     2   ar
     8     2     3   ar
     9     3     4   ar
    10     4     7    1
    11     7     8    1
    12     8     9    1
    13     9    10    1
    14    10    14    1
    15    14    15    1
    16    15    16    1
    17    16    17   ar
    18    17    18   ar
    19    18    19   ar
    20    19    20   ar
    21    20    22    1
    22    22    23    2
    23    22    24    1
    24    20    21   ar
    25    10    11    1
    26    11    12    1
    27    11    13    1
    28     4     5   ar
    29     5     6   ar
    30    32    33   ar
    31    33    34   ar
    32    34    35   ar
    33    35    36   ar
    34    36    37   ar
    35    37    40    1
    36    40    41   ar
    37    41    42   ar
    38    42    43   ar
    39    43    44   ar
    40    44    45   ar
    41    37    38   ar
    42    38    39   ar
    43    39    31   ar
    44     6     1   ar
    45    39    34   ar
    46    13     7    1
    47    45    40   ar
    48    21    16   ar
    49    28    29    1
    50    24    25    1
