@<TRIPOS>MOLECULE
*****
 46 51 0 0 0
SMALL
GASTEIGER

@<TRIPOS>ATOM
      1 C          13.3376   83.0539   24.3674 C.ar    1  UNL1        0.1319
      2 C          13.9678   81.9403   24.9507 C.ar    1  UNL1        0.0356
      3 C          13.2015   80.8490   25.3630 C.ar    1  UNL1        0.0191
      4 C          11.8099   80.8564   25.1836 C.ar    1  UNL1        0.0702
      5 C          11.2164   81.9914   24.6187 C.ar    1  UNL1        0.1149
      6 N          11.9824   83.0425   24.2249 N.ar    1  UNL1       -0.2279
      7 C          14.4124   85.4196   21.7722 C.3     1  UNL1        0.1386
      8 C          14.7998   84.1985   22.6445 C.3     1  UNL1        0.1217
      9 N          14.0952   84.2073   23.9365 N.pl3   1  UNL1       -0.2908
     10 C          14.2187   85.3936   24.8022 C.3     1  UNL1        0.0925
     11 C          14.6277   86.6393   24.0017 C.3     1  UNL1        0.0277
     12 C          13.9281   86.6252   22.6313 C.3     1  UNL1        0.0743
     13 C          15.3926   85.3702   19.6592 C.3     1  UNL1        0.1741
     14 O          15.5384   85.8017   20.9946 O.3     1  UNL1       -0.3517
     15 C          14.0972   87.9733   21.8980 C.3     1  UNL1        0.2078
     16 O          12.8498   88.4397   21.3797 O.3     1  UNL1       -0.4754
     17 C          12.5530   88.6457   20.0219 C.ar    1  UNL1        0.1388
     18 C          11.2521   89.0339   19.6861 C.ar    1  UNL1        0.0369
     19 C          10.9005   89.2578   18.3545 C.ar    1  UNL1        0.0033
     20 C          11.8463   89.0903   17.3415 C.ar    1  UNL1        0.0066
     21 C          13.1582   88.6916   17.6506 C.ar    1  UNL1        0.0785
     22 C          13.5091   88.4851   18.9979 C.ar    1  UNL1        0.0433
     23 C          14.1530   88.5154   16.5648 C.2     1  UNL1        0.3381
     24 O          14.0812   87.5105   15.8083 O.2     1  UNL1       -0.2451
     25 O          15.1882   89.4279   16.3630 O.3     1  UNL1       -0.4771
     26 H          15.3694   90.1957   16.9968 H       1  UNL1        0.2954
     27 N          10.9835   79.7628   25.6185 N.am    1  UNL1       -0.2766
     28 C          11.4937   78.4871   26.0390 C.2     1  UNL1        0.2839
     29 O          12.6914   78.1734   25.8033 O.2     1  UNL1       -0.2665
     30 H           9.9471   79.8762   25.5446 H       1  UNL1        0.1553
     31 C          10.5992   77.5264   26.7125 C.ar    1  UNL1        0.1946
     32 O          11.0206   76.6773   27.6330 O.2     1  UNL1       -0.4492
     33 C           9.9918   75.9677   28.0277 C.ar    1  UNL1        0.1452
     34 C           9.9803   74.9569   28.9823 C.ar    1  UNL1        0.0375
     35 C           8.7574   74.3191   29.2537 C.ar    1  UNL1        0.0031
     36 C           7.5704   74.6988   28.5709 C.ar    1  UNL1        0.0002
     37 C           7.6256   75.7335   27.6063 C.ar    1  UNL1        0.0028
     38 C           8.8563   76.3451   27.3623 C.ar    1  UNL1        0.0337
     39 C           9.2264   77.3585   26.4989 C.ar    1  UNL1        0.0202
     40 C           8.3493   78.1111   25.5441 C.3     1  UNL1        0.0345
     41 C           6.2843   74.0176   28.8658 C.ar    1  UNL1        0.0000
     42 C           5.8355   72.9549   28.0586 C.ar    1  UNL1        0.0000
     43 C           4.6241   72.3153   28.3387 C.ar    1  UNL1        0.0000
     44 C           3.8490   72.7266   29.4252 C.ar    1  UNL1        0.0000
     45 C           4.2834   73.7791   30.2339 C.ar    1  UNL1        0.0000
     46 C           5.4936   74.4229   29.9580 C.ar    1  UNL1        0.0000
@<TRIPOS>BOND
     1    13    14    1
     2    14     7    1
     3     7     8    1
     4     8     9    1
     5     9     1    1
     6     1     2   ar
     7     2     3   ar
     8     3     4   ar
     9     4    27    1
    10    27    28   am
    11    28    29    2
    12    28    31    1
    13    31    32   ar
    14    32    33   ar
    15    33    34   ar
    16    34    35   ar
    17    35    36   ar
    18    36    41    1
    19    41    42   ar
    20    42    43   ar
    21    43    44   ar
    22    44    45   ar
    23    45    46   ar
    24    36    37   ar
    25    37    38   ar
    26    38    39   ar
    27    39    40    1
    28     4     5   ar
    29     5     6   ar
    30     9    10    1
    31    10    11    1
    32    11    12    1
    33    12    15    1
    34    15    16    1
    35    16    17    1
    36    17    18   ar
    37    18    19   ar
    38    19    20   ar
    39    20    21   ar
    40    21    23    1
    41    23    24    2
    42    23    25    1
    43    21    22   ar
    44    12     7    1
    45    22    17   ar
    46     6     1   ar
    47    39    31   ar
    48    38    33   ar
    49    46    41   ar
    50    27    30    1
    51    25    26    1
@<TRIPOS>MOLECULE
*****
 46 51 0 0 0
SMALL
GASTEIGER

@<TRIPOS>ATOM
      1 C           8.9098   78.5725   25.4616 C.ar    1  UNL1        0.1319
      2 C           9.3640   79.2368   26.6148 C.ar    1  UNL1        0.0356
      3 C          10.1106   80.4094   26.4889 C.ar    1  UNL1        0.0191
      4 C          10.3950   80.9314   25.2179 C.ar    1  UNL1        0.0702
      5 C           9.9441   80.2306   24.0931 C.ar    1  UNL1        0.1149
      6 N           9.2190   79.0907   24.2397 N.ar    1  UNL1       -0.2279
      7 C           6.4112   76.2313   24.1342 C.3     1  UNL1        0.1386
      8 C           6.7184   77.3339   25.1791 C.3     1  UNL1        0.1217
      9 N           8.1424   77.3505   25.5500 N.pl3   1  UNL1       -0.2908
     10 C           8.7559   76.1112   26.0596 C.3     1  UNL1        0.0925
     11 C           7.9606   74.8681   25.6328 C.3     1  UNL1        0.0277
     12 C           7.4343   75.0587   24.1995 C.3     1  UNL1        0.0743
     13 C           4.3812   76.6047   25.2148 C.3     1  UNL1        0.1741
     14 O           5.0976   75.7396   24.3610 O.3     1  UNL1       -0.3517
     15 C           6.8570   73.7443   23.6314 C.3     1  UNL1        0.2078
     16 O           7.5204   73.3683   22.4228 O.3     1  UNL1       -0.4754
     17 C           8.9119   73.3047   22.2381 C.ar    1  UNL1        0.1388
     18 C           9.5519   72.0867   22.4878 C.ar    1  UNL1        0.0369
     19 C          10.9312   71.9625   22.3167 C.ar    1  UNL1        0.0033
     20 C          11.6878   73.0586   21.8984 C.ar    1  UNL1        0.0066
     21 C          11.0708   74.2968   21.6497 C.ar    1  UNL1        0.0785
     22 C           9.6766   74.4085   21.8077 C.ar    1  UNL1        0.0433
     23 C          11.8862   75.4540   21.2076 C.2     1  UNL1        0.3381
     24 O          12.1902   76.3561   22.0329 O.2     1  UNL1       -0.2451
     25 O          12.3175   75.5862   19.8880 O.3     1  UNL1       -0.4771
     26 H          12.0208   74.9584   19.1520 H       1  UNL1        0.2954
     27 N          11.1826   82.1222   25.0462 N.am    1  UNL1       -0.2766
     28 C          12.5750   82.1211   24.6915 C.2     1  UNL1        0.2839
     29 O          13.2474   81.0574   24.7626 O.2     1  UNL1       -0.2665
     30 H          10.7356   83.0389   25.2747 H       1  UNL1        0.1553
     31 C          13.2276   83.3794   24.2823 C.ar    1  UNL1        0.1946
     32 O          12.6423   84.5591   24.3891 O.2     1  UNL1       -0.4492
     33 C          13.4771   85.4650   23.9418 C.ar    1  UNL1        0.1452
     34 C          13.2721   86.8383   23.8683 C.ar    1  UNL1        0.0375
     35 C          14.3083   87.6335   23.3487 C.ar    1  UNL1        0.0031
     36 C          15.5275   87.0478   22.9127 C.ar    1  UNL1        0.0002
     37 C          15.6956   85.6452   23.0055 C.ar    1  UNL1        0.0028
     38 C          14.6464   84.8865   23.5265 C.ar    1  UNL1        0.0337
     39 C          14.5079   83.5278   23.7372 C.ar    1  UNL1        0.0202
     40 C          15.5096   82.4513   23.4452 C.3     1  UNL1        0.0345
     41 C          16.6150   87.8980   22.3654 C.ar    1  UNL1        0.0000
     42 C          17.7870   88.1289   23.1107 C.ar    1  UNL1        0.0000
     43 C          18.8094   88.9299   22.5928 C.ar    1  UNL1        0.0000
     44 C          18.6753   89.5073   21.3283 C.ar    1  UNL1        0.0000
     45 C          17.5179   89.2854   20.5788 C.ar    1  UNL1        0.0000
     46 C          16.4919   88.4861   21.0920 C.ar    1  UNL1        0.0000
@<TRIPOS>BOND
     1    13    14    1
     2    14     7    1
     3     7     8    1
     4     8     9    1
     5     9     1    1
     6     1     2   ar
     7     2     3   ar
     8     3     4   ar
     9     4    27    1
    10    27    28   am
    11    28    29    2
    12    28    31    1
    13    31    32   ar
    14    32    33   ar
    15    33    34   ar
    16    34    35   ar
    17    35    36   ar
    18    36    41    1
    19    41    42   ar
    20    42    43   ar
    21    43    44   ar
    22    44    45   ar
    23    45    46   ar
    24    36    37   ar
    25    37    38   ar
    26    38    39   ar
    27    39    40    1
    28     4     5   ar
    29     5     6   ar
    30     9    10    1
    31    10    11    1
    32    11    12    1
    33    12    15    1
    34    15    16    1
    35    16    17    1
    36    17    18   ar
    37    18    19   ar
    38    19    20   ar
    39    20    21   ar
    40    21    23    1
    41    23    24    2
    42    23    25    1
    43    21    22   ar
    44    12     7    1
    45    22    17   ar
    46     6     1   ar
    47    39    31   ar
    48    38    33   ar
    49    46    41   ar
    50    27    30    1
    51    25    26    1
@<TRIPOS>MOLECULE
*****
 46 51 0 0 0
SMALL
GASTEIGER

@<TRIPOS>ATOM
      1 C          13.1177   83.2818   24.3810 C.ar    1  UNL1        0.1319
      2 C          13.8829   82.1705   24.7775 C.ar    1  UNL1        0.0356
      3 C          13.2431   80.9859   25.1455 C.ar    1  UNL1        0.0191
      4 C          11.8432   80.8989   25.1067 C.ar    1  UNL1        0.0702
      5 C          11.1150   82.0325   24.7272 C.ar    1  UNL1        0.1149
      6 N          11.7592   83.1754   24.3732 N.ar    1  UNL1       -0.2279
      7 C          14.9430   85.3740   21.9774 C.3     1  UNL1        0.1386
      8 C          15.0232   84.5335   23.2771 C.3     1  UNL1        0.1217
      9 N          13.7425   84.5292   24.0021 N.pl3   1  UNL1       -0.2908
     10 C          13.1368   85.8193   24.3770 C.3     1  UNL1        0.0925
     11 C          13.6612   86.9674   23.5014 C.3     1  UNL1        0.0277
     12 C          13.8421   86.4730   22.0555 C.3     1  UNL1        0.0743
     13 C          16.8013   86.3827   22.9559 C.3     1  UNL1        0.1741
     14 O          16.2091   85.9741   21.7421 O.3     1  UNL1       -0.3517
     15 C          14.1142   87.6455   21.0886 C.3     1  UNL1        0.2078
     16 O          13.2837   87.5622   19.9287 O.3     1  UNL1       -0.4754
     17 C          13.7278   87.3077   18.6201 C.ar    1  UNL1        0.1388
     18 C          13.6844   88.3571   17.6968 C.ar    1  UNL1        0.0369
     19 C          14.1171   88.1647   16.3842 C.ar    1  UNL1        0.0033
     20 C          14.5939   86.9170   15.9784 C.ar    1  UNL1        0.0066
     21 C          14.6393   85.8429   16.8838 C.ar    1  UNL1        0.0785
     22 C          14.2175   86.0504   18.2105 C.ar    1  UNL1        0.0433
     23 C          15.1462   84.5219   16.4395 C.2     1  UNL1        0.3381
     24 O          14.3319   83.6069   16.1445 O.2     1  UNL1       -0.2451
     25 O          16.5115   84.2510   16.3535 O.3     1  UNL1       -0.4771
     26 H          17.2174   84.9001   16.6765 H       1  UNL1        0.2954
     27 N          11.1465   79.7049   25.5029 N.am    1  UNL1       -0.2766
     28 C          10.2048   79.6454   26.5865 C.2     1  UNL1        0.2839
     29 O          10.1318   80.5910   27.4166 O.2     1  UNL1       -0.2665
     30 H          11.4036   78.8104   25.0272 H       1  UNL1        0.1553
     31 C           9.3502   78.4539   26.7497 C.ar    1  UNL1        0.1946
     32 O           9.3164   77.4691   25.8696 O.2     1  UNL1       -0.4492
     33 C           8.4642   76.5719   26.3015 C.ar    1  UNL1        0.1452
     34 C           8.1170   75.3736   25.6876 C.ar    1  UNL1        0.0375
     35 C           7.1719   74.5535   26.3281 C.ar    1  UNL1        0.0031
     36 C           6.5911   74.9406   27.5659 C.ar    1  UNL1        0.0002
     37 C           6.9729   76.1688   28.1575 C.ar    1  UNL1        0.0028
     38 C           7.9139   76.9579   27.4942 C.ar    1  UNL1        0.0337
     39 C           8.4744   78.1817   27.8068 C.ar    1  UNL1        0.0202
     40 C           8.2028   79.0297   29.0128 C.3     1  UNL1        0.0345
     41 C           5.5936   74.0660   28.2331 C.ar    1  UNL1        0.0000
     42 C           4.7984   74.5598   29.2849 C.ar    1  UNL1        0.0000
     43 C           3.8600   73.7339   29.9112 C.ar    1  UNL1        0.0000
     44 C           3.7035   72.4098   29.4959 C.ar    1  UNL1        0.0000
     45 C           4.4857   71.9082   28.4533 C.ar    1  UNL1        0.0000
     46 C           5.4264   72.7292   27.8239 C.ar    1  UNL1        0.0000
@<TRIPOS>BOND
     1    13    14    1
     2    14     7    1
     3     7     8    1
     4     8     9    1
     5     9     1    1
     6     1     2   ar
     7     2     3   ar
     8     3     4   ar
     9     4    27    1
    10    27    28   am
    11    28    29    2
    12    28    31    1
    13    31    32   ar
    14    32    33   ar
    15    33    34   ar
    16    34    35   ar
    17    35    36   ar
    18    36    41    1
    19    41    42   ar
    20    42    43   ar
    21    43    44   ar
    22    44    45   ar
    23    45    46   ar
    24    36    37   ar
    25    37    38   ar
    26    38    39   ar
    27    39    40    1
    28     4     5   ar
    29     5     6   ar
    30     9    10    1
    31    10    11    1
    32    11    12    1
    33    12    15    1
    34    15    16    1
    35    16    17    1
    36    17    18   ar
    37    18    19   ar
    38    19    20   ar
    39    20    21   ar
    40    21    23    1
    41    23    24    2
    42    23    25    1
    43    21    22   ar
    44    12     7    1
    45    22    17   ar
    46     6     1   ar
    47    39    31   ar
    48    38    33   ar
    49    46    41   ar
    50    27    30    1
    51    25    26    1
@<TRIPOS>MOLECULE
*****
 46 51 0 0 0
SMALL
GASTEIGER

@<TRIPOS>ATOM
      1 C          13.2807   83.1395   24.6258 C.ar    1  UNL1        0.1319
      2 C          13.9752   81.9648   24.9656 C.ar    1  UNL1        0.0356
      3 C          13.2628   80.8083   25.2866 C.ar    1  UNL1        0.0191
      4 C          11.8600   80.8130   25.2567 C.ar    1  UNL1        0.0702
      5 C          11.2039   82.0068   24.9344 C.ar    1  UNL1        0.1149
      6 N          11.9181   83.1208   24.6256 N.ar    1  UNL1       -0.2279
      7 C          13.8707   86.0298   22.4384 C.3     1  UNL1        0.1386
      8 C          14.3787   84.6430   22.9082 C.3     1  UNL1        0.1217
      9 N          13.9822   84.3600   24.2968 N.pl3   1  UNL1       -0.2908
     10 C          14.3580   85.3200   25.3501 C.3     1  UNL1        0.0925
     11 C          14.6424   86.7141   24.7710 C.3     1  UNL1        0.0277
     12 C          13.6545   87.0103   23.6291 C.3     1  UNL1        0.0743
     13 C          14.9859   85.7247   20.4158 C.3     1  UNL1        0.1741
     14 O          14.8128   86.5772   21.5267 O.3     1  UNL1       -0.3517
     15 C          13.7257   88.4892   23.1913 C.3     1  UNL1        0.2078
     16 O          14.6616   89.2193   23.9871 O.3     1  UNL1       -0.4754
     17 C          16.0582   89.1979   23.8345 C.ar    1  UNL1        0.1388
     18 C          16.8454   89.2619   24.9886 C.ar    1  UNL1        0.0369
     19 C          18.2377   89.2393   24.8991 C.ar    1  UNL1        0.0033
     20 C          18.8594   89.1579   23.6519 C.ar    1  UNL1        0.0066
     21 C          18.0919   89.1019   22.4757 C.ar    1  UNL1        0.0785
     22 C          16.6880   89.1073   22.5760 C.ar    1  UNL1        0.0433
     23 C          18.7647   89.0175   21.1567 C.2     1  UNL1        0.3381
     24 O          19.9671   88.6473   21.0909 O.2     1  UNL1       -0.2451
     25 O          18.1067   89.3557   19.9745 O.3     1  UNL1       -0.4771
     26 H          17.1800   89.7619   19.9634 H       1  UNL1        0.2954
     27 N          11.0903   79.6495   25.6058 N.am    1  UNL1       -0.2766
     28 C          10.1090   79.6196   26.6550 C.2     1  UNL1        0.2839
     29 O          10.0543   80.5533   27.4997 O.2     1  UNL1       -0.2665
     30 H          11.3188   78.7514   25.1224 H       1  UNL1        0.1553
     31 C           9.1901   78.4707   26.7659 C.ar    1  UNL1        0.1946
     32 O           8.8158   77.7481   25.7251 O.2     1  UNL1       -0.4492
     33 C           8.0029   76.8140   26.1545 C.ar    1  UNL1        0.1452
     34 C           7.3708   75.8328   25.3989 C.ar    1  UNL1        0.0375
     35 C           6.5314   74.9241   26.0664 C.ar    1  UNL1        0.0031
     36 C           6.3371   75.0088   27.4716 C.ar    1  UNL1        0.0002
     37 C           7.0001   76.0229   28.2038 C.ar    1  UNL1        0.0028
     38 C           7.8262   76.9077   27.5089 C.ar    1  UNL1        0.0337
     39 C           8.5886   77.9803   27.9305 C.ar    1  UNL1        0.0202
     40 C           8.7373   78.5024   29.3278 C.3     1  UNL1        0.0345
     41 C           5.4478   74.0434   28.1659 C.ar    1  UNL1        0.0000
     42 C           4.6976   74.4410   29.2891 C.ar    1  UNL1        0.0000
     43 C           3.8610   73.5298   29.9408 C.ar    1  UNL1        0.0000
     44 C           3.7624   72.2152   29.4801 C.ar    1  UNL1        0.0000
     45 C           4.5008   71.8085   28.3667 C.ar    1  UNL1        0.0000
     46 C           5.3397   72.7151   27.7115 C.ar    1  UNL1        0.0000
@<TRIPOS>BOND
     1    13    14    1
     2    14     7    1
     3     7     8    1
     4     8     9    1
     5     9     1    1
     6     1     2   ar
     7     2     3   ar
     8     3     4   ar
     9     4    27    1
    10    27    28   am
    11    28    29    2
    12    28    31    1
    13    31    32   ar
    14    32    33   ar
    15    33    34   ar
    16    34    35   ar
    17    35    36   ar
    18    36    41    1
    19    41    42   ar
    20    42    43   ar
    21    43    44   ar
    22    44    45   ar
    23    45    46   ar
    24    36    37   ar
    25    37    38   ar
    26    38    39   ar
    27    39    40    1
    28     4     5   ar
    29     5     6   ar
    30     9    10    1
    31    10    11    1
    32    11    12    1
    33    12    15    1
    34    15    16    1
    35    16    17    1
    36    17    18   ar
    37    18    19   ar
    38    19    20   ar
    39    20    21   ar
    40    21    23    1
    41    23    24    2
    42    23    25    1
    43    21    22   ar
    44    12     7    1
    45    22    17   ar
    46     6     1   ar
    47    39    31   ar
    48    38    33   ar
    49    46    41   ar
    50    27    30    1
    51    25    26    1
@<TRIPOS>MOLECULE
*****
 46 51 0 0 0
SMALL
GASTEIGER

@<TRIPOS>ATOM
      1 C          13.9713   85.1367   24.9603 C.ar    1  UNL1        0.1319
      2 C          13.9286   84.5123   26.2196 C.ar    1  UNL1        0.0356
      3 C          13.5442   83.1739   26.3154 C.ar    1  UNL1        0.0191
      4 C          13.2155   82.4500   25.1593 C.ar    1  UNL1        0.0702
      5 C          13.2493   83.1117   23.9261 C.ar    1  UNL1        0.1149
      6 N          13.6263   84.4154   23.8568 N.ar    1  UNL1       -0.2279
      7 C          16.4854   87.7396   24.3351 C.3     1  UNL1        0.1386
      8 C          15.6195   87.0106   25.3938 C.3     1  UNL1        0.1217
      9 N          14.3547   86.5236   24.8205 N.pl3   1  UNL1       -0.2908
     10 C          13.4656   87.4865   24.1466 C.3     1  UNL1        0.0925
     11 C          14.2297   88.7370   23.6858 C.3     1  UNL1        0.0277
     12 C          15.6252   88.3321   23.1797 C.3     1  UNL1        0.0743
     13 C          16.8745   88.8548   26.3433 C.3     1  UNL1        0.1741
     14 O          17.2142   88.7772   24.9761 O.3     1  UNL1       -0.3517
     15 C          16.3294   89.5071   22.4674 C.3     1  UNL1        0.2078
     16 O          16.2878   89.3504   21.0476 O.3     1  UNL1       -0.4754
     17 C          15.4232   88.4958   20.3431 C.ar    1  UNL1        0.1388
     18 C          14.4293   89.0769   19.5493 C.ar    1  UNL1        0.0369
     19 C          13.5450   88.2783   18.8231 C.ar    1  UNL1        0.0033
     20 C          13.6416   86.8872   18.8870 C.ar    1  UNL1        0.0066
     21 C          14.6253   86.2774   19.6846 C.ar    1  UNL1        0.0785
     22 C          15.5244   87.0904   20.3999 C.ar    1  UNL1        0.0433
     23 C          14.7161   84.7984   19.7454 C.2     1  UNL1        0.3381
     24 O          15.3329   84.2485   20.6964 O.2     1  UNL1       -0.2451
     25 O          14.1491   83.9875   18.7626 O.3     1  UNL1       -0.4771
     26 H          13.7350   84.3622   17.9187 H       1  UNL1        0.2954
     27 N          12.7901   81.0777   25.2193 N.am    1  UNL1       -0.2766
     28 C          11.4268   80.6509   25.0650 C.2     1  UNL1        0.2839
     29 O          10.4884   81.4903   25.1230 O.2     1  UNL1       -0.2665
     30 H          13.5036   80.3573   25.4732 H       1  UNL1        0.1553
     31 C          11.1241   79.2190   24.8789 C.ar    1  UNL1        0.1946
     32 O          11.3580   78.3094   25.8082 O.2     1  UNL1       -0.4492
     33 C          10.9844   77.1454   25.3357 C.ar    1  UNL1        0.1452
     34 C          11.0525   75.9134   25.9766 C.ar    1  UNL1        0.0375
     35 C          10.5953   74.7810   25.2804 C.ar    1  UNL1        0.0031
     36 C          10.0794   74.8959   23.9613 C.ar    1  UNL1        0.0002
     37 C          10.0272   76.1694   23.3452 C.ar    1  UNL1        0.0028
     38 C          10.4893   77.2719   24.0656 C.ar    1  UNL1        0.0337
     39 C          10.5708   78.6136   23.7449 C.ar    1  UNL1        0.0202
     40 C          10.1573   79.2735   22.4640 C.3     1  UNL1        0.0345
     41 C           9.5995   73.6925   23.2356 C.ar    1  UNL1        0.0000
     42 C          10.4628   72.6047   23.0036 C.ar    1  UNL1        0.0000
     43 C          10.0082   71.4729   22.3201 C.ar    1  UNL1        0.0000
     44 C           8.6902   71.4127   21.8624 C.ar    1  UNL1        0.0000
     45 C           7.8237   72.4848   22.0867 C.ar    1  UNL1        0.0000
     46 C           8.2731   73.6196   22.7689 C.ar    1  UNL1        0.0000
@<TRIPOS>BOND
     1    13    14    1
     2    14     7    1
     3     7     8    1
     4     8     9    1
     5     9     1    1
     6     1     2   ar
     7     2     3   ar
     8     3     4   ar
     9     4    27    1
    10    27    28   am
    11    28    29    2
    12    28    31    1
    13    31    32   ar
    14    32    33   ar
    15    33    34   ar
    16    34    35   ar
    17    35    36   ar
    18    36    41    1
    19    41    42   ar
    20    42    43   ar
    21    43    44   ar
    22    44    45   ar
    23    45    46   ar
    24    36    37   ar
    25    37    38   ar
    26    38    39   ar
    27    39    40    1
    28     4     5   ar
    29     5     6   ar
    30     9    10    1
    31    10    11    1
    32    11    12    1
    33    12    15    1
    34    15    16    1
    35    16    17    1
    36    17    18   ar
    37    18    19   ar
    38    19    20   ar
    39    20    21   ar
    40    21    23    1
    41    23    24    2
    42    23    25    1
    43    21    22   ar
    44    12     7    1
    45    22    17   ar
    46     6     1   ar
    47    39    31   ar
    48    38    33   ar
    49    46    41   ar
    50    27    30    1
    51    25    26    1
@<TRIPOS>MOLECULE
*****
 46 51 0 0 0
SMALL
GASTEIGER

@<TRIPOS>ATOM
      1 C           9.1323   78.6814   25.1996 C.ar    1  UNL1        0.1319
      2 C           9.5819   79.3580   26.3475 C.ar    1  UNL1        0.0356
      3 C          10.2842   80.5567   26.2133 C.ar    1  UNL1        0.0191
      4 C          10.5287   81.0921   24.9397 C.ar    1  UNL1        0.0702
      5 C          10.0841   80.3791   23.8201 C.ar    1  UNL1        0.1149
      6 N           9.4025   79.2138   23.9746 N.ar    1  UNL1       -0.2279
      7 C           6.0378   76.7190   24.9555 C.3     1  UNL1        0.1386
      8 C           7.0683   77.3902   25.8987 C.3     1  UNL1        0.1217
      9 N           8.4103   77.4326   25.2964 N.pl3   1  UNL1       -0.2908
     10 C           9.0222   76.1716   24.8409 C.3     1  UNL1        0.0925
     11 C           7.9635   75.0887   24.5831 C.3     1  UNL1        0.0277
     12 C           6.7112   75.7291   23.9592 C.3     1  UNL1        0.0743
     13 C           4.4313   76.9195   26.6308 C.3     1  UNL1        0.1741
     14 O           5.0761   76.0317   25.7437 O.3     1  UNL1       -0.3517
     15 C           5.7275   74.6570   23.4427 C.3     1  UNL1        0.2078
     16 O           5.5165   74.7843   22.0351 O.3     1  UNL1       -0.4754
     17 C           4.3168   75.1792   21.4194 C.ar    1  UNL1        0.1388
     18 C           3.8917   74.4669   20.2935 C.ar    1  UNL1        0.0369
     19 C           2.7058   74.8104   19.6435 C.ar    1  UNL1        0.0033
     20 C           1.9331   75.8754   20.1099 C.ar    1  UNL1        0.0066
     21 C           2.3423   76.6138   21.2337 C.ar    1  UNL1        0.0785
     22 C           3.5307   76.2494   21.8939 C.ar    1  UNL1        0.0433
     23 C           1.5133   77.7442   21.7180 C.2     1  UNL1        0.3381
     24 O           1.9543   78.9216   21.6385 O.2     1  UNL1       -0.2451
     25 O           0.2537   77.5417   22.2813 O.3     1  UNL1       -0.4771
     26 H          -0.1153   76.6195   22.4743 H       1  UNL1        0.2954
     27 N          11.2707   82.3107   24.7591 N.am    1  UNL1       -0.2766
     28 C          12.7042   82.3943   24.8099 C.2     1  UNL1        0.2839
     29 O          13.3798   81.4367   25.2735 O.2     1  UNL1       -0.2665
     30 H          10.7305   83.2009   24.6686 H       1  UNL1        0.1553
     31 C          13.3828   83.6229   24.3553 C.ar    1  UNL1        0.1946
     32 O          12.8676   84.8289   24.5165 O.2     1  UNL1       -0.4492
     33 C          13.7069   85.6969   24.0070 C.ar    1  UNL1        0.1452
     34 C          13.5652   87.0793   23.9581 C.ar    1  UNL1        0.0375
     35 C          14.5935   87.8275   23.3594 C.ar    1  UNL1        0.0031
     36 C          15.7423   87.1869   22.8213 C.ar    1  UNL1        0.0002
     37 C          15.8475   85.7769   22.8922 C.ar    1  UNL1        0.0028
     38 C          14.8080   85.0657   23.4937 C.ar    1  UNL1        0.0337
     39 C          14.6199   83.7135   23.7075 C.ar    1  UNL1        0.0202
     40 C          15.5395   82.5919   23.3282 C.3     1  UNL1        0.0345
     41 C          16.8222   87.9879   22.1910 C.ar    1  UNL1        0.0000
     42 C          18.0378   88.2076   22.8666 C.ar    1  UNL1        0.0000
     43 C          19.0530   88.9622   22.2707 C.ar    1  UNL1        0.0000
     44 C          18.8681   89.5039   20.9968 C.ar    1  UNL1        0.0000
     45 C          17.6671   89.2926   20.3160 C.ar    1  UNL1        0.0000
     46 C          16.6481   88.5396   20.9074 C.ar    1  UNL1        0.0000
@<TRIPOS>BOND
     1    13    14    1
     2    14     7    1
     3     7     8    1
     4     8     9    1
     5     9     1    1
     6     1     2   ar
     7     2     3   ar
     8     3     4   ar
     9     4    27    1
    10    27    28   am
    11    28    29    2
    12    28    31    1
    13    31    32   ar
    14    32    33   ar
    15    33    34   ar
    16    34    35   ar
    17    35    36   ar
    18    36    41    1
    19    41    42   ar
    20    42    43   ar
    21    43    44   ar
    22    44    45   ar
    23    45    46   ar
    24    36    37   ar
    25    37    38   ar
    26    38    39   ar
    27    39    40    1
    28     4     5   ar
    29     5     6   ar
    30     9    10    1
    31    10    11    1
    32    11    12    1
    33    12    15    1
    34    15    16    1
    35    16    17    1
    36    17    18   ar
    37    18    19   ar
    38    19    20   ar
    39    20    21   ar
    40    21    23    1
    41    23    24    2
    42    23    25    1
    43    21    22   ar
    44    12     7    1
    45    22    17   ar
    46     6     1   ar
    47    39    31   ar
    48    38    33   ar
    49    46    41   ar
    50    27    30    1
    51    25    26    1
@<TRIPOS>MOLECULE
*****
 46 51 0 0 0
SMALL
GASTEIGER

@<TRIPOS>ATOM
      1 C           8.9159   78.9817   25.3405 C.ar    1  UNL1        0.1319
      2 C           9.4790   79.5399   26.5020 C.ar    1  UNL1        0.0356
      3 C          10.2858   80.6745   26.4031 C.ar    1  UNL1        0.0191
      4 C          10.5230   81.2644   25.1523 C.ar    1  UNL1        0.0702
      5 C           9.9628   80.6678   24.0166 C.ar    1  UNL1        0.1149
      6 N           9.1806   79.5631   24.1368 N.ar    1  UNL1       -0.2279
      7 C           8.4932   75.3447   25.6241 C.3     1  UNL1        0.1386
      8 C           8.4708   76.5762   24.6834 C.3     1  UNL1        0.1217
      9 N           8.0830   77.8015   25.4003 N.pl3   1  UNL1       -0.2908
     10 C           6.8068   77.8169   26.1371 C.3     1  UNL1        0.0925
     11 C           6.3329   76.3964   26.4796 C.3     1  UNL1        0.0277
     12 C           7.5448   75.5222   26.8468 C.3     1  UNL1        0.0743
     13 C           8.6762   74.2280   23.5876 C.3     1  UNL1        0.1741
     14 O           8.1138   74.1947   24.8812 O.3     1  UNL1       -0.3517
     15 C           7.1034   74.1703   27.4478 C.3     1  UNL1        0.2078
     16 O           7.2550   74.1622   28.8687 O.3     1  UNL1       -0.4754
     17 C           7.0126   75.2502   29.7242 C.ar    1  UNL1        0.1388
     18 C           5.8825   75.1993   30.5464 C.ar    1  UNL1        0.0369
     19 C           5.5937   76.2483   31.4200 C.ar    1  UNL1        0.0033
     20 C           6.4304   77.3643   31.4773 C.ar    1  UNL1        0.0066
     21 C           7.5675   77.4450   30.6550 C.ar    1  UNL1        0.0785
     22 C           7.8611   76.3746   29.7895 C.ar    1  UNL1        0.0433
     23 C           8.4472   78.6370   30.7241 C.2     1  UNL1        0.3381
     24 O           9.3468   78.6998   31.6039 O.2     1  UNL1       -0.2451
     25 O           8.2975   79.7111   29.8473 O.3     1  UNL1       -0.4771
     26 H           7.5310   79.7753   29.1898 H       1  UNL1        0.2954
     27 N          11.3691   82.4180   25.0062 N.am    1  UNL1       -0.2766
     28 C          12.7579   82.3558   24.6430 C.2     1  UNL1        0.2839
     29 O          13.3759   81.2580   24.6825 O.2     1  UNL1       -0.2665
     30 H          10.9702   83.3499   25.2609 H       1  UNL1        0.1553
     31 C          13.4714   83.5897   24.2621 C.ar    1  UNL1        0.1946
     32 O          12.9912   84.7980   24.4974 O.2     1  UNL1       -0.4492
     33 C          13.8549   85.6709   24.0395 C.ar    1  UNL1        0.1452
     34 C          13.7531   87.0572   24.0749 C.ar    1  UNL1        0.0375
     35 C          14.8022   87.8105   23.5202 C.ar    1  UNL1        0.0031
     36 C          15.9316   87.1710   22.9414 C.ar    1  UNL1        0.0002
     37 C          15.9961   85.7569   22.9264 C.ar    1  UNL1        0.0028
     38 C          14.9370   85.0406   23.4861 C.ar    1  UNL1        0.0337
     39 C          14.7102   83.6839   23.6179 C.ar    1  UNL1        0.0202
     40 C          15.5967   82.5615   23.1690 C.3     1  UNL1        0.0345
     41 C          17.0337   87.9774   22.3583 C.ar    1  UNL1        0.0000
     42 C          18.2113   88.2167   23.0920 C.ar    1  UNL1        0.0000
     43 C          19.2475   88.9764   22.5404 C.ar    1  UNL1        0.0000
     44 C          19.1217   89.5037   21.2534 C.ar    1  UNL1        0.0000
     45 C          17.9589   89.2730   20.5151 C.ar    1  UNL1        0.0000
     46 C          16.9191   88.5148   21.0620 C.ar    1  UNL1        0.0000
@<TRIPOS>BOND
     1    13    14    1
     2    14     7    1
     3     7     8    1
     4     8     9    1
     5     9     1    1
     6     1     2   ar
     7     2     3   ar
     8     3     4   ar
     9     4    27    1
    10    27    28   am
    11    28    29    2
    12    28    31    1
    13    31    32   ar
    14    32    33   ar
    15    33    34   ar
    16    34    35   ar
    17    35    36   ar
    18    36    41    1
    19    41    42   ar
    20    42    43   ar
    21    43    44   ar
    22    44    45   ar
    23    45    46   ar
    24    36    37   ar
    25    37    38   ar
    26    38    39   ar
    27    39    40    1
    28     4     5   ar
    29     5     6   ar
    30     9    10    1
    31    10    11    1
    32    11    12    1
    33    12    15    1
    34    15    16    1
    35    16    17    1
    36    17    18   ar
    37    18    19   ar
    38    19    20   ar
    39    20    21   ar
    40    21    23    1
    41    23    24    2
    42    23    25    1
    43    21    22   ar
    44    12     7    1
    45    22    17   ar
    46     6     1   ar
    47    39    31   ar
    48    38    33   ar
    49    46    41   ar
    50    27    30    1
    51    25    26    1
@<TRIPOS>MOLECULE
*****
 46 51 0 0 0
SMALL
GASTEIGER

@<TRIPOS>ATOM
      1 C           8.3537   77.7936   23.6501 C.ar    1  UNL1        0.1319
      2 C           8.7478   78.5469   22.5299 C.ar    1  UNL1        0.0356
      3 C           9.4860   79.7179   22.7087 C.ar    1  UNL1        0.0191
      4 C           9.8457   80.1348   23.9992 C.ar    1  UNL1        0.0702
      5 C           9.4170   79.3702   25.0906 C.ar    1  UNL1        0.1149
      6 N           8.6989   78.2336   24.8927 N.ar    1  UNL1       -0.2279
      7 C           7.1474   74.9551   21.6564 C.3     1  UNL1        0.1386
      8 C           6.8027   76.3301   22.2829 C.3     1  UNL1        0.1217
      9 N           7.5803   76.5806   23.5070 N.pl3   1  UNL1       -0.2908
     10 C           7.5145   75.5959   24.6015 C.3     1  UNL1        0.0925
     11 C           7.0684   74.2156   24.0960 C.3     1  UNL1        0.0277
     12 C           7.6881   73.9470   22.7134 C.3     1  UNL1        0.0743
     13 C           5.6170   75.2038   19.9175 C.3     1  UNL1        0.1741
     14 O           5.9813   74.4287   21.0388 O.3     1  UNL1       -0.3517
     15 C           7.4862   72.4788   22.2806 C.3     1  UNL1        0.2078
     16 O           8.7270   71.7702   22.2617 O.3     1  UNL1       -0.4754
     17 C          10.0042   72.3557   22.2509 C.ar    1  UNL1        0.1388
     18 C          11.0470   71.6444   21.6490 C.ar    1  UNL1        0.0369
     19 C          12.3355   72.1780   21.6038 C.ar    1  UNL1        0.0033
     20 C          12.5971   73.4288   22.1658 C.ar    1  UNL1        0.0066
     21 C          11.5691   74.1604   22.7852 C.ar    1  UNL1        0.0785
     22 C          10.2686   73.6226   22.8108 C.ar    1  UNL1        0.0433
     23 C          11.8606   75.4872   23.3803 C.2     1  UNL1        0.3381
     24 O          11.0102   76.0363   24.1303 O.2     1  UNL1       -0.2451
     25 O          13.0525   76.1625   23.1192 O.3     1  UNL1       -0.4771
     26 H          13.7299   75.8317   22.4442 H       1  UNL1        0.2954
     27 N          10.5830   81.3484   24.2260 N.am    1  UNL1       -0.2766
     28 C          11.9009   81.3940   24.7967 C.2     1  UNL1        0.2839
     29 O          12.3804   80.3784   25.3687 O.2     1  UNL1       -0.2665
     30 H          10.0969   82.2552   24.0416 H       1  UNL1        0.1553
     31 C          12.6773   82.6475   24.7477 C.ar    1  UNL1        0.1946
     32 O          12.7261   83.4200   23.6770 O.2     1  UNL1       -0.4492
     33 C          13.4952   84.4445   23.9540 C.ar    1  UNL1        0.1452
     34 C          13.8249   85.5033   23.1152 C.ar    1  UNL1        0.0375
     35 C          14.6746   86.5038   23.6180 C.ar    1  UNL1        0.0031
     36 C          15.1796   86.4320   24.9444 C.ar    1  UNL1        0.0002
     37 C          14.8188   85.3369   25.7658 C.ar    1  UNL1        0.0028
     38 C          13.9732   84.3620   25.2343 C.ar    1  UNL1        0.0337
     39 C          13.4553   83.1992   25.7719 C.ar    1  UNL1        0.0202
     40 C          13.6788   82.6507   27.1491 C.3     1  UNL1        0.0345
     41 C          16.0768   87.4949   25.4645 C.ar    1  UNL1        0.0000
     42 C          15.7741   88.1621   26.6668 C.ar    1  UNL1        0.0000
     43 C          16.6206   89.1625   27.1542 C.ar    1  UNL1        0.0000
     44 C          17.7765   89.5071   26.4503 C.ar    1  UNL1        0.0000
     45 C          18.0882   88.8523   25.2567 C.ar    1  UNL1        0.0000
     46 C          17.2448   87.8518   24.7641 C.ar    1  UNL1        0.0000
@<TRIPOS>BOND
     1    13    14    1
     2    14     7    1
     3     7     8    1
     4     8     9    1
     5     9     1    1
     6     1     2   ar
     7     2     3   ar
     8     3     4   ar
     9     4    27    1
    10    27    28   am
    11    28    29    2
    12    28    31    1
    13    31    32   ar
    14    32    33   ar
    15    33    34   ar
    16    34    35   ar
    17    35    36   ar
    18    36    41    1
    19    41    42   ar
    20    42    43   ar
    21    43    44   ar
    22    44    45   ar
    23    45    46   ar
    24    36    37   ar
    25    37    38   ar
    26    38    39   ar
    27    39    40    1
    28     4     5   ar
    29     5     6   ar
    30     9    10    1
    31    10    11    1
    32    11    12    1
    33    12    15    1
    34    15    16    1
    35    16    17    1
    36    17    18   ar
    37    18    19   ar
    38    19    20   ar
    39    20    21   ar
    40    21    23    1
    41    23    24    2
    42    23    25    1
    43    21    22   ar
    44    12     7    1
    45    22    17   ar
    46     6     1   ar
    47    39    31   ar
    48    38    33   ar
    49    46    41   ar
    50    27    30    1
    51    25    26    1
@<TRIPOS>MOLECULE
*****
 46 51 0 0 0
SMALL
GASTEIGER

@<TRIPOS>ATOM
      1 C          14.2428   85.3817   24.5328 C.ar    1  UNL1        0.1319
      2 C          14.2579   84.8261   25.8245 C.ar    1  UNL1        0.0356
      3 C          13.5478   83.6522   26.0810 C.ar    1  UNL1        0.0191
      4 C          12.8334   83.0209   25.0516 C.ar    1  UNL1        0.0702
      5 C          12.8246   83.6154   23.7843 C.ar    1  UNL1        0.1149
      6 N          13.5231   84.7588   23.5576 N.ar    1  UNL1       -0.2279
      7 C          16.6182   87.3061   22.4978 C.3     1  UNL1        0.1386
      8 C          16.3740   86.5587   23.8334 C.3     1  UNL1        0.1217
      9 N          14.9574   86.6014   24.2297 N.pl3   1  UNL1       -0.2908
     10 C          14.2977   87.9129   24.3596 C.3     1  UNL1        0.0925
     11 C          15.0319   88.9985   23.5583 C.3     1  UNL1        0.0277
     12 C          15.5459   88.4048   22.2350 C.3     1  UNL1        0.0743
     13 C          18.3844   87.9831   23.8579 C.3     1  UNL1        0.1741
     14 O          17.9121   87.8920   22.5315 O.3     1  UNL1       -0.3517
     15 C          16.0573   89.5076   21.2832 C.3     1  UNL1        0.2078
     16 O          15.4726   89.3822   19.9853 O.3     1  UNL1       -0.4754
     17 C          14.4917   88.4463   19.6161 C.ar    1  UNL1        0.1388
     18 C          13.1605   88.8729   19.5745 C.ar    1  UNL1        0.0369
     19 C          12.1441   87.9892   19.2099 C.ar    1  UNL1        0.0033
     20 C          12.4475   86.6653   18.8876 C.ar    1  UNL1        0.0066
     21 C          13.7760   86.2082   18.9305 C.ar    1  UNL1        0.0785
     22 C          14.7972   87.1108   19.2821 C.ar    1  UNL1        0.0433
     23 C          14.0848   84.7988   18.5876 C.2     1  UNL1        0.3381
     24 O          15.0084   84.1954   19.1959 O.2     1  UNL1       -0.2451
     25 O          13.3891   84.1172   17.5894 O.3     1  UNL1       -0.4771
     26 H          12.7121   84.5711   16.9897 H       1  UNL1        0.2954
     27 N          12.0687   81.8251   25.2822 N.am    1  UNL1       -0.2766
     28 C          12.5790   80.4953   25.0929 C.2     1  UNL1        0.2839
     29 O          13.6558   80.3121   24.4639 O.2     1  UNL1       -0.2665
     30 H          11.0569   81.9325   25.5212 H       1  UNL1        0.1553
     31 C          11.8172   79.3390   25.6021 C.ar    1  UNL1        0.1946
     32 O          12.3390   78.4377   26.4152 O.2     1  UNL1       -0.4492
     33 C          11.4134   77.5475   26.6771 C.ar    1  UNL1        0.1452
     34 C          11.5286   76.4239   27.4880 C.ar    1  UNL1        0.0375
     35 C          10.4027   75.5946   27.6306 C.ar    1  UNL1        0.0031
     36 C           9.1847   75.8987   26.9646 C.ar    1  UNL1        0.0002
     37 C           9.1096   77.0531   26.1486 C.ar    1  UNL1        0.0028
     38 C          10.2465   77.8540   26.0298 C.ar    1  UNL1        0.0337
     39 C          10.4846   79.0165   25.3218 C.ar    1  UNL1        0.0202
     40 C           9.5256   79.7657   24.4464 C.3     1  UNL1        0.0345
     41 C           8.0019   75.0150   27.1228 C.ar    1  UNL1        0.0000
     42 C           7.2795   74.5774   25.9962 C.ar    1  UNL1        0.0000
     43 C           6.1661   73.7453   26.1481 C.ar    1  UNL1        0.0000
     44 C           5.7623   73.3402   27.4221 C.ar    1  UNL1        0.0000
     45 C           6.4708   73.7669   28.5475 C.ar    1  UNL1        0.0000
     46 C           7.5844   74.5998   28.4017 C.ar    1  UNL1        0.0000
@<TRIPOS>BOND
     1    13    14    1
     2    14     7    1
     3     7     8    1
     4     8     9    1
     5     9     1    1
     6     1     2   ar
     7     2     3   ar
     8     3     4   ar
     9     4    27    1
    10    27    28   am
    11    28    29    2
    12    28    31    1
    13    31    32   ar
    14    32    33   ar
    15    33    34   ar
    16    34    35   ar
    17    35    36   ar
    18    36    41    1
    19    41    42   ar
    20    42    43   ar
    21    43    44   ar
    22    44    45   ar
    23    45    46   ar
    24    36    37   ar
    25    37    38   ar
    26    38    39   ar
    27    39    40    1
    28     4     5   ar
    29     5     6   ar
    30     9    10    1
    31    10    11    1
    32    11    12    1
    33    12    15    1
    34    15    16    1
    35    16    17    1
    36    17    18   ar
    37    18    19   ar
    38    19    20   ar
    39    20    21   ar
    40    21    23    1
    41    23    24    2
    42    23    25    1
    43    21    22   ar
    44    12     7    1
    45    22    17   ar
    46     6     1   ar
    47    39    31   ar
    48    38    33   ar
    49    46    41   ar
    50    27    30    1
    51    25    26    1
