@<TRIPOS>MOLECULE
*****
 54 60 0 0 0
SMALL
GASTEIGER

@<TRIPOS>ATOM
      1 C          60.1780   88.0937   10.7782 C.ar    1  UNL1        0.0481
      2 C          61.4028   88.0202   11.4580 C.ar    1  UNL1        0.0176
      3 C          61.5140   87.2775   12.6365 C.ar    1  UNL1        0.0382
      4 C          60.4110   86.5889   13.1547 C.ar    1  UNL1        0.1388
      5 C          59.1760   86.6746   12.4794 C.ar    1  UNL1        0.0382
      6 C          59.0655   87.4151   11.2997 C.ar    1  UNL1        0.0176
      7 N          60.2967   90.0274    7.0528 N.pl3   1  UNL1       -0.3041
      8 C          61.2615   90.4190    8.0869 C.3     1  UNL1        0.1122
      9 C          60.6595   90.1934    9.4743 C.3     1  UNL1        0.1122
     10 N          60.0709   88.8511    9.5580 N.pl3   1  UNL1       -0.3041
     11 C          59.1079   88.4586    8.5218 C.3     1  UNL1        0.1122
     12 C          59.7110   88.6842    7.1351 C.3     1  UNL1        0.1122
     13 C          59.9436   92.2690    3.4491 C.ar    1  UNL1        0.0726
     14 C          58.8320   92.0800    4.2830 C.ar    1  UNL1        0.0191
     15 C          58.9454   91.3490    5.4655 C.ar    1  UNL1        0.0160
     16 C          60.1764   90.7927    5.8390 C.ar    1  UNL1        0.0481
     17 C          61.2966   90.9927    5.0191 C.ar    1  UNL1        0.0188
     18 C          61.2022   91.7463    3.8363 C.ar    1  UNL1        0.0522
     19 N          59.3707   93.3710    0.0527 N.ar    1  UNL1       -0.2024
     20 N          59.4116   94.5412    0.6760 N.ar    1  UNL1       -0.1442
     21 C          59.6320   94.2693    1.9815 C.ar    1  UNL1        0.2073
     22 N          59.7597   92.9420    2.1940 N.ar    1  UNL1       -0.2397
     23 C          59.5772   92.4113    0.9720 C.ar    1  UNL1        0.3522
     24 O          59.5818   91.1749    0.7239 O.2     1  UNL1       -0.2444
     25 C          59.2017   93.2014   -1.3936 C.3     1  UNL1        0.1099
     26 C          59.2942   94.5709   -2.0762 C.3     1  UNL1        0.0265
     27 C          56.7132   93.4746   -1.9239 C.3     1  UNL1        0.0021
     28 C          57.8616   92.4943   -1.6833 C.3     1  UNL1        0.0245
     29 C          62.4413   92.0019    3.0648 C.2     1  UNL1        0.1749
     30 C          63.5785   91.0260    3.0495 C.3     1  UNL1        0.0773
     31 O          62.5323   93.0490    2.3691 O.2     1  UNL1       -0.2913
     32 O          60.5950   85.8524   14.3389 O.3     1  UNL1       -0.4727
     33 C          61.7552   85.0980   14.7007 C.3     1  UNL1        0.2374
     34 C          61.7476   83.7122   14.0390 C.3     1  UNL1        0.1909
     35 C          62.9208   83.4598   13.1325 C.3     1  UNL1        0.1783
     36 O          62.4166   82.8302   11.9998 O.3     1  UNL1       -0.3271
     37 C          61.0180   83.0306   12.0131 C.3     1  UNL1        0.2232
     38 O          60.6073   83.5838   13.2497 O.3     1  UNL1       -0.3258
     39 C          60.3159   81.6895   11.7826 C.ar    1  UNL1        0.0404
     40 C          58.9802   81.5134   12.2089 C.ar    1  UNL1        0.0021
     41 C          58.3088   80.3089   11.9921 C.ar    1  UNL1        0.0113
     42 C          58.9458   79.2603   11.3309 C.ar    1  UNL1        0.0585
     43 CL         58.0971   77.7494   11.0585 Cl      1  UNL1       -0.0822
     44 C          60.2540   79.4194   10.8735 C.ar    1  UNL1        0.0226
     45 C          60.9414   80.6218   11.0818 C.ar    1  UNL1        0.0591
     46 CL         62.5703   80.7354   10.4160 Cl      1  UNL1       -0.0824
     47 C          60.6089   84.0130   10.8930 C.3     1  UNL1        0.1338
     48 N          61.4417   83.8051    9.6850 N.3     1  UNL1       -0.2659
     49 C          62.2364   85.0099    9.3571 C.3     1  UNL1        0.0898
     50 C          62.7625   84.9438    7.9196 C.3     1  UNL1        0.0897
     51 N          61.6529   84.9360    6.9368 N.3     1  UNL1       -0.2691
     52 C          62.0764   84.2839    5.6875 C.3     1  UNL1        0.0897
     53 C          60.3985   84.3400    7.4594 C.3     1  UNL1        0.0897
     54 C          60.6663   83.2729    8.5328 C.3     1  UNL1        0.0898
@<TRIPOS>BOND
     1    27    28    1
     2    28    25    1
     3    25    26    1
     4    25    19    1
     5    19    20   ar
     6    20    21   ar
     7    21    22   ar
     8    22    13    1
     9    13    14   ar
    10    14    15   ar
    11    15    16   ar
    12    16     7    1
    13     7     8    1
    14     8     9    1
    15     9    10    1
    16    10     1    1
    17     1     2   ar
    18     2     3   ar
    19     3     4   ar
    20     4    32    1
    21    32    33    1
    22    33    34    1
    23    34    35    1
    24    35    36    1
    25    36    37    1
    26    37    47    1
    27    47    48    1
    28    48    49    1
    29    49    50    1
    30    50    51    1
    31    51    52    1
    32    51    53    1
    33    53    54    1
    34    37    39    1
    35    39    40   ar
    36    40    41   ar
    37    41    42   ar
    38    42    43    1
    39    42    44   ar
    40    44    45   ar
    41    45    46    1
    42    37    38    1
    43     4     5   ar
    44     5     6   ar
    45    10    11    1
    46    11    12    1
    47    16    17   ar
    48    17    18   ar
    49    18    29    1
    50    29    30    1
    51    29    31    2
    52    22    23   ar
    53    23    24    2
    54    23    19   ar
    55    18    13   ar
    56    12     7    1
    57     6     1   ar
    58    38    34    1
    59    54    48    1
    60    45    39   ar
@<TRIPOS>MOLECULE
*****
 54 60 0 0 0
SMALL
GASTEIGER

@<TRIPOS>ATOM
      1 C          59.3097   87.8200   10.4561 C.ar    1  UNL1        0.0481
      2 C          59.8872   88.2784   11.6493 C.ar    1  UNL1        0.0176
      3 C          59.8376   87.4951   12.8055 C.ar    1  UNL1        0.0382
      4 C          59.2197   86.2392   12.7926 C.ar    1  UNL1        0.1388
      5 C          58.6262   85.7845   11.5969 C.ar    1  UNL1        0.0382
      6 C          58.6781   86.5666   10.4404 C.ar    1  UNL1        0.0176
      7 N          59.9711   89.9372    6.8906 N.pl3   1  UNL1       -0.3041
      8 C          60.6847   90.3506    8.1045 C.3     1  UNL1        0.1122
      9 C          59.8509   90.0118    9.3408 C.3     1  UNL1        0.1122
     10 N          59.3730   88.6258    9.2641 N.pl3   1  UNL1       -0.3041
     11 C          58.6616   88.2118    8.0485 C.3     1  UNL1        0.1122
     12 C          59.4963   88.5506    6.8132 C.3     1  UNL1        0.1122
     13 C          60.1167   92.3180    3.3627 C.ar    1  UNL1        0.0726
     14 C          58.9266   92.2011    4.0954 C.ar    1  UNL1        0.0191
     15 C          58.8768   91.4246    5.2530 C.ar    1  UNL1        0.0160
     16 C          60.0196   90.7494    5.7026 C.ar    1  UNL1        0.0481
     17 C          61.2180   90.8761    4.9852 C.ar    1  UNL1        0.0188
     18 C          61.2888   91.6734    3.8297 C.ar    1  UNL1        0.0522
     19 N          59.9510   93.5733   -0.0247 N.ar    1  UNL1       -0.2024
     20 N          59.9932   94.7159    0.6478 N.ar    1  UNL1       -0.1442
     21 C          60.0654   94.3847    1.9562 C.ar    1  UNL1        0.2073
     22 N          60.0977   93.0454    2.1247 N.ar    1  UNL1       -0.2397
     23 C          60.0105   92.5707    0.8696 C.ar    1  UNL1        0.3522
     24 O          59.9720   91.3459    0.5719 O.2     1  UNL1       -0.2444
     25 C          59.9197   93.4662   -1.4865 C.3     1  UNL1        0.1099
     26 C          61.0850   94.2689   -2.0761 C.3     1  UNL1        0.0265
     27 C          57.3804   93.1531   -1.4393 C.3     1  UNL1        0.0021
     28 C          58.5529   93.9469   -2.0161 C.3     1  UNL1        0.0245
     29 C          62.6058   91.8433    3.1723 C.2     1  UNL1        0.1749
     30 C          63.6477   90.7664    3.1995 C.3     1  UNL1        0.0773
     31 O          62.8486   92.9050    2.5379 O.2     1  UNL1       -0.2913
     32 O          59.2145   85.4986   13.9885 O.3     1  UNL1       -0.4727
     33 C          59.9027   84.2683   14.2309 C.3     1  UNL1        0.2374
     34 C          60.5529   83.7312   12.9475 C.3     1  UNL1        0.1909
     35 C          61.5950   82.6732   13.1853 C.3     1  UNL1        0.1783
     36 O          62.6550   82.9642   12.3338 O.3     1  UNL1       -0.3271
     37 C          62.4717   84.2959   11.8985 C.3     1  UNL1        0.2232
     38 O          61.1964   84.7736   12.2850 O.3     1  UNL1       -0.3258
     39 C          62.6092   84.3501   10.3744 C.ar    1  UNL1        0.0404
     40 C          61.7855   85.2201    9.6252 C.ar    1  UNL1        0.0021
     41 C          61.9046   85.3055    8.2370 C.ar    1  UNL1        0.0113
     42 C          62.8576   84.5408    7.5666 C.ar    1  UNL1        0.0585
     43 CL         63.0053   84.6537    5.8222 Cl      1  UNL1       -0.0822
     44 C          63.7033   83.6967    8.2864 C.ar    1  UNL1        0.0226
     45 C          63.5978   83.6000    9.6797 C.ar    1  UNL1        0.0591
     46 CL         64.7506   82.5445   10.4959 Cl      1  UNL1       -0.0824
     47 C          63.5373   85.2166   12.5340 C.3     1  UNL1        0.1338
     48 N          62.8963   86.2615   13.3667 N.3     1  UNL1       -0.2659
     49 C          63.3147   87.6199   12.9541 C.3     1  UNL1        0.0898
     50 C          62.9906   88.6469   14.0439 C.3     1  UNL1        0.0897
     51 N          63.7478   88.3729   15.2884 N.3     1  UNL1       -0.2691
     52 C          63.0352   88.9178   16.4549 C.3     1  UNL1        0.0897
     53 C          64.0811   86.9397   15.4796 C.3     1  UNL1        0.0897
     54 C          63.0459   86.0109   14.8251 C.3     1  UNL1        0.0898
@<TRIPOS>BOND
     1    27    28    1
     2    28    25    1
     3    25    26    1
     4    25    19    1
     5    19    20   ar
     6    20    21   ar
     7    21    22   ar
     8    22    13    1
     9    13    14   ar
    10    14    15   ar
    11    15    16   ar
    12    16     7    1
    13     7     8    1
    14     8     9    1
    15     9    10    1
    16    10     1    1
    17     1     2   ar
    18     2     3   ar
    19     3     4   ar
    20     4    32    1
    21    32    33    1
    22    33    34    1
    23    34    35    1
    24    35    36    1
    25    36    37    1
    26    37    47    1
    27    47    48    1
    28    48    49    1
    29    49    50    1
    30    50    51    1
    31    51    52    1
    32    51    53    1
    33    53    54    1
    34    37    39    1
    35    39    40   ar
    36    40    41   ar
    37    41    42   ar
    38    42    43    1
    39    42    44   ar
    40    44    45   ar
    41    45    46    1
    42    37    38    1
    43     4     5   ar
    44     5     6   ar
    45    10    11    1
    46    11    12    1
    47    16    17   ar
    48    17    18   ar
    49    18    29    1
    50    29    30    1
    51    29    31    2
    52    22    23   ar
    53    23    24    2
    54    23    19   ar
    55    18    13   ar
    56    12     7    1
    57     6     1   ar
    58    38    34    1
    59    54    48    1
    60    45    39   ar
@<TRIPOS>MOLECULE
*****
 54 60 0 0 0
SMALL
GASTEIGER

@<TRIPOS>ATOM
      1 C          61.1504   85.5895   10.1731 C.ar    1  UNL1        0.0481
      2 C          62.4314   85.1616   10.5520 C.ar    1  UNL1        0.0176
      3 C          62.5865   84.1540   11.5079 C.ar    1  UNL1        0.0382
      4 C          61.4701   83.5494   12.0974 C.ar    1  UNL1        0.1388
      5 C          60.1825   83.9896   11.7274 C.ar    1  UNL1        0.0382
      6 C          60.0275   84.9952   10.7698 C.ar    1  UNL1        0.0176
      7 N          60.2113   88.6796    7.4896 N.pl3   1  UNL1       -0.3041
      8 C          59.6137   87.3550    7.2844 C.3     1  UNL1        0.1122
      9 C          60.5475   86.2718    7.8255 C.3     1  UNL1        0.1122
     10 N          60.9952   86.6203    9.1796 N.pl3   1  UNL1       -0.3041
     11 C          61.5905   87.9464    9.3851 C.3     1  UNL1        0.1122
     12 C          60.6558   89.0286    8.8441 C.3     1  UNL1        0.1122
     13 C          59.7941   91.7351    4.5527 C.ar    1  UNL1        0.0726
     14 C          61.0348   91.1177    4.7679 C.ar    1  UNL1        0.0191
     15 C          61.1737   90.1144    5.7269 C.ar    1  UNL1        0.0160
     16 C          60.0713   89.7068    6.4903 C.ar    1  UNL1        0.0481
     17 C          58.8234   90.3071    6.2681 C.ar    1  UNL1        0.0188
     18 C          58.6636   91.3033    5.2894 C.ar    1  UNL1        0.0522
     19 N          59.4945   94.0353    1.7783 N.ar    1  UNL1       -0.2024
     20 N          59.5234   94.8912    2.7914 N.ar    1  UNL1       -0.1442
     21 C          59.6430   94.1478    3.9139 C.ar    1  UNL1        0.2073
     22 N          59.7184   92.8305    3.6273 N.ar    1  UNL1       -0.2397
     23 C          59.6085   92.7958    2.2875 C.ar    1  UNL1        0.3522
     24 O          59.5965   91.7385    1.6005 O.2     1  UNL1       -0.2444
     25 C          59.4239   94.4177    0.3648 C.3     1  UNL1        0.1099
     26 C          58.4623   93.4734   -0.3657 C.3     1  UNL1        0.0265
     27 C          61.0053   93.3266   -1.3254 C.3     1  UNL1        0.0021
     28 C          60.8380   94.4020   -0.2516 C.3     1  UNL1        0.0245
     29 C          57.3013   91.8289    5.0371 C.2     1  UNL1        0.1749
     30 C          56.1391   90.9197    4.7752 C.3     1  UNL1        0.0773
     31 O          57.0997   93.0724    5.0809 O.2     1  UNL1       -0.2913
     32 O          61.6976   82.5347   13.0446 O.3     1  UNL1       -0.4727
     33 C          61.9886   82.7161   14.4333 C.3     1  UNL1        0.2374
     34 C          62.7829   84.0086   14.6720 C.3     1  UNL1        0.1909
     35 C          63.0406   84.3102   16.1227 C.3     1  UNL1        0.1783
     36 O          62.8200   85.6730   16.2882 O.3     1  UNL1       -0.3271
     37 C          62.1049   86.1092   15.1504 C.3     1  UNL1        0.2232
     38 O          62.0658   85.0909   14.1678 O.3     1  UNL1       -0.3258
     39 C          62.7815   87.3588   14.5799 C.ar    1  UNL1        0.0404
     40 C          62.8685   87.5337   13.1804 C.ar    1  UNL1        0.0021
     41 C          63.4605   88.6734   12.6334 C.ar    1  UNL1        0.0113
     42 C          63.9624   89.6715   13.4668 C.ar    1  UNL1        0.0585
     43 CL         64.7030   91.1032   12.7746 Cl      1  UNL1       -0.0822
     44 C          63.8616   89.5367   14.8515 C.ar    1  UNL1        0.0226
     45 C          63.2696   88.4001   15.4166 C.ar    1  UNL1        0.0591
     46 CL         63.1453   88.3557   17.1750 Cl      1  UNL1       -0.0824
     47 C          60.6491   86.4553   15.5352 C.3     1  UNL1        0.1338
     48 N          59.8205   86.6530   14.3226 N.3     1  UNL1       -0.2659
     49 C          59.1327   87.9634   14.3402 C.3     1  UNL1        0.0898
     50 C          57.9870   87.9937   13.3234 C.3     1  UNL1        0.0897
     51 N          56.9368   87.0039   13.6615 N.3     1  UNL1       -0.2691
     52 C          56.1992   86.6030   12.4529 C.3     1  UNL1        0.0897
     53 C          57.4472   85.8224   14.4000 C.3     1  UNL1        0.0897
     54 C          58.9108   85.5080   14.0511 C.3     1  UNL1        0.0898
@<TRIPOS>BOND
     1    27    28    1
     2    28    25    1
     3    25    26    1
     4    25    19    1
     5    19    20   ar
     6    20    21   ar
     7    21    22   ar
     8    22    13    1
     9    13    14   ar
    10    14    15   ar
    11    15    16   ar
    12    16     7    1
    13     7     8    1
    14     8     9    1
    15     9    10    1
    16    10     1    1
    17     1     2   ar
    18     2     3   ar
    19     3     4   ar
    20     4    32    1
    21    32    33    1
    22    33    34    1
    23    34    35    1
    24    35    36    1
    25    36    37    1
    26    37    47    1
    27    47    48    1
    28    48    49    1
    29    49    50    1
    30    50    51    1
    31    51    52    1
    32    51    53    1
    33    53    54    1
    34    37    39    1
    35    39    40   ar
    36    40    41   ar
    37    41    42   ar
    38    42    43    1
    39    42    44   ar
    40    44    45   ar
    41    45    46    1
    42    37    38    1
    43     4     5   ar
    44     5     6   ar
    45    10    11    1
    46    11    12    1
    47    16    17   ar
    48    17    18   ar
    49    18    29    1
    50    29    30    1
    51    29    31    2
    52    22    23   ar
    53    23    24    2
    54    23    19   ar
    55    18    13   ar
    56    12     7    1
    57     6     1   ar
    58    38    34    1
    59    54    48    1
    60    45    39   ar
@<TRIPOS>MOLECULE
*****
 54 60 0 0 0
SMALL
GASTEIGER

@<TRIPOS>ATOM
      1 C          59.5072   87.3376   10.3943 C.ar    1  UNL1        0.0481
      2 C          60.7040   87.0239   11.0553 C.ar    1  UNL1        0.0176
      3 C          60.6985   86.1668   12.1591 C.ar    1  UNL1        0.0382
      4 C          59.5038   85.6008   12.6192 C.ar    1  UNL1        0.1388
      5 C          58.2987   85.9276   11.9638 C.ar    1  UNL1        0.0382
      6 C          58.3046   86.7825   10.8587 C.ar    1  UNL1        0.0176
      7 N          60.0234   89.6773    6.9459 N.pl3   1  UNL1       -0.3041
      8 C          60.7512   90.0422    8.1669 C.3     1  UNL1        0.1122
      9 C          59.9561   89.6062    9.3981 C.3     1  UNL1        0.1122
     10 N          59.5191   88.2125    9.2505 N.pl3   1  UNL1       -0.3041
     11 C          58.7936   87.8471    8.0277 C.3     1  UNL1        0.1122
     12 C          59.5896   88.2831    6.7973 C.3     1  UNL1        0.1122
     13 C          60.0163   92.2615    3.5610 C.ar    1  UNL1        0.0726
     14 C          58.8553   92.0887    4.3285 C.ar    1  UNL1        0.0191
     15 C          58.8556   91.2454    5.4396 C.ar    1  UNL1        0.0160
     16 C          60.0204   90.5580    5.8067 C.ar    1  UNL1        0.0481
     17 C          61.1901   90.7398    5.0546 C.ar    1  UNL1        0.0188
     18 C          61.2107   91.6039    3.9461 C.ar    1  UNL1        0.0522
     19 N          59.6524   93.7215    0.2726 N.ar    1  UNL1       -0.2024
     20 N          59.8381   94.8170    0.9971 N.ar    1  UNL1       -0.1442
     21 C          59.9984   94.4055    2.2745 C.ar    1  UNL1        0.2073
     22 N          59.9447   93.0597    2.3694 N.ar    1  UNL1       -0.2397
     23 C          59.7138   92.6666    1.1044 C.ar    1  UNL1        0.3522
     24 O          59.5581   91.4670    0.7479 O.2     1  UNL1       -0.2444
     25 C          59.4867   93.7026   -1.1839 C.3     1  UNL1        0.1099
     26 C          60.6074   94.5254   -1.8298 C.3     1  UNL1        0.0265
     27 C          57.0176   93.1367   -1.5468 C.3     1  UNL1        0.0021
     28 C          58.0860   94.2304   -1.5570 C.3     1  UNL1        0.0245
     29 C          62.5008   91.8267    3.2521 C.2     1  UNL1        0.1749
     30 C          63.5697   90.7769    3.2144 C.3     1  UNL1        0.0773
     31 O          62.6960   92.9120    2.6416 O.2     1  UNL1       -0.2913
     32 O          59.5712   84.7386   13.7286 O.3     1  UNL1       -0.4727
     33 C          59.9808   83.3681   13.7180 C.3     1  UNL1        0.2374
     34 C          59.2905   82.5889   12.5890 C.3     1  UNL1        0.1909
     35 C          59.2555   81.1008   12.8043 C.3     1  UNL1        0.1783
     36 O          59.5616   80.5171   11.5799 O.3     1  UNL1       -0.3271
     37 C          60.1281   81.5324   10.7770 C.3     1  UNL1        0.2232
     38 O          59.9794   82.7965   11.3965 O.3     1  UNL1       -0.3258
     39 C          59.4374   81.5367    9.4104 C.ar    1  UNL1        0.0404
     40 C          58.3676   80.6477    9.1611 C.ar    1  UNL1        0.0021
     41 C          57.7060   80.6453    7.9320 C.ar    1  UNL1        0.0113
     42 C          58.0825   81.5392    6.9312 C.ar    1  UNL1        0.0585
     43 CL         57.2462   81.5342    5.3891 Cl      1  UNL1       -0.0822
     44 C          59.1157   82.4474    7.1630 C.ar    1  UNL1        0.0226
     45 C          59.7892   82.4638    8.3909 C.ar    1  UNL1        0.0591
     46 CL         61.0422   83.6870    8.5975 Cl      1  UNL1       -0.0824
     47 C          61.6385   81.2749   10.5778 C.3     1  UNL1        0.1338
     48 N          62.4361   82.4068   11.1059 N.3     1  UNL1       -0.2659
     49 C          63.7517   82.5060   10.4352 C.3     1  UNL1        0.0898
     50 C          64.7118   83.3867   11.2414 C.3     1  UNL1        0.0897
     51 N          65.0013   82.7967   12.5701 N.3     1  UNL1       -0.2691
     52 C          65.3805   83.8472   13.5282 C.3     1  UNL1        0.0897
     53 C          63.9012   81.9535   13.0999 C.3     1  UNL1        0.0897
     54 C          62.5242   82.4089   12.5906 C.3     1  UNL1        0.0898
@<TRIPOS>BOND
     1    27    28    1
     2    28    25    1
     3    25    26    1
     4    25    19    1
     5    19    20   ar
     6    20    21   ar
     7    21    22   ar
     8    22    13    1
     9    13    14   ar
    10    14    15   ar
    11    15    16   ar
    12    16     7    1
    13     7     8    1
    14     8     9    1
    15     9    10    1
    16    10     1    1
    17     1     2   ar
    18     2     3   ar
    19     3     4   ar
    20     4    32    1
    21    32    33    1
    22    33    34    1
    23    34    35    1
    24    35    36    1
    25    36    37    1
    26    37    47    1
    27    47    48    1
    28    48    49    1
    29    49    50    1
    30    50    51    1
    31    51    52    1
    32    51    53    1
    33    53    54    1
    34    37    39    1
    35    39    40   ar
    36    40    41   ar
    37    41    42   ar
    38    42    43    1
    39    42    44   ar
    40    44    45   ar
    41    45    46    1
    42    37    38    1
    43     4     5   ar
    44     5     6   ar
    45    10    11    1
    46    11    12    1
    47    16    17   ar
    48    17    18   ar
    49    18    29    1
    50    29    30    1
    51    29    31    2
    52    22    23   ar
    53    23    24    2
    54    23    19   ar
    55    18    13   ar
    56    12     7    1
    57     6     1   ar
    58    38    34    1
    59    54    48    1
    60    45    39   ar
