@<TRIPOS>MOLECULE
*****
 45 51 0 0 0
SMALL
GASTEIGER

@<TRIPOS>ATOM
      1 C         -27.9011   48.0263   -5.7562 C.3     1  UNL1        0.0817
      2 C         -28.1983   46.9536   -6.8276 C.3     1  UNL1        0.0252
      3 C         -27.1677   47.1568   -7.9581 C.3     1  UNL1        0.0278
      4 C         -26.5069   48.4423   -7.6181 C.ar    1  UNL1       -0.0248
      5 C         -25.6081   49.1556   -8.4132 C.ar    1  UNL1       -0.0045
      6 C         -25.0911   50.3784   -7.9347 C.ar    1  UNL1       -0.0002
      7 C         -25.5103   50.8630   -6.6751 C.ar    1  UNL1       -0.0003
      8 C         -26.4259   50.1354   -5.9025 C.ar    1  UNL1       -0.0033
      9 C         -26.9211   48.9312   -6.4050 C.ar    1  UNL1       -0.0117
     10 C         -30.0345   49.3621   -6.0984 C.3     1  UNL1        0.1158
     11 N         -31.0842   49.8799   -5.4128 N.3     1  UNL1       -0.2851
     12 C         -30.8065   49.5609   -4.1400 C.3     1  UNL1        0.0910
     13 C         -31.5840   49.8338   -3.0252 C.3     1  UNL1        0.1018
     14 C         -31.1108   49.3863   -1.7835 C.3     1  UNL1        0.3136
     15 N         -29.9104   48.7182   -1.6807 N.am    1  UNL1       -0.1293
     16 C         -29.1497   48.4644   -2.8019 C.2     1  UNL1        0.4047
     17 O         -28.0450   47.8751   -2.6956 O.2     1  UNL1       -0.2174
     18 C         -29.6266   48.8869   -4.0538 C.3     1  UNL1        0.2038
     19 N         -29.1127   48.7424   -5.3020 N.3     1  UNL1       -0.2473
     20 H         -31.9620   49.4559   -5.7129 H       1  UNL1        0.1244
     21 C         -31.1947   50.1328   -8.1685 C.3     1  UNL1        0.0029
     22 C         -29.9267   49.5130   -7.5906 C.3     1  UNL1        0.0326
     23 C         -29.4569   48.2570   -0.3564 C.3     1  UNL1        0.3404
     24 C         -30.2135   47.0131    0.0616 C.ar    1  UNL1        0.0640
     25 C         -30.3194   45.9542   -0.8575 C.ar    1  UNL1        0.0031
     26 C         -30.9984   44.7819   -0.5184 C.ar    1  UNL1       -0.0001
     27 C         -31.5839   44.6517    0.7407 C.ar    1  UNL1        0.0007
     28 C         -31.4893   45.6918    1.6668 C.ar    1  UNL1        0.0102
     29 C         -30.8048   46.8714    1.3426 C.ar    1  UNL1        0.0710
     30 C         -30.7293   47.9111    2.3407 C.1     1  UNL1        0.1003
     31 N         -30.6714   48.7442    3.1419 N.1     1  UNL1       -0.1908
     32 C         -24.1653   51.1802   -8.7708 C.ar    1  UNL1        0.0030
     33 C         -22.8038   51.1994   -8.4211 C.ar    1  UNL1        0.0006
     34 C         -21.9030   52.0166   -9.1029 C.ar    1  UNL1        0.0059
     35 C         -22.3459   52.8221  -10.1516 C.ar    1  UNL1        0.0216
     36 S         -21.1874   53.8726  -11.0224 S.3     1  UNL1       -0.1414
     37 C         -23.6905   52.7976  -10.5318 C.ar    1  UNL1        0.0090
     38 C         -24.6126   51.9720   -9.8627 C.ar    1  UNL1        0.0376
     39 H         -20.8865   52.8605  -11.9531 H       1  UNL1        0.1071
     40 C         -26.0060   51.9098  -10.3663 C.ar    1  UNL1        0.1806
     41 N         -26.3656   51.4547  -11.5822 N.ar    1  UNL1       -0.1084
     42 N         -27.6815   51.6060  -11.6318 N.ar    1  UNL1       -0.0229
     43 N         -28.1180   52.1372  -10.4997 N.ar    1  UNL1       -0.0464
     44 N         -27.0893   52.3400   -9.6972 N.ar    1  UNL1       -0.2388
     45 H         -27.1453   52.7412   -8.7352 H       1  UNL1        0.1923
@<TRIPOS>BOND
     1    21    22    1
     2    22    10    1
     3    10    11    1
     4    11    12    1
     5    12    13    1
     6    13    14    1
     7    14    15    1
     8    15    23    1
     9    23    24    1
    10    24    25   ar
    11    25    26   ar
    12    26    27   ar
    13    27    28   ar
    14    28    29   ar
    15    29    30    1
    16    30    31    3
    17    15    16    1
    18    16    17    2
    19    16    18    1
    20    18    19    1
    21    19     1    1
    22     1     2    1
    23     2     3    1
    24     3     4    1
    25     4     5   ar
    26     5     6   ar
    27     6    32    1
    28    32    33   ar
    29    33    34   ar
    30    34    35   ar
    31    35    36    1
    32    35    37   ar
    33    37    38   ar
    34    38    40    1
    35    40    41   ar
    36    41    42   ar
    37    42    43   ar
    38    43    44   ar
    39     6     7   ar
    40     7     8   ar
    41     8     9   ar
    42    19    10    1
    43     9     1    1
    44    18    12    1
    45     9     4   ar
    46    29    24   ar
    47    38    32   ar
    48    44    40   ar
    49    36    39    1
    50    44    45    1
    51    11    20    1
@<TRIPOS>MOLECULE
*****
 45 51 0 0 0
SMALL
GASTEIGER

@<TRIPOS>ATOM
      1 C         -27.5771   48.9006   -9.2962 C.3     1  UNL1        0.0817
      2 C         -26.0496   48.9629   -9.0730 C.3     1  UNL1        0.0252
      3 C         -25.7822   48.3895   -7.6654 C.3     1  UNL1        0.0278
      4 C         -27.1342   48.2574   -7.0660 C.ar    1  UNL1       -0.0248
      5 C         -27.4328   47.9348   -5.7411 C.ar    1  UNL1       -0.0045
      6 C         -28.7840   47.8730   -5.3388 C.ar    1  UNL1       -0.0002
      7 C         -29.8008   48.1598   -6.2774 C.ar    1  UNL1       -0.0003
      8 C         -29.4744   48.4965   -7.5982 C.ar    1  UNL1       -0.0033
      9 C         -28.1286   48.5521   -7.9641 C.ar    1  UNL1       -0.0117
     10 C         -27.7301   51.4279   -9.5019 C.3     1  UNL1        0.1158
     11 N         -28.3777   52.3994  -10.1925 N.3     1  UNL1       -0.2851
     12 C         -29.2146   51.7092  -10.9813 C.3     1  UNL1        0.0910
     13 C         -30.0938   52.2292  -11.9183 C.3     1  UNL1        0.1018
     14 C         -30.8648   51.3185  -12.6546 C.3     1  UNL1        0.3136
     15 N         -30.7606   49.9622  -12.4370 N.am    1  UNL1       -0.1293
     16 C         -29.8849   49.4675  -11.4943 C.2     1  UNL1        0.4047
     17 O         -29.8137   48.2303  -11.2861 O.2     1  UNL1       -0.2174
     18 C         -29.0901   50.3700  -10.7685 C.3     1  UNL1        0.2038
     19 N         -28.1373   50.1635   -9.8238 N.3     1  UNL1       -0.2473
     20 H         -27.7237   52.9513  -10.7475 H       1  UNL1        0.1244
     21 C         -27.3475   52.0857   -7.1257 C.3     1  UNL1        0.0029
     22 C         -26.6939   51.7657   -8.4661 C.3     1  UNL1        0.0326
     23 C         -31.5832   49.0411  -13.2412 C.3     1  UNL1        0.3404
     24 C         -31.0245   48.9153  -14.6435 C.ar    1  UNL1        0.0640
     25 C         -31.2308   49.9761  -15.5433 C.ar    1  UNL1        0.0031
     26 C         -30.7285   49.9140  -16.8449 C.ar    1  UNL1       -0.0001
     27 C         -30.0168   48.7915  -17.2674 C.ar    1  UNL1        0.0007
     28 C         -29.8014   47.7284  -16.3888 C.ar    1  UNL1        0.0102
     29 C         -30.2938   47.7801  -15.0773 C.ar    1  UNL1        0.0710
     30 C         -30.0344   46.6578  -14.2078 C.1     1  UNL1        0.1003
     31 N         -29.8276   45.7593  -13.5082 N.1     1  UNL1       -0.1908
     32 C         -29.1345   47.5719   -3.9296 C.ar    1  UNL1        0.0030
     33 C         -30.2628   48.2029   -3.3774 C.ar    1  UNL1        0.0006
     34 C         -30.5822   48.0430   -2.0297 C.ar    1  UNL1        0.0059
     35 C         -29.7841   47.2427   -1.2126 C.ar    1  UNL1        0.0216
     36 S         -30.1950   47.0425    0.5180 S.3     1  UNL1       -0.1414
     37 C         -28.6731   46.5858   -1.7485 C.ar    1  UNL1        0.0090
     38 C         -28.3405   46.7266   -3.1084 C.ar    1  UNL1        0.0376
     39 H         -31.0080   45.9249    0.2510 H       1  UNL1        0.1071
     40 C         -27.2105   45.9331   -3.6490 C.ar    1  UNL1        0.1806
     41 N         -27.3326   44.9179   -4.5261 N.ar    1  UNL1       -0.1084
     42 N         -26.0980   44.4726   -4.7123 N.ar    1  UNL1       -0.0229
     43 N         -25.2488   45.1759   -3.9787 N.ar    1  UNL1       -0.0464
     44 N         -25.9213   46.0895   -3.3030 N.ar    1  UNL1       -0.2388
     45 H         -25.5008   46.7883   -2.6515 H       1  UNL1        0.1923
@<TRIPOS>BOND
     1    21    22    1
     2    22    10    1
     3    10    11    1
     4    11    12    1
     5    12    13    1
     6    13    14    1
     7    14    15    1
     8    15    23    1
     9    23    24    1
    10    24    25   ar
    11    25    26   ar
    12    26    27   ar
    13    27    28   ar
    14    28    29   ar
    15    29    30    1
    16    30    31    3
    17    15    16    1
    18    16    17    2
    19    16    18    1
    20    18    19    1
    21    19     1    1
    22     1     2    1
    23     2     3    1
    24     3     4    1
    25     4     5   ar
    26     5     6   ar
    27     6    32    1
    28    32    33   ar
    29    33    34   ar
    30    34    35   ar
    31    35    36    1
    32    35    37   ar
    33    37    38   ar
    34    38    40    1
    35    40    41   ar
    36    41    42   ar
    37    42    43   ar
    38    43    44   ar
    39     6     7   ar
    40     7     8   ar
    41     8     9   ar
    42    19    10    1
    43     9     1    1
    44    18    12    1
    45     9     4   ar
    46    29    24   ar
    47    38    32   ar
    48    44    40   ar
    49    36    39    1
    50    44    45    1
    51    11    20    1
@<TRIPOS>MOLECULE
*****
 45 51 0 0 0
SMALL
GASTEIGER

@<TRIPOS>ATOM
      1 C         -29.4199   46.7853  -10.2084 C.3     1  UNL1        0.0817
      2 C         -27.9171   46.4516  -10.3400 C.3     1  UNL1        0.0252
      3 C         -27.3884   46.2110   -8.9103 C.3     1  UNL1        0.0278
      4 C         -28.5065   46.6426   -8.0339 C.ar    1  UNL1       -0.0248
      5 C         -28.4750   46.7776   -6.6448 C.ar    1  UNL1       -0.0045
      6 C         -29.6336   47.2224   -5.9732 C.ar    1  UNL1       -0.0002
      7 C         -30.7894   47.5414   -6.7213 C.ar    1  UNL1       -0.0003
      8 C         -30.7906   47.4122   -8.1170 C.ar    1  UNL1       -0.0033
      9 C         -29.6280   46.9728   -8.7518 C.ar    1  UNL1       -0.0117
     10 C         -30.7392   48.0085  -12.0019 C.3     1  UNL1        0.1158
     11 N         -30.9575   49.2526  -12.4962 N.3     1  UNL1       -0.2851
     12 C         -30.1467   50.0234  -11.7563 C.3     1  UNL1        0.0910
     13 C         -30.0063   51.4001  -11.8359 C.3     1  UNL1        0.1018
     14 C         -29.1119   52.0100  -10.9448 C.3     1  UNL1        0.3136
     15 N         -28.3906   51.2618  -10.0405 N.am    1  UNL1       -0.1293
     16 C         -28.5405   49.8926   -9.9840 C.2     1  UNL1        0.4047
     17 O         -27.8611   49.2157   -9.1721 O.2     1  UNL1       -0.2174
     18 C         -29.4522   49.2745  -10.8557 C.3     1  UNL1        0.2038
     19 N         -29.8197   47.9747  -10.9912 N.3     1  UNL1       -0.2473
     20 H         -31.9325   49.5276  -12.3772 H       1  UNL1        0.1244
     21 C         -30.6911   46.2556  -13.7769 C.3     1  UNL1        0.0029
     22 C         -31.4438   46.8083  -12.5710 C.3     1  UNL1        0.0326
     23 C         -27.4694   51.9461   -9.1159 C.3     1  UNL1        0.3404
     24 C         -27.6703   51.4485   -7.6994 C.ar    1  UNL1        0.0640
     25 C         -28.9413   51.5905   -7.1146 C.ar    1  UNL1        0.0031
     26 C         -29.1816   51.1400   -5.8147 C.ar    1  UNL1       -0.0001
     27 C         -28.1565   50.5451   -5.0796 C.ar    1  UNL1        0.0007
     28 C         -26.8882   50.3949   -5.6430 C.ar    1  UNL1        0.0102
     29 C         -26.6345   50.8362   -6.9492 C.ar    1  UNL1        0.0710
     30 C         -25.3082   50.6477   -7.4860 C.1     1  UNL1        0.1003
     31 N         -24.2455   50.4977   -7.9192 N.1     1  UNL1       -0.1908
     32 C         -29.6217   47.4144   -4.5028 C.ar    1  UNL1        0.0030
     33 C         -30.7214   48.0581   -3.9089 C.ar    1  UNL1        0.0006
     34 C         -30.7214   48.3618   -2.5482 C.ar    1  UNL1        0.0059
     35 C         -29.6260   48.0197   -1.7558 C.ar    1  UNL1        0.0216
     36 S         -29.6279   48.4144   -0.0099 S.3     1  UNL1       -0.1414
     37 C         -28.5342   47.3559   -2.3218 C.ar    1  UNL1        0.0090
     38 C         -28.5200   47.0317   -3.6909 C.ar    1  UNL1        0.0376
     39 H         -30.2271   47.1848    0.3223 H       1  UNL1        0.1071
     40 C         -27.3825   46.2424   -4.2220 C.ar    1  UNL1        0.1806
     41 N         -27.3233   44.8968   -4.2453 N.ar    1  UNL1       -0.1084
     42 N         -26.1365   44.6126   -4.7627 N.ar    1  UNL1       -0.0229
     43 N         -25.4858   45.7319   -5.0420 N.ar    1  UNL1       -0.0464
     44 N         -26.2422   46.7615   -4.7082 N.ar    1  UNL1       -0.2388
     45 H         -25.9809   47.7651   -4.8276 H       1  UNL1        0.1923
@<TRIPOS>BOND
     1    21    22    1
     2    22    10    1
     3    10    11    1
     4    11    12    1
     5    12    13    1
     6    13    14    1
     7    14    15    1
     8    15    23    1
     9    23    24    1
    10    24    25   ar
    11    25    26   ar
    12    26    27   ar
    13    27    28   ar
    14    28    29   ar
    15    29    30    1
    16    30    31    3
    17    15    16    1
    18    16    17    2
    19    16    18    1
    20    18    19    1
    21    19     1    1
    22     1     2    1
    23     2     3    1
    24     3     4    1
    25     4     5   ar
    26     5     6   ar
    27     6    32    1
    28    32    33   ar
    29    33    34   ar
    30    34    35   ar
    31    35    36    1
    32    35    37   ar
    33    37    38   ar
    34    38    40    1
    35    40    41   ar
    36    41    42   ar
    37    42    43   ar
    38    43    44   ar
    39     6     7   ar
    40     7     8   ar
    41     8     9   ar
    42    19    10    1
    43     9     1    1
    44    18    12    1
    45     9     4   ar
    46    29    24   ar
    47    38    32   ar
    48    44    40   ar
    49    36    39    1
    50    44    45    1
    51    11    20    1
@<TRIPOS>MOLECULE
*****
 45 51 0 0 0
SMALL
GASTEIGER

@<TRIPOS>ATOM
      1 C         -30.0399   50.2595  -11.4984 C.3     1  UNL1        0.0817
      2 C         -30.7730   50.5002  -10.1599 C.3     1  UNL1        0.0252
      3 C         -29.7743   51.2197   -9.2291 C.3     1  UNL1        0.0278
      4 C         -28.4823   51.1430   -9.9567 C.ar    1  UNL1       -0.0248
      5 C         -27.2257   51.5050   -9.4683 C.ar    1  UNL1       -0.0045
      6 C         -26.0957   51.3446  -10.2983 C.ar    1  UNL1       -0.0002
      7 C         -26.2579   50.8022  -11.5932 C.ar    1  UNL1       -0.0003
      8 C         -27.5285   50.4320  -12.0547 C.ar    1  UNL1       -0.0033
      9 C         -28.6256   50.6002  -11.2085 C.ar    1  UNL1       -0.0117
     10 C         -30.3406   47.7499  -11.2444 C.3     1  UNL1        0.1158
     11 N         -30.5311   46.6242  -11.9768 N.3     1  UNL1       -0.2851
     12 C         -30.5097   47.0730  -13.2405 C.3     1  UNL1        0.0910
     13 C         -30.6901   46.3239  -14.3928 C.3     1  UNL1        0.1018
     14 C         -30.6508   47.0050  -15.6178 C.3     1  UNL1        0.3136
     15 N         -30.4233   48.3628  -15.6676 N.am    1  UNL1       -0.1293
     16 C         -30.2389   49.0868  -14.5091 C.2     1  UNL1        0.4047
     17 O         -30.0086   50.3208  -14.5654 O.2     1  UNL1       -0.2174
     18 C         -30.3008   48.4181  -13.2753 C.3     1  UNL1        0.2038
     19 N         -30.1934   48.8776  -12.0024 N.3     1  UNL1       -0.2473
     20 H         -31.4287   46.1925  -11.7572 H       1  UNL1        0.1244
     21 C         -28.8903   47.2578   -9.2747 C.3     1  UNL1        0.0029
     22 C         -30.2722   47.7015   -9.7431 C.3     1  UNL1        0.0326
     23 C         -30.4004   49.0390  -16.9767 C.3     1  UNL1        0.3404
     24 C         -28.9987   49.0400  -17.5508 C.ar    1  UNL1        0.0640
     25 C         -28.1642   50.1379  -17.2760 C.ar    1  UNL1        0.0031
     26 C         -26.8601   50.1836  -17.7737 C.ar    1  UNL1       -0.0001
     27 C         -26.3723   49.1363  -18.5549 C.ar    1  UNL1        0.0007
     28 C         -27.1854   48.0377  -18.8383 C.ar    1  UNL1        0.0102
     29 C         -28.4940   47.9752  -18.3396 C.ar    1  UNL1        0.0710
     30 C         -29.2882   46.8121  -18.6551 C.1     1  UNL1        0.1003
     31 N         -29.9227   45.8783  -18.9094 N.1     1  UNL1       -0.1908
     32 C         -24.7418   51.6822   -9.7964 C.ar    1  UNL1        0.0030
     33 C         -23.9362   52.5280  -10.5786 C.ar    1  UNL1        0.0006
     34 C         -22.6178   52.7968  -10.2133 C.ar    1  UNL1        0.0059
     35 C         -22.0845   52.2318   -9.0552 C.ar    1  UNL1        0.0216
     36 S         -20.3904   52.5762   -8.5911 S.3     1  UNL1       -0.1414
     37 C         -22.8771   51.4094   -8.2500 C.ar    1  UNL1        0.0090
     38 C         -24.2128   51.1346   -8.5965 C.ar    1  UNL1        0.0376
     39 H         -20.7688   53.7061   -7.8419 H       1  UNL1        0.1071
     40 C         -25.0397   50.3360   -7.6597 C.ar    1  UNL1        0.1806
     41 N         -25.6347   50.8211   -6.5527 N.ar    1  UNL1       -0.1084
     42 N         -26.2343   49.7771   -5.9979 N.ar    1  UNL1       -0.0229
     43 N         -26.0156   48.6918   -6.7248 N.ar    1  UNL1       -0.0464
     44 N         -25.2683   49.0158   -7.7639 N.ar    1  UNL1       -0.2388
     45 H         -24.9508   48.3553   -8.5073 H       1  UNL1        0.1923
@<TRIPOS>BOND
     1    21    22    1
     2    22    10    1
     3    10    11    1
     4    11    12    1
     5    12    13    1
     6    13    14    1
     7    14    15    1
     8    15    23    1
     9    23    24    1
    10    24    25   ar
    11    25    26   ar
    12    26    27   ar
    13    27    28   ar
    14    28    29   ar
    15    29    30    1
    16    30    31    3
    17    15    16    1
    18    16    17    2
    19    16    18    1
    20    18    19    1
    21    19     1    1
    22     1     2    1
    23     2     3    1
    24     3     4    1
    25     4     5   ar
    26     5     6   ar
    27     6    32    1
    28    32    33   ar
    29    33    34   ar
    30    34    35   ar
    31    35    36    1
    32    35    37   ar
    33    37    38   ar
    34    38    40    1
    35    40    41   ar
    36    41    42   ar
    37    42    43   ar
    38    43    44   ar
    39     6     7   ar
    40     7     8   ar
    41     8     9   ar
    42    19    10    1
    43     9     1    1
    44    18    12    1
    45     9     4   ar
    46    29    24   ar
    47    38    32   ar
    48    44    40   ar
    49    36    39    1
    50    44    45    1
    51    11    20    1
@<TRIPOS>MOLECULE
*****
 45 51 0 0 0
SMALL
GASTEIGER

@<TRIPOS>ATOM
      1 C         -30.7166   48.3325   -8.2797 C.3     1  UNL1        0.0817
      2 C         -31.1890   49.2917   -7.1645 C.3     1  UNL1        0.0252
      3 C         -30.1533   50.4335   -7.0921 C.3     1  UNL1        0.0278
      4 C         -29.0436   49.9709   -7.9633 C.ar    1  UNL1       -0.0248
      5 C         -27.7910   50.5694   -8.1094 C.ar    1  UNL1       -0.0045
      6 C         -26.8447   49.9765   -8.9723 C.ar    1  UNL1       -0.0002
      7 C         -27.1773   48.7820   -9.6502 C.ar    1  UNL1       -0.0003
      8 C         -28.4366   48.1921   -9.4747 C.ar    1  UNL1       -0.0033
      9 C         -29.3491   48.8012   -8.6120 C.ar    1  UNL1       -0.0117
     10 C         -31.0758   45.8462   -8.6571 C.3     1  UNL1        0.1158
     11 N         -30.9410   44.6479   -8.0359 N.3     1  UNL1       -0.2851
     12 C         -30.4951   44.9831   -6.8162 C.3     1  UNL1        0.0910
     13 C         -30.1637   44.1184   -5.7847 C.3     1  UNL1        0.1018
     14 C         -29.6933   44.6868   -4.5923 C.3     1  UNL1        0.3136
     15 N         -29.5846   46.0530   -4.4523 N.am    1  UNL1       -0.1293
     16 C         -29.9272   46.8946   -5.4889 C.2     1  UNL1        0.4047
     17 O         -29.8471   48.1402   -5.3441 O.2     1  UNL1       -0.2174
     18 C         -30.3762   46.3342   -6.6962 C.3     1  UNL1        0.2038
     19 N         -30.7398   46.9117   -7.8698 N.3     1  UNL1       -0.2473
     20 H         -30.2664   44.0575   -8.5224 H       1  UNL1        0.1244
     21 C         -30.4626   45.6770  -11.0698 C.3     1  UNL1        0.0029
     22 C         -31.5834   45.9399  -10.0693 C.3     1  UNL1        0.0326
     23 C         -29.0757   46.6061   -3.1847 C.3     1  UNL1        0.3404
     24 C         -27.6242   46.2235   -2.9819 C.ar    1  UNL1        0.0640
     25 C         -27.3362   44.9723   -2.4083 C.ar    1  UNL1        0.0031
     26 C         -26.0146   44.5677   -2.2082 C.ar    1  UNL1       -0.0001
     27 C         -24.9628   45.4072   -2.5744 C.ar    1  UNL1        0.0007
     28 C         -25.2285   46.6528   -3.1456 C.ar    1  UNL1        0.0102
     29 C         -26.5500   47.0690   -3.3587 C.ar    1  UNL1        0.0710
     30 C         -26.7679   48.3623   -3.9612 C.1     1  UNL1        0.1003
     31 N         -26.9448   49.3981   -4.4461 N.1     1  UNL1       -0.1908
     32 C         -25.4914   50.5646   -9.1197 C.ar    1  UNL1        0.0030
     33 C         -24.5979   50.4516   -8.0403 C.ar    1  UNL1        0.0006
     34 C         -23.3509   51.0742   -8.0774 C.ar    1  UNL1        0.0059
     35 C         -22.9720   51.8133   -9.1977 C.ar    1  UNL1        0.0216
     36 S         -21.3718   52.6143   -9.2406 S.3     1  UNL1       -0.1414
     37 C         -23.8353   51.9158  -10.2919 C.ar    1  UNL1        0.0090
     38 C         -25.0935   51.2862  -10.2774 C.ar    1  UNL1        0.0376
     39 H         -20.7595   51.4801   -9.8062 H       1  UNL1        0.1071
     40 C         -25.9309   51.3445  -11.4997 C.ar    1  UNL1        0.1806
     41 N         -25.4722   51.1816  -12.7559 N.ar    1  UNL1       -0.1084
     42 N         -26.5330   51.3433  -13.5341 N.ar    1  UNL1       -0.0229
     43 N         -27.6008   51.6014  -12.7943 N.ar    1  UNL1       -0.0464
     44 N         -27.2478   51.6121  -11.5220 N.ar    1  UNL1       -0.2388
     45 H         -27.8928   51.7818  -10.7190 H       1  UNL1        0.1923
@<TRIPOS>BOND
     1    21    22    1
     2    22    10    1
     3    10    11    1
     4    11    12    1
     5    12    13    1
     6    13    14    1
     7    14    15    1
     8    15    23    1
     9    23    24    1
    10    24    25   ar
    11    25    26   ar
    12    26    27   ar
    13    27    28   ar
    14    28    29   ar
    15    29    30    1
    16    30    31    3
    17    15    16    1
    18    16    17    2
    19    16    18    1
    20    18    19    1
    21    19     1    1
    22     1     2    1
    23     2     3    1
    24     3     4    1
    25     4     5   ar
    26     5     6   ar
    27     6    32    1
    28    32    33   ar
    29    33    34   ar
    30    34    35   ar
    31    35    36    1
    32    35    37   ar
    33    37    38   ar
    34    38    40    1
    35    40    41   ar
    36    41    42   ar
    37    42    43   ar
    38    43    44   ar
    39     6     7   ar
    40     7     8   ar
    41     8     9   ar
    42    19    10    1
    43     9     1    1
    44    18    12    1
    45     9     4   ar
    46    29    24   ar
    47    38    32   ar
    48    44    40   ar
    49    36    39    1
    50    44    45    1
    51    11    20    1
@<TRIPOS>MOLECULE
*****
 45 51 0 0 0
SMALL
GASTEIGER

@<TRIPOS>ATOM
      1 C         -30.9810   49.9685   -9.7817 C.3     1  UNL1        0.0817
      2 C         -31.2023   48.5066  -10.2300 C.3     1  UNL1        0.0252
      3 C         -31.5835   47.7070   -8.9663 C.3     1  UNL1        0.0278
      4 C         -31.3328   48.6536   -7.8501 C.ar    1  UNL1       -0.0248
      5 C         -31.3677   48.3637   -6.4851 C.ar    1  UNL1       -0.0045
      6 C         -31.0813   49.3895   -5.5593 C.ar    1  UNL1       -0.0002
      7 C         -30.7450   50.6776   -6.0335 C.ar    1  UNL1       -0.0003
      8 C         -30.7017   50.9393   -7.4098 C.ar    1  UNL1       -0.0033
      9 C         -30.9870   49.9028   -8.2998 C.ar    1  UNL1       -0.0117
     10 C         -29.6337   51.5082  -11.2875 C.3     1  UNL1        0.1158
     11 N         -28.3609   51.9106  -11.5278 N.3     1  UNL1       -0.2851
     12 C         -27.6403   51.1831  -10.6615 C.3     1  UNL1        0.0910
     13 C         -26.2679   51.2323  -10.4734 C.3     1  UNL1        0.1018
     14 C         -25.7209   50.3945   -9.4911 C.3     1  UNL1        0.3136
     15 N         -26.5201   49.5449   -8.7581 N.am    1  UNL1       -0.1293
     16 C         -27.8821   49.5070   -8.9673 C.2     1  UNL1        0.4047
     17 O         -28.6002   48.7121   -8.3105 O.2     1  UNL1       -0.2174
     18 C         -28.4432   50.3601   -9.9320 C.3     1  UNL1        0.2038
     19 N         -29.7315   50.5544  -10.3134 N.3     1  UNL1       -0.2473
     20 H         -28.2524   52.9085  -11.3462 H       1  UNL1        0.1244
     21 C         -30.6202   53.5648  -12.2985 C.3     1  UNL1        0.0029
     22 C         -30.7894   52.0663  -12.0710 C.3     1  UNL1        0.0326
     23 C         -25.9035   48.6893   -7.7288 C.3     1  UNL1        0.3404
     24 C         -26.4134   49.0618   -6.3519 C.ar    1  UNL1        0.0640
     25 C         -26.9251   50.3568   -6.1559 C.ar    1  UNL1        0.0031
     26 C         -27.4160   50.7474   -4.9082 C.ar    1  UNL1       -0.0001
     27 C         -27.3998   49.8526   -3.8386 C.ar    1  UNL1        0.0007
     28 C         -26.8961   48.5626   -4.0135 C.ar    1  UNL1        0.0102
     29 C         -26.4066   48.1546   -5.2621 C.ar    1  UNL1        0.0710
     30 C         -25.9061   46.8070   -5.3901 C.1     1  UNL1        0.1003
     31 N         -25.5026   45.7269   -5.4908 N.1     1  UNL1       -0.1908
     32 C         -31.0709   49.1055   -4.1038 C.ar    1  UNL1        0.0030
     33 C         -31.4199   50.1440   -3.2229 C.ar    1  UNL1        0.0006
     34 C         -31.3272   49.9707   -1.8425 C.ar    1  UNL1        0.0059
     35 C         -30.8925   48.7534   -1.3187 C.ar    1  UNL1        0.0216
     36 S         -30.7714   48.5356    0.4538 S.3     1  UNL1       -0.1414
     37 C         -30.5661   47.7000   -2.1771 C.ar    1  UNL1        0.0090
     38 C         -30.6629   47.8523   -3.5724 C.ar    1  UNL1        0.0376
     39 H         -32.0992   48.0769    0.5422 H       1  UNL1        0.1071
     40 C         -30.3985   46.6756   -4.4353 C.ar    1  UNL1        0.1806
     41 N         -31.2490   45.6465   -4.6157 N.ar    1  UNL1       -0.1084
     42 N         -30.6117   44.8099   -5.4227 N.ar    1  UNL1       -0.0229
     43 N         -29.4169   45.2953   -5.7242 N.ar    1  UNL1       -0.0464
     44 N         -29.2602   46.4563   -5.1152 N.ar    1  UNL1       -0.2388
     45 H         -28.4139   47.0635   -5.1838 H       1  UNL1        0.1923
@<TRIPOS>BOND
     1    21    22    1
     2    22    10    1
     3    10    11    1
     4    11    12    1
     5    12    13    1
     6    13    14    1
     7    14    15    1
     8    15    23    1
     9    23    24    1
    10    24    25   ar
    11    25    26   ar
    12    26    27   ar
    13    27    28   ar
    14    28    29   ar
    15    29    30    1
    16    30    31    3
    17    15    16    1
    18    16    17    2
    19    16    18    1
    20    18    19    1
    21    19     1    1
    22     1     2    1
    23     2     3    1
    24     3     4    1
    25     4     5   ar
    26     5     6   ar
    27     6    32    1
    28    32    33   ar
    29    33    34   ar
    30    34    35   ar
    31    35    36    1
    32    35    37   ar
    33    37    38   ar
    34    38    40    1
    35    40    41   ar
    36    41    42   ar
    37    42    43   ar
    38    43    44   ar
    39     6     7   ar
    40     7     8   ar
    41     8     9   ar
    42    19    10    1
    43     9     1    1
    44    18    12    1
    45     9     4   ar
    46    29    24   ar
    47    38    32   ar
    48    44    40   ar
    49    36    39    1
    50    44    45    1
    51    11    20    1
@<TRIPOS>MOLECULE
*****
 45 51 0 0 0
SMALL
GASTEIGER

@<TRIPOS>ATOM
      1 C         -30.7432   48.0240   -9.2722 C.3     1  UNL1        0.0817
      2 C         -31.5840   49.3102   -9.1113 C.3     1  UNL1        0.0252
      3 C         -30.6386   50.4972   -9.3917 C.3     1  UNL1        0.0278
      4 C         -29.2904   49.8785   -9.4554 C.ar    1  UNL1       -0.0248
      5 C         -28.0669   50.5468   -9.5268 C.ar    1  UNL1       -0.0045
      6 C         -26.8749   49.7923   -9.5597 C.ar    1  UNL1       -0.0002
      7 C         -26.9448   48.3822   -9.4976 C.ar    1  UNL1       -0.0003
      8 C         -28.1852   47.7353   -9.4106 C.ar    1  UNL1       -0.0033
      9 C         -29.3457   48.5099   -9.3769 C.ar    1  UNL1       -0.0117
     10 C         -31.2496   45.7471   -8.2661 C.3     1  UNL1        0.1158
     11 N         -31.2818   45.0955   -7.0768 N.3     1  UNL1       -0.2851
     12 C         -30.9552   46.0513   -6.1944 C.3     1  UNL1        0.0910
     13 C         -30.8141   45.9048   -4.8232 C.3     1  UNL1        0.1018
     14 C         -30.4419   47.0394   -4.0881 C.3     1  UNL1        0.3136
     15 N         -30.2437   48.2532   -4.7088 N.am    1  UNL1       -0.1293
     16 C         -30.3970   48.3776   -6.0731 C.2     1  UNL1        0.4047
     17 O         -30.2371   49.4939   -6.6275 O.2     1  UNL1       -0.2174
     18 C         -30.7458   47.2415   -6.8219 C.3     1  UNL1        0.2038
     19 N         -30.9248   47.0702   -8.1567 N.3     1  UNL1       -0.2473
     20 H         -30.6036   44.3338   -7.0587 H       1  UNL1        0.1244
     21 C         -30.3546   44.9442  -10.4523 C.3     1  UNL1        0.0029
     22 C         -31.5815   45.0411   -9.5515 C.3     1  UNL1        0.0326
     23 C         -29.8432   49.4168   -3.8980 C.3     1  UNL1        0.3404
     24 C         -28.8221   50.2554   -4.6387 C.ar    1  UNL1        0.0640
     25 C         -27.5145   49.7551   -4.7702 C.ar    1  UNL1        0.0031
     26 C         -26.5379   50.4847   -5.4516 C.ar    1  UNL1       -0.0001
     27 C         -26.8518   51.7245   -6.0080 C.ar    1  UNL1        0.0007
     28 C         -28.1443   52.2377   -5.8883 C.ar    1  UNL1        0.0102
     29 C         -29.1364   51.5132   -5.2130 C.ar    1  UNL1        0.0710
     30 C         -30.4583   52.0860   -5.1268 C.1     1  UNL1        0.1003
     31 N         -31.5195   52.5426   -5.0575 N.1     1  UNL1       -0.1908
     32 C         -25.5573   50.4718   -9.5956 C.ar    1  UNL1        0.0030
     33 C         -24.7049   50.3252   -8.4873 C.ar    1  UNL1        0.0006
     34 C         -23.5003   51.0235   -8.4158 C.ar    1  UNL1        0.0059
     35 C         -23.1227   51.8738   -9.4547 C.ar    1  UNL1        0.0216
     36 S         -21.5771   52.7715   -9.3579 S.3     1  UNL1       -0.1414
     37 C         -23.9436   52.0130  -10.5771 C.ar    1  UNL1        0.0090
     38 C         -25.1580   51.3089  -10.6723 C.ar    1  UNL1        0.0376
     39 H         -20.8694   51.7270   -9.9819 H       1  UNL1        0.1071
     40 C         -25.9449   51.4163  -11.9245 C.ar    1  UNL1        0.1806
     41 N         -25.4310   51.3286  -13.1667 N.ar    1  UNL1       -0.1084
     42 N         -26.4615   51.5116  -13.9800 N.ar    1  UNL1       -0.0229
     43 N         -27.5644   51.7103  -13.2740 N.ar    1  UNL1       -0.0464
     44 N         -27.2649   51.6601  -11.9890 N.ar    1  UNL1       -0.2388
     45 H         -27.9462   51.7751  -11.2065 H       1  UNL1        0.1923
@<TRIPOS>BOND
     1    21    22    1
     2    22    10    1
     3    10    11    1
     4    11    12    1
     5    12    13    1
     6    13    14    1
     7    14    15    1
     8    15    23    1
     9    23    24    1
    10    24    25   ar
    11    25    26   ar
    12    26    27   ar
    13    27    28   ar
    14    28    29   ar
    15    29    30    1
    16    30    31    3
    17    15    16    1
    18    16    17    2
    19    16    18    1
    20    18    19    1
    21    19     1    1
    22     1     2    1
    23     2     3    1
    24     3     4    1
    25     4     5   ar
    26     5     6   ar
    27     6    32    1
    28    32    33   ar
    29    33    34   ar
    30    34    35   ar
    31    35    36    1
    32    35    37   ar
    33    37    38   ar
    34    38    40    1
    35    40    41   ar
    36    41    42   ar
    37    42    43   ar
    38    43    44   ar
    39     6     7   ar
    40     7     8   ar
    41     8     9   ar
    42    19    10    1
    43     9     1    1
    44    18    12    1
    45     9     4   ar
    46    29    24   ar
    47    38    32   ar
    48    44    40   ar
    49    36    39    1
    50    44    45    1
    51    11    20    1
@<TRIPOS>MOLECULE
*****
 45 51 0 0 0
SMALL
GASTEIGER

@<TRIPOS>ATOM
      1 C         -30.9328   48.1835   -9.2564 C.3     1  UNL1        0.0817
      2 C         -31.5753   49.1422   -8.2292 C.3     1  UNL1        0.0252
      3 C         -30.6424   50.3667   -8.1201 C.3     1  UNL1        0.0278
      4 C         -29.4274   49.9638   -8.8724 C.ar    1  UNL1       -0.0248
      5 C         -28.2173   50.6567   -8.9381 C.ar    1  UNL1       -0.0045
      6 C         -27.1553   50.1110   -9.6901 C.ar    1  UNL1       -0.0002
      7 C         -27.3323   48.8686  -10.3399 C.ar    1  UNL1       -0.0003
      8 C         -28.5523   48.1849  -10.2459 C.ar    1  UNL1       -0.0033
      9 C         -29.5822   48.7495   -9.4919 C.ar    1  UNL1       -0.0117
     10 C         -31.1214   45.6659   -9.5385 C.3     1  UNL1        0.1158
     11 N         -30.9336   44.5051   -8.8624 N.3     1  UNL1       -0.2851
     12 C         -30.5529   44.9176   -7.6443 C.3     1  UNL1        0.0910
     13 C         -30.2045   44.1186   -6.5664 C.3     1  UNL1        0.1018
     14 C         -29.8131   44.7642   -5.3848 C.3     1  UNL1        0.3136
     15 N         -29.7956   46.1391   -5.2999 N.am    1  UNL1       -0.1293
     16 C         -30.1536   46.9140   -6.3823 C.2     1  UNL1        0.4047
     17 O         -30.1572   48.1671   -6.2884 O.2     1  UNL1       -0.2174
     18 C         -30.5236   46.2773   -7.5784 C.3     1  UNL1        0.2038
     19 N         -30.8812   46.7820   -8.7869 N.3     1  UNL1       -0.2473
     20 H         -30.2064   43.9400   -9.3009 H       1  UNL1        0.1244
     21 C         -30.4040   45.8280  -11.9227 C.3     1  UNL1        0.0029
     22 C         -31.5838   45.6694  -10.9692 C.3     1  UNL1        0.0326
     23 C         -29.3675   46.7749   -4.0413 C.3     1  UNL1        0.3404
     24 C         -28.0097   46.2544   -3.6171 C.ar    1  UNL1        0.0640
     25 C         -27.9286   45.4667   -2.4551 C.ar    1  UNL1        0.0031
     26 C         -26.7022   44.9547   -2.0258 C.ar    1  UNL1       -0.0001
     27 C         -25.5400   45.2246   -2.7480 C.ar    1  UNL1        0.0007
     28 C         -25.6003   46.0042   -3.9043 C.ar    1  UNL1        0.0102
     29 C         -26.8254   46.5189   -4.3507 C.ar    1  UNL1        0.0710
     30 C         -26.8323   47.3108   -5.5573 C.1     1  UNL1        0.1003
     31 N         -26.8365   47.9435   -6.5263 N.1     1  UNL1       -0.1908
     32 C         -25.8443   50.8017   -9.7481 C.ar    1  UNL1        0.0030
     33 C         -25.2023   50.9027  -10.9947 C.ar    1  UNL1        0.0006
     34 C         -23.9222   51.4458  -11.0966 C.ar    1  UNL1        0.0059
     35 C         -23.2652   51.9053   -9.9555 C.ar    1  UNL1        0.0216
     36 S         -21.6204   52.5987  -10.0896 S.3     1  UNL1       -0.1414
     37 C         -23.8968   51.8380   -8.7107 C.ar    1  UNL1        0.0090
     38 C         -25.1923   51.3027   -8.5891 C.ar    1  UNL1        0.0376
     39 H         -22.1259   53.8958  -10.2968 H       1  UNL1        0.1071
     40 C         -25.8556   51.3426   -7.2635 C.ar    1  UNL1        0.1806
     41 N         -26.7659   52.2609   -6.8853 N.ar    1  UNL1       -0.1084
     42 N         -27.0687   51.9510   -5.6326 N.ar    1  UNL1       -0.0229
     43 N         -26.3726   50.8916   -5.2486 N.ar    1  UNL1       -0.0464
     44 N         -25.6052   50.4981   -6.2485 N.ar    1  UNL1       -0.2388
     45 H         -24.9575   49.6798   -6.2252 H       1  UNL1        0.1923
@<TRIPOS>BOND
     1    21    22    1
     2    22    10    1
     3    10    11    1
     4    11    12    1
     5    12    13    1
     6    13    14    1
     7    14    15    1
     8    15    23    1
     9    23    24    1
    10    24    25   ar
    11    25    26   ar
    12    26    27   ar
    13    27    28   ar
    14    28    29   ar
    15    29    30    1
    16    30    31    3
    17    15    16    1
    18    16    17    2
    19    16    18    1
    20    18    19    1
    21    19     1    1
    22     1     2    1
    23     2     3    1
    24     3     4    1
    25     4     5   ar
    26     5     6   ar
    27     6    32    1
    28    32    33   ar
    29    33    34   ar
    30    34    35   ar
    31    35    36    1
    32    35    37   ar
    33    37    38   ar
    34    38    40    1
    35    40    41   ar
    36    41    42   ar
    37    42    43   ar
    38    43    44   ar
    39     6     7   ar
    40     7     8   ar
    41     8     9   ar
    42    19    10    1
    43     9     1    1
    44    18    12    1
    45     9     4   ar
    46    29    24   ar
    47    38    32   ar
    48    44    40   ar
    49    36    39    1
    50    44    45    1
    51    11    20    1
@<TRIPOS>MOLECULE
*****
 45 51 0 0 0
SMALL
GASTEIGER

@<TRIPOS>ATOM
      1 C         -26.2163   51.0154   -6.9179 C.3     1  UNL1        0.0817
      2 C         -26.8499   52.2496   -6.2380 C.3     1  UNL1        0.0252
      3 C         -27.6044   51.7337   -4.9946 C.3     1  UNL1        0.0278
      4 C         -27.5812   50.2567   -5.1445 C.ar    1  UNL1       -0.0248
      5 C         -28.2702   49.3268   -4.3641 C.ar    1  UNL1       -0.0045
      6 C         -28.1459   47.9537   -4.6649 C.ar    1  UNL1       -0.0002
      7 C         -27.3470   47.5532   -5.7597 C.ar    1  UNL1       -0.0003
      8 C         -26.6776   48.5077   -6.5377 C.ar    1  UNL1       -0.0033
      9 C         -26.8232   49.8580   -6.2163 C.ar    1  UNL1       -0.0117
     10 C         -27.6638   50.8874   -9.0016 C.3     1  UNL1        0.1158
     11 N         -27.5834   50.9388  -10.3547 N.3     1  UNL1       -0.2851
     12 C         -26.2677   51.0716  -10.5790 C.3     1  UNL1        0.0910
     13 C         -25.6423   51.2012  -11.8093 C.3     1  UNL1        0.1018
     14 C         -24.2482   51.3516  -11.8116 C.3     1  UNL1        0.3136
     15 N         -23.5327   51.3514  -10.6344 N.am    1  UNL1       -0.1293
     16 C         -24.1749   51.2135   -9.4224 C.2     1  UNL1        0.4047
     17 O         -23.5118   51.1908   -8.3553 O.2     1  UNL1       -0.2174
     18 C         -25.5737   51.0868   -9.4076 C.3     1  UNL1        0.2038
     19 N         -26.4509   50.9742   -8.3775 N.3     1  UNL1       -0.2473
     20 H         -28.0995   51.7385  -10.7215 H       1  UNL1        0.1244
     21 C         -29.6588   49.4145   -8.7263 C.3     1  UNL1        0.0029
     22 C         -28.9850   50.7161   -8.3046 C.3     1  UNL1        0.0326
     23 C         -22.0699   51.5227  -10.6838 C.3     1  UNL1        0.3404
     24 C         -21.6916   52.9578  -10.3806 C.ar    1  UNL1        0.0640
     25 C         -22.5990   53.9755  -10.7246 C.ar    1  UNL1        0.0031
     26 C         -22.3024   55.3140  -10.4584 C.ar    1  UNL1       -0.0001
     27 C         -21.0954   55.6554   -9.8488 C.ar    1  UNL1        0.0007
     28 C         -20.1820   54.6593   -9.4996 C.ar    1  UNL1        0.0102
     29 C         -20.4694   53.3111   -9.7545 C.ar    1  UNL1        0.0710
     30 C         -19.4941   52.3214   -9.3644 C.1     1  UNL1        0.1003
     31 N         -18.7136   51.5272   -9.0492 N.1     1  UNL1       -0.1908
     32 C         -28.8955   46.9427   -3.8806 C.ar    1  UNL1        0.0030
     33 C         -30.3000   46.9718   -3.9311 C.ar    1  UNL1        0.0006
     34 C         -31.0610   46.1170   -3.1348 C.ar    1  UNL1        0.0059
     35 C         -30.4311   45.2122   -2.2806 C.ar    1  UNL1        0.0216
     36 S         -31.4112   44.1187   -1.2570 S.3     1  UNL1       -0.1414
     37 C         -29.0358   45.1495   -2.2351 C.ar    1  UNL1        0.0090
     38 C         -28.2507   45.9967   -3.0386 C.ar    1  UNL1        0.0376
     39 H         -31.4420   43.1256   -2.2540 H       1  UNL1        0.1071
     40 C         -26.7780   45.8243   -3.0251 C.ar    1  UNL1        0.1806
     41 N         -26.1147   44.8211   -3.6322 N.ar    1  UNL1       -0.1084
     42 N         -24.8376   45.0273   -3.3429 N.ar    1  UNL1       -0.0229
     43 N         -24.7147   46.1064   -2.5849 N.ar    1  UNL1       -0.0464
     44 N         -25.9132   46.6172   -2.3697 N.ar    1  UNL1       -0.2388
     45 H         -26.1107   47.4762   -1.8104 H       1  UNL1        0.1923
@<TRIPOS>BOND
     1    21    22    1
     2    22    10    1
     3    10    11    1
     4    11    12    1
     5    12    13    1
     6    13    14    1
     7    14    15    1
     8    15    23    1
     9    23    24    1
    10    24    25   ar
    11    25    26   ar
    12    26    27   ar
    13    27    28   ar
    14    28    29   ar
    15    29    30    1
    16    30    31    3
    17    15    16    1
    18    16    17    2
    19    16    18    1
    20    18    19    1
    21    19     1    1
    22     1     2    1
    23     2     3    1
    24     3     4    1
    25     4     5   ar
    26     5     6   ar
    27     6    32    1
    28    32    33   ar
    29    33    34   ar
    30    34    35   ar
    31    35    36    1
    32    35    37   ar
    33    37    38   ar
    34    38    40    1
    35    40    41   ar
    36    41    42   ar
    37    42    43   ar
    38    43    44   ar
    39     6     7   ar
    40     7     8   ar
    41     8     9   ar
    42    19    10    1
    43     9     1    1
    44    18    12    1
    45     9     4   ar
    46    29    24   ar
    47    38    32   ar
    48    44    40   ar
    49    36    39    1
    50    44    45    1
    51    11    20    1
