@<TRIPOS>MOLECULE
*****
 51 56 0 0 0
SMALL
GASTEIGER

@<TRIPOS>ATOM
      1 O          10.8482   74.6885   25.5972 O.2     1  UNL1       -0.2701
      2 C          10.0860   75.6576   25.3311 C.2     1  UNL1        0.2483
      3 N          10.3225   76.9392   25.9369 N.am    1  UNL1       -0.2945
      4 H           9.6448   77.7136   25.7547 H       1  UNL1        0.1501
      5 C           8.9239   75.4495   24.4354 C.ar    1  UNL1        0.0808
      6 C           9.0459   75.6502   23.0502 C.ar    1  UNL1        0.0080
      7 C           7.9393   75.5035   22.2104 C.ar    1  UNL1        0.0148
      8 C           6.6842   75.1534   22.7352 C.ar    1  UNL1        0.0502
      9 C           6.5668   74.9322   24.1184 C.ar    1  UNL1        0.0443
     10 C           7.6731   75.0742   24.9609 C.ar    1  UNL1        0.1457
     11 F           7.5082   74.8801   26.2943 F       1  UNL1       -0.2040
     12 N           5.5372   75.0174   21.8676 N.pl3   1  UNL1       -0.3040
     13 C           5.3840   73.8227   21.0253 C.3     1  UNL1        0.1123
     14 C           3.9027   73.4775   20.8375 C.3     1  UNL1        0.1136
     15 N           3.1129   74.6507   20.4266 N.pl3   1  UNL1       -0.2897
     16 C           3.7144   75.9907   20.4880 C.3     1  UNL1        0.1136
     17 C           4.5855   76.1320   21.7400 C.3     1  UNL1        0.1123
     18 C           1.8044   74.4813   19.8356 C.ar    1  UNL1        0.1318
     19 C           1.1420   75.5483   19.2033 C.ar    1  UNL1        0.0343
     20 C          -0.1208   75.3444   18.6451 C.ar    1  UNL1        0.0083
     21 C          -0.7199   74.0773   18.6939 C.ar    1  UNL1        0.0906
     22 C          -0.0376   73.0434   19.3525 C.ar    1  UNL1        0.1041
     23 N           1.1901   73.2660   19.8909 N.ar    1  UNL1       -0.2292
     24 C          -2.1041   73.8572   18.1391 C.3     1  UNL1        0.4200
     25 F          -2.1617   74.2324   16.8080 F       1  UNL1       -0.1658
     26 F          -2.4593   72.5223   18.2284 F       1  UNL1       -0.1658
     27 F          -3.0091   74.6134   18.8600 F       1  UNL1       -0.1658
     28 C          11.2734   77.1245   27.0387 C.3     1  UNL1        0.1535
     29 C          12.6255   77.5446   26.4990 C.2     1  UNL1        0.2444
     30 O          13.6747   77.2720   27.1436 O.2     1  UNL1       -0.2730
     31 N          12.7169   78.2002   25.2214 N.am    1  UNL1       -0.2801
     32 H          11.8354   78.5280   24.7665 H       1  UNL1        0.1550
     33 C          13.9608   78.5359   24.5826 C.ar    1  UNL1        0.0876
     34 C          14.6495   79.7153   24.9113 C.ar    1  UNL1        0.0384
     35 C          15.8694   79.9976   24.2933 C.ar    1  UNL1        0.1004
     36 N          16.3936   79.1291   23.3898 N.ar    1  UNL1       -0.2391
     37 C          15.7607   77.9718   23.0632 C.ar    1  UNL1        0.1366
     38 C          14.5339   77.6475   23.6572 C.ar    1  UNL1        0.1664
     39 O          13.8821   76.4602   23.3263 O.3     1  UNL1       -0.5030
     40 H          14.2761   75.8073   22.6589 H       1  UNL1        0.2923
     41 C          10.6913   78.1120   28.0803 C.3     1  UNL1        0.0569
     42 C           9.3342   77.6967   28.5878 C.ar    1  UNL1       -0.0017
     43 C           8.1817   78.4779   28.6230 C.ar    1  UNL1        0.0681
     44 N           7.1228   77.7423   29.0316 N.ar    1  UNL1       -0.3523
     45 C           7.5928   76.5025   29.2502 C.ar    1  UNL1        0.0563
     46 C           6.8660   75.3832   29.6545 C.ar    1  UNL1        0.0170
     47 C           7.5574   74.1664   29.7991 C.ar    1  UNL1        0.0015
     48 C           8.9449   74.0981   29.5461 C.ar    1  UNL1        0.0001
     49 C           9.6528   75.2451   29.1450 C.ar    1  UNL1        0.0012
     50 C           8.9386   76.4351   28.9963 C.ar    1  UNL1        0.0131
     51 H           6.1374   78.0713   29.1375 H       1  UNL1        0.1660
@<TRIPOS>BOND
     1     1     2    2
     2     2     3   am
     3     3    28    1
     4    28    41    1
     5    41    42    1
     6    42    43   ar
     7    43    44   ar
     8    44    45   ar
     9    45    46   ar
    10    46    47   ar
    11    47    48   ar
    12    48    49   ar
    13    49    50   ar
    14    28    29    1
    15    29    30    2
    16    29    31   am
    17    31    33    1
    18    33    34   ar
    19    34    35   ar
    20    35    36   ar
    21    36    37   ar
    22    37    38   ar
    23    38    39    1
    24     2     5    1
    25     5     6   ar
    26     6     7   ar
    27     7     8   ar
    28     8    12    1
    29    12    13    1
    30    13    14    1
    31    14    15    1
    32    15    18    1
    33    18    19   ar
    34    19    20   ar
    35    20    21   ar
    36    21    24    1
    37    24    25    1
    38    24    26    1
    39    24    27    1
    40    21    22   ar
    41    22    23   ar
    42    15    16    1
    43    16    17    1
    44     8     9   ar
    45     9    10   ar
    46    10    11    1
    47    50    42   ar
    48    38    33   ar
    49    10     5   ar
    50    50    45   ar
    51    17    12    1
    52    23    18   ar
    53     3     4    1
    54    44    51    1
    55    31    32    1
    56    39    40    1
@<TRIPOS>MOLECULE
*****
 51 56 0 0 0
SMALL
GASTEIGER

@<TRIPOS>ATOM
      1 O          10.0765   75.9822   26.6524 O.2     1  UNL1       -0.2701
      2 C           9.0734   76.7397   26.5491 C.2     1  UNL1        0.2483
      3 N           8.9356   77.8663   27.4307 N.am    1  UNL1       -0.2945
      4 H           8.0679   78.4460   27.3730 H       1  UNL1        0.1501
      5 C           8.0219   76.4289   25.5521 C.ar    1  UNL1        0.0808
      6 C           8.3568   75.8347   24.3237 C.ar    1  UNL1        0.0080
      7 C           7.3742   75.5871   23.3624 C.ar    1  UNL1        0.0148
      8 C           6.0332   75.9281   23.6055 C.ar    1  UNL1        0.0502
      9 C           5.6949   76.5034   24.8427 C.ar    1  UNL1        0.0443
     10 C           6.6753   76.7487   25.8083 C.ar    1  UNL1        0.1457
     11 F           6.3090   77.3331   26.9775 F       1  UNL1       -0.2040
     12 N           5.0205   75.6859   22.6042 N.pl3   1  UNL1       -0.3040
     13 C           5.2746   74.7398   21.5086 C.3     1  UNL1        0.1123
     14 C           3.9782   74.0426   21.0820 C.3     1  UNL1        0.1136
     15 N           2.8872   75.0048   20.8512 N.pl3   1  UNL1       -0.2897
     16 C           3.0491   76.4036   21.2732 C.3     1  UNL1        0.1136
     17 C           3.7812   76.4785   22.6166 C.3     1  UNL1        0.1123
     18 C           1.7191   74.6181   20.0922 C.ar    1  UNL1        0.1318
     19 C           1.0548   75.5305   19.2537 C.ar    1  UNL1        0.0343
     20 C          -0.0701   75.1185   18.5376 C.ar    1  UNL1        0.0083
     21 C          -0.5257   73.7958   18.6351 C.ar    1  UNL1        0.0906
     22 C           0.1501   72.9210   19.4987 C.ar    1  UNL1        0.1041
     23 N           1.2418   73.3452   20.1881 N.ar    1  UNL1       -0.2292
     24 C          -1.7685   73.3528   17.9058 C.3     1  UNL1        0.4200
     25 F          -2.8951   73.9288   18.4669 F       1  UNL1       -0.1658
     26 F          -1.7108   73.7232   16.5733 F       1  UNL1       -0.1658
     27 F          -1.8778   71.9772   17.9868 F       1  UNL1       -0.1658
     28 C           9.7897   78.0515   28.6091 C.3     1  UNL1        0.1535
     29 C           9.5809   79.4328   29.1958 C.2     1  UNL1        0.2444
     30 O           9.0313   80.3349   28.5065 O.2     1  UNL1       -0.2730
     31 N           9.9535   79.6977   30.5602 N.am    1  UNL1       -0.2801
     32 H          10.5184   78.9813   31.0694 H       1  UNL1        0.1550
     33 C           9.6938   80.9420   31.2325 C.ar    1  UNL1        0.0876
     34 C           9.0536   80.9709   32.4825 C.ar    1  UNL1        0.0384
     35 C           8.8421   82.1941   33.1219 C.ar    1  UNL1        0.1004
     36 N           9.2661   83.3483   32.5442 N.ar    1  UNL1       -0.2391
     37 C           9.9037   83.3524   31.3442 C.ar    1  UNL1        0.1366
     38 C          10.1367   82.1489   30.6657 C.ar    1  UNL1        0.1664
     39 O          10.7923   82.1486   29.4351 O.3     1  UNL1       -0.5030
     40 H          11.1168   83.0079   29.0070 H       1  UNL1        0.2923
     41 C           9.5470   76.9072   29.6242 C.3     1  UNL1        0.0569
     42 C           8.0904   76.7258   29.9665 C.ar    1  UNL1       -0.0017
     43 C           7.2845   77.6103   30.6792 C.ar    1  UNL1        0.0681
     44 N           6.0033   77.1772   30.6942 N.ar    1  UNL1       -0.3523
     45 C           5.9897   76.0303   29.9940 C.ar    1  UNL1        0.0563
     46 C           4.8850   75.2291   29.7073 C.ar    1  UNL1        0.0170
     47 C           5.0927   74.0754   28.9294 C.ar    1  UNL1        0.0015
     48 C           6.3861   73.7483   28.4667 C.ar    1  UNL1        0.0001
     49 C           7.4826   74.5725   28.7766 C.ar    1  UNL1        0.0012
     50 C           7.2447   75.7178   29.5381 C.ar    1  UNL1        0.0131
     51 H           5.1892   77.6506   31.1453 H       1  UNL1        0.1660
@<TRIPOS>BOND
     1     1     2    2
     2     2     3   am
     3     3    28    1
     4    28    41    1
     5    41    42    1
     6    42    43   ar
     7    43    44   ar
     8    44    45   ar
     9    45    46   ar
    10    46    47   ar
    11    47    48   ar
    12    48    49   ar
    13    49    50   ar
    14    28    29    1
    15    29    30    2
    16    29    31   am
    17    31    33    1
    18    33    34   ar
    19    34    35   ar
    20    35    36   ar
    21    36    37   ar
    22    37    38   ar
    23    38    39    1
    24     2     5    1
    25     5     6   ar
    26     6     7   ar
    27     7     8   ar
    28     8    12    1
    29    12    13    1
    30    13    14    1
    31    14    15    1
    32    15    18    1
    33    18    19   ar
    34    19    20   ar
    35    20    21   ar
    36    21    24    1
    37    24    25    1
    38    24    26    1
    39    24    27    1
    40    21    22   ar
    41    22    23   ar
    42    15    16    1
    43    16    17    1
    44     8     9   ar
    45     9    10   ar
    46    10    11    1
    47    50    42   ar
    48    38    33   ar
    49    10     5   ar
    50    50    45   ar
    51    17    12    1
    52    23    18   ar
    53     3     4    1
    54    44    51    1
    55    31    32    1
    56    39    40    1
@<TRIPOS>MOLECULE
*****
 51 56 0 0 0
SMALL
GASTEIGER

@<TRIPOS>ATOM
      1 O           5.0206   73.3828   21.7964 O.2     1  UNL1       -0.2701
      2 C           4.7337   74.5867   22.0394 C.2     1  UNL1        0.2483
      3 N           3.9229   75.3286   21.1134 N.am    1  UNL1       -0.2945
      4 H           3.7478   76.3420   21.2991 H       1  UNL1        0.1501
      5 C           5.2797   75.2377   23.2537 C.ar    1  UNL1        0.0808
      6 C           4.6511   76.3690   23.8005 C.ar    1  UNL1        0.0080
      7 C           5.1923   77.0140   24.9151 C.ar    1  UNL1        0.0148
      8 C           6.3754   76.5441   25.5092 C.ar    1  UNL1        0.0502
      9 C           6.9929   75.4000   24.9748 C.ar    1  UNL1        0.0443
     10 C           6.4515   74.7499   23.8621 C.ar    1  UNL1        0.1457
     11 F           7.0968   73.6660   23.3606 F       1  UNL1       -0.2040
     12 N           6.9426   77.2214   26.6522 N.pl3   1  UNL1       -0.3040
     13 C           8.3353   77.6899   26.6186 C.3     1  UNL1        0.1123
     14 C           8.4988   78.9660   27.4514 C.3     1  UNL1        0.1136
     15 N           7.9070   78.8262   28.7928 N.pl3   1  UNL1       -0.2897
     16 C           7.0504   77.6699   29.0935 C.3     1  UNL1        0.1136
     17 C           6.1604   77.3337   27.8931 C.3     1  UNL1        0.1123
     18 C           8.2719   79.7398   29.8523 C.ar    1  UNL1        0.1318
     19 C           8.8401   79.2799   31.0533 C.ar    1  UNL1        0.0343
     20 C           9.1783   80.1938   32.0525 C.ar    1  UNL1        0.0083
     21 C           8.9736   81.5670   31.8542 C.ar    1  UNL1        0.0906
     22 C           8.3843   81.9852   30.6518 C.ar    1  UNL1        0.1041
     23 N           8.0608   81.0769   29.6942 N.ar    1  UNL1       -0.2292
     24 C           9.2883   82.5587   32.9450 C.3     1  UNL1        0.4200
     25 F          10.2047   83.4968   32.5022 F       1  UNL1       -0.1658
     26 F           8.1430   83.2266   33.3429 F       1  UNL1       -0.1658
     27 F           9.8189   81.8879   34.0309 F       1  UNL1       -0.1658
     28 C           3.6001   74.8260   19.7734 C.3     1  UNL1        0.1535
     29 C           2.1338   75.0543   19.4672 C.2     1  UNL1        0.2444
     30 O           1.7373   76.1905   19.0896 O.2     1  UNL1       -0.2730
     31 N           1.2040   73.9590   19.5476 N.am    1  UNL1       -0.2801
     32 H           1.5257   73.0645   19.9811 H       1  UNL1        0.1550
     33 C          -0.1805   74.0566   19.1714 C.ar    1  UNL1        0.0876
     34 C          -0.9410   75.1929   19.4937 C.ar    1  UNL1        0.0384
     35 C          -2.2751   75.2685   19.0885 C.ar    1  UNL1        0.1004
     36 N          -2.8298   74.2547   18.3743 N.ar    1  UNL1       -0.2391
     37 C          -2.1160   73.1502   18.0318 C.ar    1  UNL1        0.1366
     38 C          -0.7744   73.0305   18.4177 C.ar    1  UNL1        0.1664
     39 O          -0.0379   71.8997   18.0666 O.3     1  UNL1       -0.5030
     40 H          -0.4478   71.1466   17.5266 H       1  UNL1        0.2923
     41 C           4.5536   75.4553   18.7277 C.3     1  UNL1        0.0569
     42 C           5.0435   76.8231   19.1289 C.ar    1  UNL1       -0.0017
     43 C           4.4105   78.0400   18.8875 C.ar    1  UNL1        0.0681
     44 N           5.0773   79.0493   19.4924 N.ar    1  UNL1       -0.3523
     45 C           6.1228   78.4826   20.1182 C.ar    1  UNL1        0.0563
     46 C           7.0825   79.1192   20.9044 C.ar    1  UNL1        0.0170
     47 C           8.0844   78.3252   21.4919 C.ar    1  UNL1        0.0015
     48 C           8.1084   76.9297   21.2771 C.ar    1  UNL1        0.0001
     49 C           7.1304   76.3161   20.4744 C.ar    1  UNL1        0.0012
     50 C           6.1406   77.1264   19.9158 C.ar    1  UNL1        0.0131
     51 H           4.8185   80.0609   19.4862 H       1  UNL1        0.1660
@<TRIPOS>BOND
     1     1     2    2
     2     2     3   am
     3     3    28    1
     4    28    41    1
     5    41    42    1
     6    42    43   ar
     7    43    44   ar
     8    44    45   ar
     9    45    46   ar
    10    46    47   ar
    11    47    48   ar
    12    48    49   ar
    13    49    50   ar
    14    28    29    1
    15    29    30    2
    16    29    31   am
    17    31    33    1
    18    33    34   ar
    19    34    35   ar
    20    35    36   ar
    21    36    37   ar
    22    37    38   ar
    23    38    39    1
    24     2     5    1
    25     5     6   ar
    26     6     7   ar
    27     7     8   ar
    28     8    12    1
    29    12    13    1
    30    13    14    1
    31    14    15    1
    32    15    18    1
    33    18    19   ar
    34    19    20   ar
    35    20    21   ar
    36    21    24    1
    37    24    25    1
    38    24    26    1
    39    24    27    1
    40    21    22   ar
    41    22    23   ar
    42    15    16    1
    43    16    17    1
    44     8     9   ar
    45     9    10   ar
    46    10    11    1
    47    50    42   ar
    48    38    33   ar
    49    10     5   ar
    50    50    45   ar
    51    17    12    1
    52    23    18   ar
    53     3     4    1
    54    44    51    1
    55    31    32    1
    56    39    40    1
@<TRIPOS>MOLECULE
*****
 51 56 0 0 0
SMALL
GASTEIGER

@<TRIPOS>ATOM
      1 O           9.9434   74.9251   26.6834 O.2     1  UNL1       -0.2701
      2 C           9.4884   75.8224   25.9227 C.2     1  UNL1        0.2483
      3 N           8.2660   75.5952   25.2019 N.am    1  UNL1       -0.2945
      4 H           7.9373   76.3237   24.5285 H       1  UNL1        0.1501
      5 C          10.2480   77.0820   25.7418 C.ar    1  UNL1        0.0808
      6 C           9.8625   78.2510   26.4191 C.ar    1  UNL1        0.0080
      7 C          10.5461   79.4513   26.2114 C.ar    1  UNL1        0.0148
      8 C          11.6310   79.5120   25.3210 C.ar    1  UNL1        0.0502
      9 C          12.0298   78.3377   24.6592 C.ar    1  UNL1        0.0443
     10 C          11.3503   77.1342   24.8681 C.ar    1  UNL1        0.1457
     11 F          11.7504   76.0310   24.1857 F       1  UNL1       -0.2040
     12 N          12.3272   80.7575   25.0952 N.pl3   1  UNL1       -0.3040
     13 C          13.7806   80.8399   25.2975 C.3     1  UNL1        0.1123
     14 C          14.4074   81.8462   24.3262 C.3     1  UNL1        0.1136
     15 N          13.6908   83.1329   24.3299 N.pl3   1  UNL1       -0.2897
     16 C          12.3902   83.2397   25.0067 C.3     1  UNL1        0.1136
     17 C          11.5603   81.9725   24.7792 C.3     1  UNL1        0.1123
     18 C          14.3175   84.3209   23.7950 C.ar    1  UNL1        0.1318
     19 C          14.2989   85.5389   24.4971 C.ar    1  UNL1        0.0343
     20 C          14.9150   86.6637   23.9465 C.ar    1  UNL1        0.0083
     21 C          15.5689   86.5776   22.7089 C.ar    1  UNL1        0.0906
     22 C          15.5471   85.3511   22.0284 C.ar    1  UNL1        0.1041
     23 N          14.9386   84.2699   22.5830 N.ar    1  UNL1       -0.2292
     24 C          16.1944   87.7972   22.0811 C.3     1  UNL1        0.4200
     25 F          17.4268   88.0626   22.6526 F       1  UNL1       -0.1658
     26 F          16.3791   87.6065   20.7225 F       1  UNL1       -0.1658
     27 F          15.3641   88.8852   22.2746 F       1  UNL1       -0.1658
     28 C           7.6340   74.2736   25.1229 C.3     1  UNL1        0.1535
     29 C           6.4252   74.2154   26.0347 C.2     1  UNL1        0.2444
     30 O           5.2825   74.5062   25.5871 O.2     1  UNL1       -0.2730
     31 N           6.5720   73.7689   27.3947 N.am    1  UNL1       -0.2801
     32 H           7.5367   73.6555   27.7795 H       1  UNL1        0.1550
     33 C           5.4685   73.5784   28.2969 C.ar    1  UNL1        0.0876
     34 C           4.7129   72.3943   28.2783 C.ar    1  UNL1        0.0384
     35 C           3.6657   72.2292   29.1871 C.ar    1  UNL1        0.1004
     36 N           3.3889   73.2026   30.0934 N.ar    1  UNL1       -0.2391
     37 C           4.1121   74.3518   30.1485 C.ar    1  UNL1        0.1366
     38 C           5.1712   74.5615   29.2555 C.ar    1  UNL1        0.1664
     39 O           5.9169   75.7384   29.3100 O.3     1  UNL1       -0.5030
     40 H           5.7171   76.4617   29.9910 H       1  UNL1        0.2923
     41 C           7.3111   73.9282   23.6480 C.3     1  UNL1        0.0569
     42 C           8.4378   74.2671   22.7061 C.ar    1  UNL1       -0.0017
     43 C           8.5524   75.4110   21.9198 C.ar    1  UNL1        0.0681
     44 N           9.7489   75.4352   21.2898 N.ar    1  UNL1       -0.3523
     45 C          10.3944   74.3207   21.6734 C.ar    1  UNL1        0.0563
     46 C          11.6801   73.9221   21.3095 C.ar    1  UNL1        0.0170
     47 C          12.1756   72.7223   21.8522 C.ar    1  UNL1        0.0015
     48 C          11.3814   71.9532   22.7307 C.ar    1  UNL1        0.0001
     49 C          10.0858   72.3777   23.0752 C.ar    1  UNL1        0.0012
     50 C           9.6256   73.5787   22.5330 C.ar    1  UNL1        0.0131
     51 H          10.1025   76.1801   20.6491 H       1  UNL1        0.1660
@<TRIPOS>BOND
     1     1     2    2
     2     2     3   am
     3     3    28    1
     4    28    41    1
     5    41    42    1
     6    42    43   ar
     7    43    44   ar
     8    44    45   ar
     9    45    46   ar
    10    46    47   ar
    11    47    48   ar
    12    48    49   ar
    13    49    50   ar
    14    28    29    1
    15    29    30    2
    16    29    31   am
    17    31    33    1
    18    33    34   ar
    19    34    35   ar
    20    35    36   ar
    21    36    37   ar
    22    37    38   ar
    23    38    39    1
    24     2     5    1
    25     5     6   ar
    26     6     7   ar
    27     7     8   ar
    28     8    12    1
    29    12    13    1
    30    13    14    1
    31    14    15    1
    32    15    18    1
    33    18    19   ar
    34    19    20   ar
    35    20    21   ar
    36    21    24    1
    37    24    25    1
    38    24    26    1
    39    24    27    1
    40    21    22   ar
    41    22    23   ar
    42    15    16    1
    43    16    17    1
    44     8     9   ar
    45     9    10   ar
    46    10    11    1
    47    50    42   ar
    48    38    33   ar
    49    10     5   ar
    50    50    45   ar
    51    17    12    1
    52    23    18   ar
    53     3     4    1
    54    44    51    1
    55    31    32    1
    56    39    40    1
@<TRIPOS>MOLECULE
*****
 51 56 0 0 0
SMALL
GASTEIGER

@<TRIPOS>ATOM
      1 O           8.6802   74.5397   24.8056 O.2     1  UNL1       -0.2701
      2 C           8.3788   75.5902   25.4354 C.2     1  UNL1        0.2483
      3 N           7.1760   75.6315   26.2209 N.am    1  UNL1       -0.2945
      4 H           6.9097   76.5294   26.6846 H       1  UNL1        0.1501
      5 C           9.2438   76.7876   25.3165 C.ar    1  UNL1        0.0808
      6 C          10.2079   77.0716   26.2983 C.ar    1  UNL1        0.0080
      7 C          10.9896   78.2262   26.2142 C.ar    1  UNL1        0.0148
      8 C          10.8256   79.1251   25.1471 C.ar    1  UNL1        0.0502
      9 C           9.8755   78.8305   24.1539 C.ar    1  UNL1        0.0443
     10 C           9.0948   77.6737   24.2331 C.ar    1  UNL1        0.1457
     11 F           8.1685   77.4433   23.2678 F       1  UNL1       -0.2040
     12 N          11.6236   80.3268   25.0698 N.pl3   1  UNL1       -0.3040
     13 C          13.0767   80.2650   25.2815 C.3     1  UNL1        0.1123
     14 C          13.7938   81.3229   24.4357 C.3     1  UNL1        0.1136
     15 N          13.1847   82.6550   24.5900 N.pl3   1  UNL1       -0.2897
     16 C          11.8902   82.7887   25.2736 C.3     1  UNL1        0.1136
     17 C          10.9619   81.6296   24.8981 C.3     1  UNL1        0.1123
     18 C          13.9120   83.8417   24.1988 C.ar    1  UNL1        0.1318
     19 C          13.9341   84.9889   25.0113 C.ar    1  UNL1        0.0343
     20 C          14.6477   86.1150   24.5982 C.ar    1  UNL1        0.0083
     21 C          15.3580   86.0982   23.3891 C.ar    1  UNL1        0.0906
     22 C          15.2940   84.9433   22.5954 C.ar    1  UNL1        0.1041
     23 N          14.5906   83.8596   23.0170 N.ar    1  UNL1       -0.2292
     24 C          16.0909   87.3248   22.9084 C.3     1  UNL1        0.4200
     25 F          15.3430   88.4649   23.1469 F       1  UNL1       -0.1658
     26 F          17.3030   87.4573   23.5635 F       1  UNL1       -0.1658
     27 F          16.3225   87.2137   21.5503 F       1  UNL1       -0.1658
     28 C           6.1500   74.5858   26.1432 C.3     1  UNL1        0.1535
     29 C           6.1115   73.9918   24.7498 C.2     1  UNL1        0.2444
     30 O           6.2381   72.7471   24.5905 O.2     1  UNL1       -0.2730
     31 N           5.8689   74.8406   23.6134 N.am    1  UNL1       -0.2801
     32 H           5.8934   75.8758   23.7518 H       1  UNL1        0.1550
     33 C           5.7077   74.3518   22.2706 C.ar    1  UNL1        0.0876
     34 C           4.4979   74.5220   21.5774 C.ar    1  UNL1        0.0384
     35 C           4.3837   74.0610   20.2644 C.ar    1  UNL1        0.1004
     36 N           5.4418   73.4640   19.6563 N.ar    1  UNL1       -0.2391
     37 C           6.6307   73.3000   20.2937 C.ar    1  UNL1        0.1366
     38 C           6.7910   73.7460   21.6122 C.ar    1  UNL1        0.1664
     39 O           8.0098   73.5814   22.2691 O.3     1  UNL1       -0.5030
     40 H           8.8025   73.1440   21.8140 H       1  UNL1        0.2923
     41 C           6.3809   73.5334   27.2559 C.3     1  UNL1        0.0569
     42 C           6.7099   74.1529   28.5899 C.ar    1  UNL1       -0.0017
     43 C           7.9460   74.1445   29.2316 C.ar    1  UNL1        0.0681
     44 N           7.9023   74.8973   30.3544 N.ar    1  UNL1       -0.3523
     45 C           6.6526   75.3860   30.4267 C.ar    1  UNL1        0.0563
     46 C           6.1366   76.2444   31.3969 C.ar    1  UNL1        0.0170
     47 C           4.7980   76.6571   31.2659 C.ar    1  UNL1        0.0015
     48 C           4.0121   76.2021   30.1844 C.ar    1  UNL1        0.0001
     49 C           4.5582   75.3320   29.2241 C.ar    1  UNL1        0.0012
     50 C           5.8927   74.9503   29.3717 C.ar    1  UNL1        0.0131
     51 H           8.6884   75.0743   31.0186 H       1  UNL1        0.1660
@<TRIPOS>BOND
     1     1     2    2
     2     2     3   am
     3     3    28    1
     4    28    41    1
     5    41    42    1
     6    42    43   ar
     7    43    44   ar
     8    44    45   ar
     9    45    46   ar
    10    46    47   ar
    11    47    48   ar
    12    48    49   ar
    13    49    50   ar
    14    28    29    1
    15    29    30    2
    16    29    31   am
    17    31    33    1
    18    33    34   ar
    19    34    35   ar
    20    35    36   ar
    21    36    37   ar
    22    37    38   ar
    23    38    39    1
    24     2     5    1
    25     5     6   ar
    26     6     7   ar
    27     7     8   ar
    28     8    12    1
    29    12    13    1
    30    13    14    1
    31    14    15    1
    32    15    18    1
    33    18    19   ar
    34    19    20   ar
    35    20    21   ar
    36    21    24    1
    37    24    25    1
    38    24    26    1
    39    24    27    1
    40    21    22   ar
    41    22    23   ar
    42    15    16    1
    43    16    17    1
    44     8     9   ar
    45     9    10   ar
    46    10    11    1
    47    50    42   ar
    48    38    33   ar
    49    10     5   ar
    50    50    45   ar
    51    17    12    1
    52    23    18   ar
    53     3     4    1
    54    44    51    1
    55    31    32    1
    56    39    40    1
@<TRIPOS>MOLECULE
*****
 51 56 0 0 0
SMALL
GASTEIGER

@<TRIPOS>ATOM
      1 O           8.3159   74.8579   25.8470 O.2     1  UNL1       -0.2701
      2 C           8.1085   75.8200   25.0583 C.2     1  UNL1        0.2483
      3 N           7.0325   75.7454   24.1085 N.am    1  UNL1       -0.2945
      4 H           6.9146   76.5237   23.4210 H       1  UNL1        0.1501
      5 C           9.0100   76.9959   25.0862 C.ar    1  UNL1        0.0808
      6 C           8.5156   78.2660   25.4275 C.ar    1  UNL1        0.0080
      7 C           9.3524   79.3842   25.4055 C.ar    1  UNL1        0.0148
      8 C          10.7035   79.2597   25.0410 C.ar    1  UNL1        0.0502
      9 C          11.2031   77.9857   24.7197 C.ar    1  UNL1        0.0443
     10 C          10.3692   76.8642   24.7448 C.ar    1  UNL1        0.1457
     11 F          10.8862   75.6577   24.3986 F       1  UNL1       -0.2040
     12 N          11.5640   80.4195   25.0035 N.pl3   1  UNL1       -0.3040
     13 C          13.0223   80.2621   25.0959 C.3     1  UNL1        0.1123
     14 C          13.7378   81.3511   24.2891 C.3     1  UNL1        0.1136
     15 N          13.2221   82.6948   24.6017 N.pl3   1  UNL1       -0.2897
     16 C          11.9909   82.8360   25.3925 C.3     1  UNL1        0.1136
     17 C          10.9703   81.7656   24.9938 C.3     1  UNL1        0.1123
     18 C          13.9885   83.8711   24.2566 C.ar    1  UNL1        0.1318
     19 C          14.0446   84.9861   25.1113 C.ar    1  UNL1        0.0343
     20 C          14.7954   86.1031   24.7420 C.ar    1  UNL1        0.0083
     21 C          15.5090   86.1084   23.5347 C.ar    1  UNL1        0.0906
     22 C          15.4106   84.9863   22.6985 C.ar    1  UNL1        0.1041
     23 N          14.6713   83.9110   23.0779 N.ar    1  UNL1       -0.2292
     24 C          16.2825   87.3277   23.1017 C.3     1  UNL1        0.4200
     25 F          16.5558   87.2762   21.7458 F       1  UNL1       -0.1658
     26 F          15.5584   88.4802   23.3539 F       1  UNL1       -0.1658
     27 F          17.4742   87.3824   23.7999 F       1  UNL1       -0.1658
     28 C           6.2996   74.5017   23.8469 C.3     1  UNL1        0.1535
     29 C           5.1336   74.7663   22.9162 C.2     1  UNL1        0.2444
     30 O           4.2506   75.6088   23.2345 O.2     1  UNL1       -0.2730
     31 N           5.0665   74.1017   21.6417 N.am    1  UNL1       -0.2801
     32 H           5.7333   73.3199   21.4529 H       1  UNL1        0.1550
     33 C           4.0589   74.3714   20.6517 C.ar    1  UNL1        0.0876
     34 C           2.7032   74.1055   20.9059 C.ar    1  UNL1        0.0384
     35 C           1.7467   74.4058   19.9340 C.ar    1  UNL1        0.1004
     36 N           2.1243   74.9654   18.7550 N.ar    1  UNL1       -0.2391
     37 C           3.4253   75.2507   18.4857 C.ar    1  UNL1        0.1366
     38 C           4.4196   74.9657   19.4308 C.ar    1  UNL1        0.1664
     39 O           5.7554   75.2587   19.1592 O.3     1  UNL1       -0.5030
     40 H           6.0375   75.6839   18.2837 H       1  UNL1        0.2923
     41 C           7.2711   73.4143   23.3246 C.3     1  UNL1        0.0569
     42 C           8.3808   73.9784   22.4749 C.ar    1  UNL1       -0.0017
     43 C           8.3563   75.1697   21.7539 C.ar    1  UNL1        0.0681
     44 N           9.5673   75.4162   21.2045 N.ar    1  UNL1       -0.3523
     45 C          10.3590   74.3954   21.5748 C.ar    1  UNL1        0.0563
     46 C          11.7101   74.2234   21.2759 C.ar    1  UNL1        0.0170
     47 C          12.3586   73.0859   21.7908 C.ar    1  UNL1        0.0015
     48 C          11.6484   72.1531   22.5779 C.ar    1  UNL1        0.0001
     49 C          10.2846   72.3501   22.8581 C.ar    1  UNL1        0.0012
     50 C           9.6707   73.4943   22.3459 C.ar    1  UNL1        0.0131
     51 H           9.8336   76.2429   20.6248 H       1  UNL1        0.1660
@<TRIPOS>BOND
     1     1     2    2
     2     2     3   am
     3     3    28    1
     4    28    41    1
     5    41    42    1
     6    42    43   ar
     7    43    44   ar
     8    44    45   ar
     9    45    46   ar
    10    46    47   ar
    11    47    48   ar
    12    48    49   ar
    13    49    50   ar
    14    28    29    1
    15    29    30    2
    16    29    31   am
    17    31    33    1
    18    33    34   ar
    19    34    35   ar
    20    35    36   ar
    21    36    37   ar
    22    37    38   ar
    23    38    39    1
    24     2     5    1
    25     5     6   ar
    26     6     7   ar
    27     7     8   ar
    28     8    12    1
    29    12    13    1
    30    13    14    1
    31    14    15    1
    32    15    18    1
    33    18    19   ar
    34    19    20   ar
    35    20    21   ar
    36    21    24    1
    37    24    25    1
    38    24    26    1
    39    24    27    1
    40    21    22   ar
    41    22    23   ar
    42    15    16    1
    43    16    17    1
    44     8     9   ar
    45     9    10   ar
    46    10    11    1
    47    50    42   ar
    48    38    33   ar
    49    10     5   ar
    50    50    45   ar
    51    17    12    1
    52    23    18   ar
    53     3     4    1
    54    44    51    1
    55    31    32    1
    56    39    40    1
@<TRIPOS>MOLECULE
*****
 51 56 0 0 0
SMALL
GASTEIGER

@<TRIPOS>ATOM
      1 O          10.3480   74.5695   25.0415 O.2     1  UNL1       -0.2701
      2 C           9.6671   75.6299   25.0943 C.2     1  UNL1        0.2483
      3 N           8.2364   75.5550   25.2068 N.am    1  UNL1       -0.2945
      4 H           7.6838   76.4418   25.1856 H       1  UNL1        0.1501
      5 C          10.3479   76.9420   24.9880 C.ar    1  UNL1        0.0808
      6 C          11.7499   77.0235   25.0277 C.ar    1  UNL1        0.0080
      7 C          12.3917   78.2632   24.9783 C.ar    1  UNL1        0.0148
      8 C          11.6473   79.4512   24.8890 C.ar    1  UNL1        0.0502
      9 C          10.2454   79.3685   24.8283 C.ar    1  UNL1        0.0443
     10 C           9.6004   78.1292   24.8733 C.ar    1  UNL1        0.1457
     11 F           8.2437   78.0971   24.8419 F       1  UNL1       -0.2040
     12 N          12.3117   80.7335   24.8540 N.pl3   1  UNL1       -0.3040
     13 C          13.7440   80.8336   25.1680 C.3     1  UNL1        0.1123
     14 C          14.3986   81.9610   24.3624 C.3     1  UNL1        0.1136
     15 N          13.6373   83.2182   24.4580 N.pl3   1  UNL1       -0.2897
     16 C          12.2906   83.2105   25.0474 C.3     1  UNL1        0.1136
     17 C          11.5245   81.9544   24.6211 C.3     1  UNL1        0.1123
     18 C          14.2555   84.4766   24.1051 C.ar    1  UNL1        0.1318
     19 C          14.8361   84.6789   22.8406 C.ar    1  UNL1        0.0343
     20 C          15.4236   85.9083   22.5384 C.ar    1  UNL1        0.0083
     21 C          15.4179   86.9461   23.4816 C.ar    1  UNL1        0.0906
     22 C          14.8488   86.6990   24.7398 C.ar    1  UNL1        0.1041
     23 N          14.2847   85.4931   25.0124 N.ar    1  UNL1       -0.2292
     24 C          16.0932   88.2609   23.1851 C.3     1  UNL1        0.4200
     25 F          17.2269   88.4138   23.9644 F       1  UNL1       -0.1658
     26 F          16.4701   88.3271   21.8549 F       1  UNL1       -0.1658
     27 F          15.2166   89.2944   23.4571 F       1  UNL1       -0.1658
     28 C           7.4984   74.2996   25.0282 C.3     1  UNL1        0.1535
     29 C           6.3273   74.2390   25.9877 C.2     1  UNL1        0.2444
     30 O           5.1735   74.5657   25.5968 O.2     1  UNL1       -0.2730
     31 N           6.5206   73.7501   27.3272 N.am    1  UNL1       -0.2801
     32 H           7.4977   73.6063   27.6679 H       1  UNL1        0.1550
     33 C           5.4514   73.5556   28.2690 C.ar    1  UNL1        0.0876
     34 C           4.7075   72.3641   28.2854 C.ar    1  UNL1        0.0384
     35 C           3.6947   72.1954   29.2317 C.ar    1  UNL1        0.1004
     36 N           3.4401   73.1728   30.1403 N.ar    1  UNL1       -0.2391
     37 C           4.1532   74.3293   30.1617 C.ar    1  UNL1        0.1366
     38 C           5.1782   74.5428   29.2305 C.ar    1  UNL1        0.1664
     39 O           5.9134   75.7273   29.2504 O.3     1  UNL1       -0.5030
     40 H           5.7304   76.4536   29.9329 H       1  UNL1        0.2923
     41 C           7.0887   74.1326   23.5439 C.3     1  UNL1        0.0569
     42 C           6.8182   75.4474   22.8586 C.ar    1  UNL1       -0.0017
     43 C           5.6295   76.1727   22.8846 C.ar    1  UNL1        0.0681
     44 N           5.7853   77.3608   22.2574 N.ar    1  UNL1       -0.3523
     45 C           7.0619   77.3966   21.8393 C.ar    1  UNL1        0.0563
     46 C           7.7016   78.4379   21.1678 C.ar    1  UNL1        0.0170
     47 C           9.0612   78.2756   20.8443 C.ar    1  UNL1        0.0015
     48 C           9.7412   77.0870   21.1889 C.ar    1  UNL1        0.0001
     49 C           9.0683   76.0512   21.8611 C.ar    1  UNL1        0.0012
     50 C           7.7237   76.2454   22.1817 C.ar    1  UNL1        0.0131
     51 H           5.0618   78.1045   22.1394 H       1  UNL1        0.1660
@<TRIPOS>BOND
     1     1     2    2
     2     2     3   am
     3     3    28    1
     4    28    41    1
     5    41    42    1
     6    42    43   ar
     7    43    44   ar
     8    44    45   ar
     9    45    46   ar
    10    46    47   ar
    11    47    48   ar
    12    48    49   ar
    13    49    50   ar
    14    28    29    1
    15    29    30    2
    16    29    31   am
    17    31    33    1
    18    33    34   ar
    19    34    35   ar
    20    35    36   ar
    21    36    37   ar
    22    37    38   ar
    23    38    39    1
    24     2     5    1
    25     5     6   ar
    26     6     7   ar
    27     7     8   ar
    28     8    12    1
    29    12    13    1
    30    13    14    1
    31    14    15    1
    32    15    18    1
    33    18    19   ar
    34    19    20   ar
    35    20    21   ar
    36    21    24    1
    37    24    25    1
    38    24    26    1
    39    24    27    1
    40    21    22   ar
    41    22    23   ar
    42    15    16    1
    43    16    17    1
    44     8     9   ar
    45     9    10   ar
    46    10    11    1
    47    50    42   ar
    48    38    33   ar
    49    10     5   ar
    50    50    45   ar
    51    17    12    1
    52    23    18   ar
    53     3     4    1
    54    44    51    1
    55    31    32    1
    56    39    40    1
@<TRIPOS>MOLECULE
*****
 51 56 0 0 0
SMALL
GASTEIGER

@<TRIPOS>ATOM
      1 O          12.0158   77.1136   23.4847 O.2     1  UNL1       -0.2701
      2 C          10.9580   77.7974   23.5504 C.2     1  UNL1        0.2483
      3 N          10.9912   79.1095   24.1358 N.am    1  UNL1       -0.2945
      4 H          10.0943   79.6361   24.2393 H       1  UNL1        0.1501
      5 C           9.6818   77.2183   23.0687 C.ar    1  UNL1        0.0808
      6 C           9.0072   77.7881   21.9760 C.ar    1  UNL1        0.0080
      7 C           7.7792   77.2747   21.5521 C.ar    1  UNL1        0.0148
      8 C           7.1957   76.1797   22.2110 C.ar    1  UNL1        0.0502
      9 C           7.8806   75.5965   23.2911 C.ar    1  UNL1        0.0443
     10 C           9.1115   76.1054   23.7150 C.ar    1  UNL1        0.1457
     11 F           9.7242   75.5302   24.7811 F       1  UNL1       -0.2040
     12 N           5.9182   75.6597   21.7816 N.pl3   1  UNL1       -0.3040
     13 C           4.7464   75.7545   22.6636 C.3     1  UNL1        0.1123
     14 C           3.4618   75.9165   21.8437 C.3     1  UNL1        0.1136
     15 N           3.3677   74.9165   20.7665 N.pl3   1  UNL1       -0.2897
     16 C           4.5392   74.0933   20.4333 C.3     1  UNL1        0.1136
     17 C           5.8215   74.9276   20.5091 C.3     1  UNL1        0.1123
     18 C           2.0984   74.6435   20.1305 C.ar    1  UNL1        0.1318
     19 C           1.4402   75.6178   19.3596 C.ar    1  UNL1        0.0343
     20 C           0.2156   75.3154   18.7621 C.ar    1  UNL1        0.0083
     21 C          -0.3481   74.0398   18.9102 C.ar    1  UNL1        0.0906
     22 C           0.3276   73.1017   19.7048 C.ar    1  UNL1        0.1041
     23 N           1.5176   73.4195   20.2789 N.ar    1  UNL1       -0.2292
     24 C          -1.6935   73.7174   18.3116 C.3     1  UNL1        0.4200
     25 F          -1.8594   74.3717   17.1031 F       1  UNL1       -0.1658
     26 F          -1.8148   72.3568   18.0875 F       1  UNL1       -0.1658
     27 F          -2.6878   74.1209   19.1828 F       1  UNL1       -0.1658
     28 C          12.1531   79.6097   24.8789 C.3     1  UNL1        0.1535
     29 C          12.2107   81.1220   24.8056 C.2     1  UNL1        0.2444
     30 O          11.1436   81.7940   24.7851 O.2     1  UNL1       -0.2730
     31 N          13.4829   81.7941   24.8217 N.am    1  UNL1       -0.2801
     32 H          14.3495   81.2211   24.7113 H       1  UNL1        0.1550
     33 C          13.6310   83.2239   24.8652 C.ar    1  UNL1        0.0876
     34 C          13.4255   84.0093   23.7188 C.ar    1  UNL1        0.0384
     35 C          13.5492   85.3976   23.8018 C.ar    1  UNL1        0.1004
     36 N          13.8526   85.9859   24.9882 N.ar    1  UNL1       -0.2391
     37 C          14.0403   85.2556   26.1186 C.ar    1  UNL1        0.1366
     38 C          13.9274   83.8595   26.0826 C.ar    1  UNL1        0.1664
     39 O          14.1173   83.1065   27.2407 O.3     1  UNL1       -0.5030
     40 H          14.3353   83.5446   28.1281 H       1  UNL1        0.2923
     41 C          12.1305   79.0630   26.3279 C.3     1  UNL1        0.0569
     42 C          10.7410   78.7306   26.8078 C.ar    1  UNL1       -0.0017
     43 C           9.6042   79.5263   26.6877 C.ar    1  UNL1        0.0681
     44 N           8.5110   78.8599   27.1237 N.ar    1  UNL1       -0.3523
     45 C           8.9439   77.6490   27.5137 C.ar    1  UNL1        0.0563
     46 C           8.1748   76.5967   28.0092 C.ar    1  UNL1        0.0170
     47 C           8.8331   75.3966   28.3348 C.ar    1  UNL1        0.0015
     48 C          10.2302   75.2791   28.1665 C.ar    1  UNL1        0.0001
     49 C          10.9808   76.3596   27.6700 C.ar    1  UNL1        0.0012
     50 C          10.2995   77.5329   27.3422 C.ar    1  UNL1        0.0131
     51 H           7.5283   79.2129   27.1367 H       1  UNL1        0.1660
@<TRIPOS>BOND
     1     1     2    2
     2     2     3   am
     3     3    28    1
     4    28    41    1
     5    41    42    1
     6    42    43   ar
     7    43    44   ar
     8    44    45   ar
     9    45    46   ar
    10    46    47   ar
    11    47    48   ar
    12    48    49   ar
    13    49    50   ar
    14    28    29    1
    15    29    30    2
    16    29    31   am
    17    31    33    1
    18    33    34   ar
    19    34    35   ar
    20    35    36   ar
    21    36    37   ar
    22    37    38   ar
    23    38    39    1
    24     2     5    1
    25     5     6   ar
    26     6     7   ar
    27     7     8   ar
    28     8    12    1
    29    12    13    1
    30    13    14    1
    31    14    15    1
    32    15    18    1
    33    18    19   ar
    34    19    20   ar
    35    20    21   ar
    36    21    24    1
    37    24    25    1
    38    24    26    1
    39    24    27    1
    40    21    22   ar
    41    22    23   ar
    42    15    16    1
    43    16    17    1
    44     8     9   ar
    45     9    10   ar
    46    10    11    1
    47    50    42   ar
    48    38    33   ar
    49    10     5   ar
    50    50    45   ar
    51    17    12    1
    52    23    18   ar
    53     3     4    1
    54    44    51    1
    55    31    32    1
    56    39    40    1
@<TRIPOS>MOLECULE
*****
 51 56 0 0 0
SMALL
GASTEIGER

@<TRIPOS>ATOM
      1 O          10.7115   78.0715   24.8375 O.2     1  UNL1       -0.2701
      2 C           9.5438   77.9675   25.3028 C.2     1  UNL1        0.2483
      3 N           9.3088   78.2022   26.7010 N.am    1  UNL1       -0.2945
      4 H           8.3472   78.0501   27.0811 H       1  UNL1        0.1501
      5 C           8.4352   77.5539   24.4104 C.ar    1  UNL1        0.0808
      6 C           7.2912   76.9302   24.9360 C.ar    1  UNL1        0.0080
      7 C           6.2677   76.4943   24.0913 C.ar    1  UNL1        0.0148
      8 C           6.3635   76.6707   22.7009 C.ar    1  UNL1        0.0502
      9 C           7.4985   77.3134   22.1769 C.ar    1  UNL1        0.0443
     10 C           8.5225   77.7545   23.0200 C.ar    1  UNL1        0.1457
     11 F           9.6144   78.3436   22.4689 F       1  UNL1       -0.2040
     12 N           5.3114   76.2052   21.8271 N.pl3   1  UNL1       -0.3040
     13 C           5.2858   74.8053   21.3804 C.3     1  UNL1        0.1123
     14 C           3.8438   74.3231   21.1888 C.3     1  UNL1        0.1136
     15 N           3.0530   75.2642   20.3775 N.pl3   1  UNL1       -0.2897
     16 C           3.5942   76.5971   20.0748 C.3     1  UNL1        0.1136
     17 C           4.3347   77.1650   21.2895 C.3     1  UNL1        0.1123
     18 C           1.8150   74.8395   19.7635 C.ar    1  UNL1        0.1318
     19 C           1.0197   75.7322   19.0235 C.ar    1  UNL1        0.0343
     20 C          -0.1693   75.2836   18.4465 C.ar    1  UNL1        0.0083
     21 C          -0.5612   73.9441   18.5841 C.ar    1  UNL1        0.0906
     22 C           0.2472   73.0892   19.3479 C.ar    1  UNL1        0.1041
     23 N           1.3995   73.5490   19.9026 N.ar    1  UNL1       -0.2292
     24 C          -1.8675   73.4601   18.0081 C.3     1  UNL1        0.4200
     25 F          -2.9367   74.0425   18.6664 F       1  UNL1       -0.1658
     26 F          -1.9583   73.7826   16.6650 F       1  UNL1       -0.1658
     27 F          -1.9458   72.0872   18.1480 F       1  UNL1       -0.1658
     28 C          10.4018   78.3306   27.6712 C.3     1  UNL1        0.1535
     29 C          10.2401   79.6032   28.4775 C.2     1  UNL1        0.2444
     30 O          10.1748   80.7180   27.8911 O.2     1  UNL1       -0.2730
     31 N          10.0990   79.5344   29.9079 N.am    1  UNL1       -0.2801
     32 H          10.2817   78.6217   30.3822 H       1  UNL1        0.1550
     33 C           9.8330   80.6762   30.7406 C.ar    1  UNL1        0.0876
     34 C           9.8871   81.9805   30.2216 C.ar    1  UNL1        0.0384
     35 C           9.5953   83.0659   31.0500 C.ar    1  UNL1        0.1004
     36 N           9.2472   82.8602   32.3470 N.ar    1  UNL1       -0.2391
     37 C           9.1690   81.6103   32.8744 C.ar    1  UNL1        0.1366
     38 C           9.4541   80.4913   32.0808 C.ar    1  UNL1        0.1664
     39 O           9.3731   79.2070   32.6175 O.3     1  UNL1       -0.5030
     40 H           9.1053   79.0515   33.5824 H       1  UNL1        0.2923
     41 C          10.4877   77.0542   28.5442 C.3     1  UNL1        0.0569
     42 C           9.1984   76.2741   28.5711 C.ar    1  UNL1       -0.0017
     43 C           8.8973   75.1344   27.8293 C.ar    1  UNL1        0.0681
     44 N           7.6952   74.6345   28.1955 N.ar    1  UNL1       -0.3523
     45 C           7.2351   75.4434   29.1650 C.ar    1  UNL1        0.0563
     46 C           6.0433   75.3144   29.8774 C.ar    1  UNL1        0.0170
     47 C           5.7672   76.2660   30.8762 C.ar    1  UNL1        0.0015
     48 C           6.6746   77.3172   31.1327 C.ar    1  UNL1        0.0001
     49 C           7.8662   77.4251   30.3939 C.ar    1  UNL1        0.0012
     50 C           8.1207   76.4591   29.4190 C.ar    1  UNL1        0.0131
     51 H           7.2302   73.7818   27.8119 H       1  UNL1        0.1660
@<TRIPOS>BOND
     1     1     2    2
     2     2     3   am
     3     3    28    1
     4    28    41    1
     5    41    42    1
     6    42    43   ar
     7    43    44   ar
     8    44    45   ar
     9    45    46   ar
    10    46    47   ar
    11    47    48   ar
    12    48    49   ar
    13    49    50   ar
    14    28    29    1
    15    29    30    2
    16    29    31   am
    17    31    33    1
    18    33    34   ar
    19    34    35   ar
    20    35    36   ar
    21    36    37   ar
    22    37    38   ar
    23    38    39    1
    24     2     5    1
    25     5     6   ar
    26     6     7   ar
    27     7     8   ar
    28     8    12    1
    29    12    13    1
    30    13    14    1
    31    14    15    1
    32    15    18    1
    33    18    19   ar
    34    19    20   ar
    35    20    21   ar
    36    21    24    1
    37    24    25    1
    38    24    26    1
    39    24    27    1
    40    21    22   ar
    41    22    23   ar
    42    15    16    1
    43    16    17    1
    44     8     9   ar
    45     9    10   ar
    46    10    11    1
    47    50    42   ar
    48    38    33   ar
    49    10     5   ar
    50    50    45   ar
    51    17    12    1
    52    23    18   ar
    53     3     4    1
    54    44    51    1
    55    31    32    1
    56    39    40    1
