@<TRIPOS>MOLECULE
*****
 35 39 0 0 0
SMALL
GASTEIGER

@<TRIPOS>ATOM
      1 C         -25.5187   -6.4455  -14.2113 C.2     1  UNL1        0.2490
      2 O         -24.7834   -6.6525  -15.2153 O.2     1  UNL1       -0.2699
      3 N         -24.9715   -6.5985  -12.8857 N.am    1  UNL1       -0.2760
      4 C         -25.7804   -7.2030  -11.8148 C.3     1  UNL1        0.0954
      5 C         -24.9054   -8.0218  -10.8478 C.3     1  UNL1        0.0399
      6 C         -23.7666   -8.7723  -11.5892 C.3     1  UNL1        0.0645
      7 C         -22.8532   -7.7525  -12.3475 C.3     1  UNL1        0.0399
      8 C         -23.5362   -6.4075  -12.6534 C.3     1  UNL1        0.0954
      9 C         -24.3957   -9.7931  -12.6074 C.3     1  UNL1        0.0481
     10 C         -23.3925  -10.8254  -13.0297 C.ar    1  UNL1        0.0259
     11 C         -22.3708  -11.2320  -12.2357 C.ar    1  UNL1        0.1519
     12 N         -21.7181  -12.2623  -12.7941 N.ar    1  UNL1       -0.1647
     13 N         -22.3180  -12.5341  -13.9516 N.ar    1  UNL1       -0.2494
     14 C         -23.3677  -11.6738  -14.1164 C.ar    1  UNL1        0.1047
     15 I         -24.7991  -11.5899  -15.6841 I       1  UNL1       -0.0219
     16 C         -22.1212  -10.6057  -10.9475 C.2     1  UNL1        0.2650
     17 O         -21.2334  -11.0410  -10.1678 O.2     1  UNL1       -0.2684
     18 N         -22.9401   -9.4837  -10.5838 N.am    1  UNL1       -0.3023
     19 H         -22.7972   -9.0570   -9.6400 H       1  UNL1        0.1497
     20 C         -28.9906   -3.6003  -16.3252 C.ar    1  UNL1        0.2248
     21 N         -30.3088   -3.2960  -16.4918 N.ar    1  UNL1       -0.2101
     22 C         -31.2966   -3.9892  -15.8683 C.ar    1  UNL1        0.1021
     23 C         -30.9817   -5.0535  -15.0240 C.ar    1  UNL1        0.0209
     24 C         -29.6396   -5.3996  -14.8251 C.ar    1  UNL1        0.0060
     25 C         -29.2952   -6.4688  -13.9867 C.ar    1  UNL1        0.0003
     26 C         -27.9541   -6.8067  -13.7927 C.ar    1  UNL1        0.0045
     27 C         -26.9355   -6.0761  -14.4248 C.ar    1  UNL1        0.0537
     28 C         -27.2772   -5.0159  -15.2806 C.ar    1  UNL1        0.0092
     29 C         -28.6238   -4.6660  -15.4812 C.ar    1  UNL1        0.0534
     30 C         -27.8390   -2.8834  -18.4005 C.3     1  UNL1        0.2542
     31 O         -28.0072   -2.8558  -16.9882 O.3     1  UNL1       -0.4561
     32 C         -21.8696  -13.6305  -14.8452 C.3     1  UNL1        0.0871
     33 C         -22.8586  -14.8112  -14.7816 C.3     1  UNL1        0.0244
     34 C         -21.8195  -13.1375  -16.3118 C.3     1  UNL1        0.0244
     35 C         -20.4516  -14.0906  -14.4545 C.3     1  UNL1        0.0244
@<TRIPOS>BOND
     1    30    31    1
     2    31    20    1
     3    20    21   ar
     4    21    22   ar
     5    22    23   ar
     6    23    24   ar
     7    24    25   ar
     8    25    26   ar
     9    26    27   ar
    10    27     1    1
    11     1     2    2
    12     1     3   am
    13     3     4    1
    14     4     5    1
    15     5     6    1
    16     6     7    1
    17     7     8    1
    18     6     9    1
    19     9    10    1
    20    10    11   ar
    21    11    12   ar
    22    12    13   ar
    23    13    32    1
    24    32    33    1
    25    32    34    1
    26    32    35    1
    27    13    14   ar
    28    14    15    1
    29    11    16    1
    30    16    17    2
    31    16    18   am
    32    27    28   ar
    33    28    29   ar
    34    29    20   ar
    35    29    24   ar
    36     8     3    1
    37    14    10   ar
    38    18     6    1
    39    18    19    1
@<TRIPOS>MOLECULE
*****
 35 39 0 0 0
SMALL
GASTEIGER

@<TRIPOS>ATOM
      1 C         -21.9231   -8.8710   -8.6747 C.2     1  UNL1        0.2490
      2 O         -22.7123   -9.8553   -8.6808 O.2     1  UNL1       -0.2699
      3 N         -22.1555   -7.7680   -9.5743 N.am    1  UNL1       -0.2760
      4 C         -21.0235   -7.1019  -10.2387 C.3     1  UNL1        0.0954
      5 C         -21.4066   -6.6255  -11.6520 C.3     1  UNL1        0.0399
      6 C         -22.3500   -7.6297  -12.3674 C.3     1  UNL1        0.0645
      7 C         -23.6602   -7.8257  -11.5342 C.3     1  UNL1        0.0399
      8 C         -23.5130   -7.4719  -10.0435 C.3     1  UNL1        0.0954
      9 C         -21.6084   -9.0064  -12.5376 C.3     1  UNL1        0.0481
     10 C         -22.2797   -9.8592  -13.5733 C.ar    1  UNL1        0.0259
     11 C         -22.9624   -9.3442  -14.6260 C.ar    1  UNL1        0.1519
     12 N         -23.3316  -10.3169  -15.4727 N.ar    1  UNL1       -0.1647
     13 N         -22.8836  -11.4687  -14.9765 N.ar    1  UNL1       -0.2494
     14 C         -22.2141  -11.2157  -13.8117 C.ar    1  UNL1        0.1047
     15 I         -21.1781  -12.5662  -12.5401 I       1  UNL1       -0.0219
     16 C         -23.1768   -7.9123  -14.7584 C.2     1  UNL1        0.2650
     17 O         -23.7281   -7.4233  -15.7794 O.2     1  UNL1       -0.2684
     18 N         -22.7162   -7.0694  -13.6910 N.am    1  UNL1       -0.3023
     19 H         -22.8256   -6.0353  -13.7999 H       1  UNL1        0.1497
     20 C         -19.9863   -8.5889   -4.1154 C.ar    1  UNL1        0.2248
     21 N         -18.8869   -8.6133   -3.3100 N.ar    1  UNL1       -0.2101
     22 C         -17.6331   -8.7923   -3.8010 C.ar    1  UNL1        0.1021
     23 C         -17.4333   -8.9600   -5.1710 C.ar    1  UNL1        0.0209
     24 C         -18.5359   -8.9417   -6.0340 C.ar    1  UNL1        0.0060
     25 C         -18.3643   -9.1140   -7.4143 C.ar    1  UNL1        0.0003
     26 C         -19.4691   -9.0932   -8.2684 C.ar    1  UNL1        0.0045
     27 C         -20.7613   -8.8898   -7.7587 C.ar    1  UNL1        0.0537
     28 C         -20.9395   -8.7355   -6.3739 C.ar    1  UNL1        0.0092
     29 C         -19.8341   -8.7528   -5.5056 C.ar    1  UNL1        0.0534
     30 C         -21.6942   -9.0620   -2.3816 C.3     1  UNL1        0.2542
     31 O         -21.2592   -8.4001   -3.5632 O.3     1  UNL1       -0.4561
     32 C         -23.0988  -12.7691  -15.6578 C.3     1  UNL1        0.0871
     33 C         -23.9445  -13.7044  -14.7711 C.3     1  UNL1        0.0244
     34 C         -23.8677  -12.5564  -16.9844 C.3     1  UNL1        0.0244
     35 C         -21.7455  -13.4232  -15.9977 C.3     1  UNL1        0.0244
@<TRIPOS>BOND
     1    30    31    1
     2    31    20    1
     3    20    21   ar
     4    21    22   ar
     5    22    23   ar
     6    23    24   ar
     7    24    25   ar
     8    25    26   ar
     9    26    27   ar
    10    27     1    1
    11     1     2    2
    12     1     3   am
    13     3     4    1
    14     4     5    1
    15     5     6    1
    16     6     7    1
    17     7     8    1
    18     6     9    1
    19     9    10    1
    20    10    11   ar
    21    11    12   ar
    22    12    13   ar
    23    13    32    1
    24    32    33    1
    25    32    34    1
    26    32    35    1
    27    13    14   ar
    28    14    15    1
    29    11    16    1
    30    16    17    2
    31    16    18   am
    32    27    28   ar
    33    28    29   ar
    34    29    20   ar
    35    29    24   ar
    36     8     3    1
    37    14    10   ar
    38    18     6    1
    39    18    19    1
@<TRIPOS>MOLECULE
*****
 35 39 0 0 0
SMALL
GASTEIGER

@<TRIPOS>ATOM
      1 C         -26.3392   -5.3300  -13.1571 C.2     1  UNL1        0.2490
      2 O         -25.6741   -4.5471  -12.4248 O.2     1  UNL1       -0.2699
      3 N         -26.9943   -6.4712  -12.5666 N.am    1  UNL1       -0.2760
      4 C         -27.0185   -7.7610  -13.2752 C.3     1  UNL1        0.0954
      5 C         -26.9517   -8.9418  -12.2890 C.3     1  UNL1        0.0399
      6 C         -26.0167   -8.6419  -11.0867 C.3     1  UNL1        0.0645
      7 C         -26.5186   -7.3755  -10.3161 C.3     1  UNL1        0.0399
      8 C         -27.4040   -6.4401  -11.1589 C.3     1  UNL1        0.0954
      9 C         -24.5534   -8.4072  -11.6139 C.3     1  UNL1        0.0481
     10 C         -23.5504   -8.5386  -10.5060 C.ar    1  UNL1        0.0259
     11 C         -23.7415   -9.3371   -9.4264 C.ar    1  UNL1        0.1519
     12 N         -22.6348   -9.3834   -8.6698 N.ar    1  UNL1       -0.1647
     13 N         -21.7167   -8.6196   -9.2590 N.ar    1  UNL1       -0.2494
     14 C         -22.2477   -8.0980  -10.4057 C.ar    1  UNL1        0.1047
     15 I         -21.3256   -6.8669  -11.8714 I       1  UNL1       -0.0219
     16 C         -24.9955  -10.0445   -9.2237 C.2     1  UNL1        0.2650
     17 O         -25.1434  -10.8580   -8.2741 O.2     1  UNL1       -0.2684
     18 N         -26.0559   -9.7997  -10.1604 N.am    1  UNL1       -0.3023
     19 H         -26.9446  -10.3390  -10.0478 H       1  UNL1        0.1497
     20 C         -24.5184   -5.8338  -17.7450 C.ar    1  UNL1        0.2248
     21 N         -24.6204   -5.5668  -19.0777 N.ar    1  UNL1       -0.2101
     22 C         -25.6379   -4.8290  -19.5930 C.ar    1  UNL1        0.1021
     23 C         -26.6265   -4.3149  -18.7543 C.ar    1  UNL1        0.0209
     24 C         -26.5597   -4.5657  -17.3783 C.ar    1  UNL1        0.0060
     25 C         -27.5432   -4.0663  -16.5136 C.ar    1  UNL1        0.0003
     26 C         -27.4686   -4.3200  -15.1422 C.ar    1  UNL1        0.0045
     27 C         -26.4055   -5.0678  -14.6118 C.ar    1  UNL1        0.0537
     28 C         -25.4279   -5.5860  -15.4773 C.ar    1  UNL1        0.0092
     29 C         -25.4924   -5.3348  -16.8590 C.ar    1  UNL1        0.0534
     30 C         -23.3424   -8.0000  -17.4777 C.3     1  UNL1        0.2542
     31 O         -23.4501   -6.5984  -17.2601 O.3     1  UNL1       -0.4561
     32 C         -20.3521   -8.4402   -8.7048 C.3     1  UNL1        0.0871
     33 C         -19.9358   -6.9577   -8.7771 C.3     1  UNL1        0.0244
     34 C         -20.3196   -8.8658   -7.2168 C.3     1  UNL1        0.0244
     35 C         -19.3460   -9.3227   -9.4690 C.3     1  UNL1        0.0244
@<TRIPOS>BOND
     1    30    31    1
     2    31    20    1
     3    20    21   ar
     4    21    22   ar
     5    22    23   ar
     6    23    24   ar
     7    24    25   ar
     8    25    26   ar
     9    26    27   ar
    10    27     1    1
    11     1     2    2
    12     1     3   am
    13     3     4    1
    14     4     5    1
    15     5     6    1
    16     6     7    1
    17     7     8    1
    18     6     9    1
    19     9    10    1
    20    10    11   ar
    21    11    12   ar
    22    12    13   ar
    23    13    32    1
    24    32    33    1
    25    32    34    1
    26    32    35    1
    27    13    14   ar
    28    14    15    1
    29    11    16    1
    30    16    17    2
    31    16    18   am
    32    27    28   ar
    33    28    29   ar
    34    29    20   ar
    35    29    24   ar
    36     8     3    1
    37    14    10   ar
    38    18     6    1
    39    18    19    1
@<TRIPOS>MOLECULE
*****
 35 39 0 0 0
SMALL
GASTEIGER

@<TRIPOS>ATOM
      1 C         -21.3590   -8.6823   -8.4315 C.2     1  UNL1        0.2490
      2 O         -22.1974   -9.6241   -8.3914 O.2     1  UNL1       -0.2699
      3 N         -21.5406   -7.6087   -9.3774 N.am    1  UNL1       -0.2760
      4 C         -20.3804   -7.0310  -10.0749 C.3     1  UNL1        0.0954
      5 C         -20.7478   -6.5972  -11.5060 C.3     1  UNL1        0.0399
      6 C         -21.7458   -7.5816  -12.1729 C.3     1  UNL1        0.0645
      7 C         -23.0589   -7.6740  -11.3264 C.3     1  UNL1        0.0399
      8 C         -22.8841   -7.2640   -9.8532 C.3     1  UNL1        0.0954
      9 C         -21.0767   -9.0006  -12.2862 C.3     1  UNL1        0.0481
     10 C         -21.7973   -9.8619  -13.2809 C.ar    1  UNL1        0.0259
     11 C         -22.4596   -9.3586  -14.3522 C.ar    1  UNL1        0.1519
     12 N         -22.8835  -10.3468  -15.1541 N.ar    1  UNL1       -0.1647
     13 N         -22.4918  -11.4975  -14.6101 N.ar    1  UNL1       -0.2494
     14 C         -21.8026  -11.2290  -13.4603 C.ar    1  UNL1        0.1047
     15 I         -20.8287  -12.5746  -12.1356 I       1  UNL1       -0.0219
     16 C         -22.6015   -7.9246  -14.5458 C.2     1  UNL1        0.2650
     17 O         -23.1337   -7.4527  -15.5849 O.2     1  UNL1       -0.2684
     18 N         -22.0915   -7.0611  -13.5182 N.am    1  UNL1       -0.3023
     19 H         -22.1487   -6.0284  -13.6714 H       1  UNL1        0.1497
     20 C         -17.2722  -10.9038   -6.7049 C.ar    1  UNL1        0.2248
     21 N         -16.2128  -10.8967   -5.8473 N.ar    1  UNL1       -0.2101
     22 C         -15.9985   -9.8827   -4.9693 C.ar    1  UNL1        0.1021
     23 C         -16.8748   -8.7989   -4.9215 C.ar    1  UNL1        0.0209
     24 C         -17.9761   -8.7665   -5.7856 C.ar    1  UNL1        0.0060
     25 C         -18.8691   -7.6864   -5.7629 C.ar    1  UNL1        0.0003
     26 C         -19.9659   -7.6623   -6.6272 C.ar    1  UNL1        0.0045
     27 C         -20.1937   -8.7211   -7.5205 C.ar    1  UNL1        0.0537
     28 C         -19.2907   -9.7964   -7.5595 C.ar    1  UNL1        0.0092
     29 C         -18.1847   -9.8315   -6.6925 C.ar    1  UNL1        0.0534
     30 C         -16.6955  -12.1202   -8.7870 C.3     1  UNL1        0.2542
     31 O         -17.4526  -11.9725   -7.5918 O.3     1  UNL1       -0.4561
     32 C         -22.7774  -12.8134  -15.2332 C.3     1  UNL1        0.0871
     33 C         -23.8830  -13.5480  -14.4494 C.3     1  UNL1        0.0244
     34 C         -23.2797  -12.6195  -16.6846 C.3     1  UNL1        0.0244
     35 C         -21.4953  -13.6667  -15.2887 C.3     1  UNL1        0.0244
@<TRIPOS>BOND
     1    30    31    1
     2    31    20    1
     3    20    21   ar
     4    21    22   ar
     5    22    23   ar
     6    23    24   ar
     7    24    25   ar
     8    25    26   ar
     9    26    27   ar
    10    27     1    1
    11     1     2    2
    12     1     3   am
    13     3     4    1
    14     4     5    1
    15     5     6    1
    16     6     7    1
    17     7     8    1
    18     6     9    1
    19     9    10    1
    20    10    11   ar
    21    11    12   ar
    22    12    13   ar
    23    13    32    1
    24    32    33    1
    25    32    34    1
    26    32    35    1
    27    13    14   ar
    28    14    15    1
    29    11    16    1
    30    16    17    2
    31    16    18   am
    32    27    28   ar
    33    28    29   ar
    34    29    20   ar
    35    29    24   ar
    36     8     3    1
    37    14    10   ar
    38    18     6    1
    39    18    19    1
@<TRIPOS>MOLECULE
*****
 35 39 0 0 0
SMALL
GASTEIGER

@<TRIPOS>ATOM
      1 C         -26.5431   -5.2794  -13.0447 C.2     1  UNL1        0.2490
      2 O         -25.9138   -4.5041  -12.2737 O.2     1  UNL1       -0.2699
      3 N         -27.1334   -6.4839  -12.5148 N.am    1  UNL1       -0.2760
      4 C         -27.0961   -7.7325  -13.2933 C.3     1  UNL1        0.0954
      5 C         -26.9604   -8.9605  -12.3740 C.3     1  UNL1        0.0399
      6 C         -26.0329   -8.6784  -11.1616 C.3     1  UNL1        0.0645
      7 C         -26.5939   -7.4841  -10.3200 C.3     1  UNL1        0.0399
      8 C         -27.5332   -6.5515  -11.1055 C.3     1  UNL1        0.0954
      9 C         -24.5879   -8.3390  -11.6823 C.3     1  UNL1        0.0481
     10 C         -23.5708   -8.4783  -10.5884 C.ar    1  UNL1        0.0259
     11 C         -23.7117   -9.3436   -9.5535 C.ar    1  UNL1        0.1519
     12 N         -22.5983   -9.3733   -8.8060 N.ar    1  UNL1       -0.1647
     13 N         -21.7257   -8.5315   -9.3568 N.ar    1  UNL1       -0.2494
     14 C         -22.2921   -7.9763  -10.4704 C.ar    1  UNL1        0.1047
     15 I         -21.4466   -6.6203  -11.8705 I       1  UNL1       -0.0219
     16 C         -24.9257  -10.1256   -9.3839 C.2     1  UNL1        0.2650
     17 O         -25.0238  -10.9965   -8.4798 O.2     1  UNL1       -0.2684
     18 N         -26.0047   -9.8857  -10.3004 N.am    1  UNL1       -0.3023
     19 H         -26.8633  -10.4760  -10.2133 H       1  UNL1        0.1497
     20 C         -28.8595   -3.0980  -16.8518 C.ar    1  UNL1        0.2248
     21 N         -28.9018   -2.8110  -18.1836 N.ar    1  UNL1       -0.2101
     22 C         -27.9405   -3.2318  -19.0462 C.ar    1  UNL1        0.1021
     23 C         -26.8617   -3.9839  -18.5821 C.ar    1  UNL1        0.0209
     24 C         -26.7796   -4.3010  -17.2207 C.ar    1  UNL1        0.0060
     25 C         -25.7030   -5.0502  -16.7264 C.ar    1  UNL1        0.0003
     26 C         -25.6292   -5.3633  -15.3673 C.ar    1  UNL1        0.0045
     27 C         -26.6343   -4.9417  -14.4824 C.ar    1  UNL1        0.0537
     28 C         -27.7050   -4.1747  -14.9705 C.ar    1  UNL1        0.0092
     29 C         -27.7901   -3.8558  -16.3370 C.ar    1  UNL1        0.0534
     30 C         -31.2538   -2.7007  -16.3455 C.3     1  UNL1        0.2542
     31 O         -29.8747   -2.6433  -16.0012 O.3     1  UNL1       -0.4561
     32 C         -20.3679   -8.3116   -8.8003 C.3     1  UNL1        0.0871
     33 C         -20.0444   -6.8050   -8.7582 C.3     1  UNL1        0.0244
     34 C         -20.2910   -8.8498   -7.3509 C.3     1  UNL1        0.0244
     35 C         -19.3191   -9.0671   -9.6394 C.3     1  UNL1        0.0244
@<TRIPOS>BOND
     1    30    31    1
     2    31    20    1
     3    20    21   ar
     4    21    22   ar
     5    22    23   ar
     6    23    24   ar
     7    24    25   ar
     8    25    26   ar
     9    26    27   ar
    10    27     1    1
    11     1     2    2
    12     1     3   am
    13     3     4    1
    14     4     5    1
    15     5     6    1
    16     6     7    1
    17     7     8    1
    18     6     9    1
    19     9    10    1
    20    10    11   ar
    21    11    12   ar
    22    12    13   ar
    23    13    32    1
    24    32    33    1
    25    32    34    1
    26    32    35    1
    27    13    14   ar
    28    14    15    1
    29    11    16    1
    30    16    17    2
    31    16    18   am
    32    27    28   ar
    33    28    29   ar
    34    29    20   ar
    35    29    24   ar
    36     8     3    1
    37    14    10   ar
    38    18     6    1
    39    18    19    1
@<TRIPOS>MOLECULE
*****
 35 39 0 0 0
SMALL
GASTEIGER

@<TRIPOS>ATOM
      1 C         -25.7900   -5.1404  -14.6285 C.2     1  UNL1        0.2490
      2 O         -24.5608   -5.1994  -14.9061 O.2     1  UNL1       -0.2699
      3 N         -26.2532   -5.6161  -13.3481 N.am    1  UNL1       -0.2760
      4 C         -27.5224   -6.3544  -13.2463 C.3     1  UNL1        0.0954
      5 C         -27.4550   -7.4334  -12.1498 C.3     1  UNL1        0.0399
      6 C         -26.0607   -8.1133  -12.0892 C.3     1  UNL1        0.0645
      7 C         -24.9518   -7.0453  -11.8078 C.3     1  UNL1        0.0399
      8 C         -25.3544   -5.6096  -12.1894 C.3     1  UNL1        0.0954
      9 C         -25.7773   -8.8372  -13.4566 C.3     1  UNL1        0.0481
     10 C         -24.6754   -9.8458  -13.3179 C.ar    1  UNL1        0.0259
     11 C         -24.4140  -10.5007  -12.1592 C.ar    1  UNL1        0.1519
     12 N         -23.4824  -11.4468  -12.3498 N.ar    1  UNL1       -0.1647
     13 N         -23.1393  -11.4151  -13.6362 N.ar    1  UNL1       -0.2494
     14 C         -23.8728  -10.4473  -14.2640 C.ar    1  UNL1        0.1047
     15 I         -23.9011   -9.9076  -16.3187 I       1  UNL1       -0.0219
     16 C         -25.1303  -10.1826  -10.9347 C.2     1  UNL1        0.2650
     17 O         -24.9569  -10.8502   -9.8812 O.2     1  UNL1       -0.2684
     18 N         -26.0627   -9.0913  -10.9740 N.am    1  UNL1       -0.3023
     19 H         -26.6150   -8.8859  -10.1103 H       1  UNL1        0.1497
     20 C         -30.2541   -3.3995  -15.9163 C.ar    1  UNL1        0.2248
     21 N         -31.0833   -2.9116  -16.8819 N.ar    1  UNL1       -0.2101
     22 C         -30.6789   -2.7460  -18.1680 C.ar    1  UNL1        0.1021
     23 C         -29.3769   -3.0771  -18.5424 C.ar    1  UNL1        0.0209
     24 C         -28.4924   -3.5816  -17.5813 C.ar    1  UNL1        0.0060
     25 C         -27.1765   -3.9166  -17.9289 C.ar    1  UNL1        0.0003
     26 C         -26.3009   -4.4203  -16.9645 C.ar    1  UNL1        0.0045
     27 C         -26.7284   -4.6068  -15.6404 C.ar    1  UNL1        0.0537
     28 C         -28.0406   -4.2547  -15.2838 C.ar    1  UNL1        0.0092
     29 C         -28.9308   -3.7488  -16.2471 C.ar    1  UNL1        0.0534
     30 C         -31.9528   -3.0139  -14.1519 C.3     1  UNL1        0.2542
     31 O         -30.7167   -3.5540  -14.6036 O.3     1  UNL1       -0.4561
     32 C         -22.1319  -12.3369  -14.2168 C.3     1  UNL1        0.0871
     33 C         -21.3400  -11.6293  -15.3341 C.3     1  UNL1        0.0244
     34 C         -21.1210  -12.7766  -13.1300 C.3     1  UNL1        0.0244
     35 C         -22.8197  -13.6044  -14.7604 C.3     1  UNL1        0.0244
@<TRIPOS>BOND
     1    30    31    1
     2    31    20    1
     3    20    21   ar
     4    21    22   ar
     5    22    23   ar
     6    23    24   ar
     7    24    25   ar
     8    25    26   ar
     9    26    27   ar
    10    27     1    1
    11     1     2    2
    12     1     3   am
    13     3     4    1
    14     4     5    1
    15     5     6    1
    16     6     7    1
    17     7     8    1
    18     6     9    1
    19     9    10    1
    20    10    11   ar
    21    11    12   ar
    22    12    13   ar
    23    13    32    1
    24    32    33    1
    25    32    34    1
    26    32    35    1
    27    13    14   ar
    28    14    15    1
    29    11    16    1
    30    16    17    2
    31    16    18   am
    32    27    28   ar
    33    28    29   ar
    34    29    20   ar
    35    29    24   ar
    36     8     3    1
    37    14    10   ar
    38    18     6    1
    39    18    19    1
@<TRIPOS>MOLECULE
*****
 35 39 0 0 0
SMALL
GASTEIGER

@<TRIPOS>ATOM
      1 C         -26.1314   -7.7489  -13.1333 C.2     1  UNL1        0.2490
      2 O         -26.3545   -7.6680  -11.8943 O.2     1  UNL1       -0.2699
      3 N         -25.5037   -8.9328  -13.6668 N.am    1  UNL1       -0.2760
      4 C         -24.5033   -8.8218  -14.7406 C.3     1  UNL1        0.0954
      5 C         -23.4118   -9.8992  -14.6011 C.3     1  UNL1        0.0399
      6 C         -23.0488  -10.1690  -13.1161 C.3     1  UNL1        0.0645
      7 C         -24.3170  -10.6378  -12.3277 C.3     1  UNL1        0.0399
      8 C         -25.6481  -10.2189  -12.9771 C.3     1  UNL1        0.0954
      9 C         -22.4723   -8.8529  -12.4760 C.3     1  UNL1        0.0481
     10 C         -21.7216   -9.1490  -11.2114 C.ar    1  UNL1        0.0259
     11 C         -21.0827  -10.3245  -10.9886 C.ar    1  UNL1        0.1519
     12 N         -20.3721  -10.2694   -9.8522 N.ar    1  UNL1       -0.1647
     13 N         -20.5411   -9.0540   -9.3348 N.ar    1  UNL1       -0.2494
     14 C         -21.3563   -8.3326  -10.1619 C.ar    1  UNL1        0.1047
     15 I         -21.9778   -6.3075   -9.9994 I       1  UNL1       -0.0219
     16 C         -21.1766  -11.4251  -11.9339 C.2     1  UNL1        0.2650
     17 O         -20.5114  -12.4827  -11.7773 O.2     1  UNL1       -0.2684
     18 N         -22.0399  -11.2552  -13.0687 N.am    1  UNL1       -0.3023
     19 H         -22.0774  -12.0239  -13.7765 H       1  UNL1        0.1497
     20 C         -29.5343   -4.8245  -15.2514 C.ar    1  UNL1        0.2248
     21 N         -29.8244   -3.7670  -16.0609 N.ar    1  UNL1       -0.2101
     22 C         -28.8564   -3.0338  -16.6696 C.ar    1  UNL1        0.1021
     23 C         -27.5117   -3.3499  -16.4778 C.ar    1  UNL1        0.0209
     24 C         -27.1698   -4.4289  -15.6536 C.ar    1  UNL1        0.0060
     25 C         -25.8260   -4.7647  -15.4386 C.ar    1  UNL1        0.0003
     26 C         -25.4935   -5.8432  -14.6160 C.ar    1  UNL1        0.0045
     27 C         -26.4977   -6.6095  -14.0033 C.ar    1  UNL1        0.0537
     28 C         -27.8450   -6.2647  -14.2011 C.ar    1  UNL1        0.0092
     29 C         -28.1908   -5.1823  -15.0288 C.ar    1  UNL1        0.0534
     30 C         -31.8922   -5.0511  -14.5194 C.3     1  UNL1        0.2542
     31 O         -30.5668   -5.5518  -14.6464 O.3     1  UNL1       -0.4561
     32 C         -19.8900   -8.6261   -8.0720 C.3     1  UNL1        0.0871
     33 C         -19.4000   -7.1693   -8.1895 C.3     1  UNL1        0.0244
     34 C         -20.9011   -8.6893   -6.9016 C.3     1  UNL1        0.0244
     35 C         -18.7168   -9.5658   -7.7320 C.3     1  UNL1        0.0244
@<TRIPOS>BOND
     1    30    31    1
     2    31    20    1
     3    20    21   ar
     4    21    22   ar
     5    22    23   ar
     6    23    24   ar
     7    24    25   ar
     8    25    26   ar
     9    26    27   ar
    10    27     1    1
    11     1     2    2
    12     1     3   am
    13     3     4    1
    14     4     5    1
    15     5     6    1
    16     6     7    1
    17     7     8    1
    18     6     9    1
    19     9    10    1
    20    10    11   ar
    21    11    12   ar
    22    12    13   ar
    23    13    32    1
    24    32    33    1
    25    32    34    1
    26    32    35    1
    27    13    14   ar
    28    14    15    1
    29    11    16    1
    30    16    17    2
    31    16    18   am
    32    27    28   ar
    33    28    29   ar
    34    29    20   ar
    35    29    24   ar
    36     8     3    1
    37    14    10   ar
    38    18     6    1
    39    18    19    1
@<TRIPOS>MOLECULE
*****
 35 39 0 0 0
SMALL
GASTEIGER

@<TRIPOS>ATOM
      1 C         -25.5553   -8.1733  -12.6300 C.2     1  UNL1        0.2490
      2 O         -25.8308   -8.1550  -11.3990 O.2     1  UNL1       -0.2699
      3 N         -24.8055   -9.2786  -13.1743 N.am    1  UNL1       -0.2760
      4 C         -23.7795   -9.0435  -14.2031 C.3     1  UNL1        0.0954
      5 C         -22.6026  -10.0252  -14.0534 C.3     1  UNL1        0.0399
      6 C         -22.2726  -10.3132  -12.5641 C.3     1  UNL1        0.0645
      7 C         -23.5226  -10.9182  -11.8422 C.3     1  UNL1        0.0399
      8 C         -24.8605  -10.5954  -12.5312 C.3     1  UNL1        0.0954
      9 C         -21.8396   -8.9745  -11.8608 C.3     1  UNL1        0.0481
     10 C         -21.1132   -9.2469  -10.5769 C.ar    1  UNL1        0.0259
     11 C         -20.3811  -10.3689  -10.3652 C.ar    1  UNL1        0.1519
     12 N         -19.7211  -10.2909   -9.2000 N.ar    1  UNL1       -0.1647
     13 N         -20.0166   -9.1136   -8.6524 N.ar    1  UNL1       -0.2494
     14 C         -20.8613   -8.4384   -9.4888 C.ar    1  UNL1        0.1047
     15 I         -21.6661   -6.4823   -9.2887 I       1  UNL1       -0.0219
     16 C         -20.3415  -11.4403  -11.3472 C.2     1  UNL1        0.2650
     17 O         -19.5912  -12.4403  -11.1968 O.2     1  UNL1       -0.2684
     18 N         -21.1736  -11.3078  -12.5099 N.am    1  UNL1       -0.3023
     19 H         -21.1163  -12.0519  -13.2422 H       1  UNL1        0.1497
     20 C         -25.2374   -5.5050  -16.8010 C.ar    1  UNL1        0.2248
     21 N         -25.6688   -4.4496  -17.5479 N.ar    1  UNL1       -0.2101
     22 C         -26.6488   -3.6118  -17.1201 C.ar    1  UNL1        0.1021
     23 C         -27.2526   -3.8141  -15.8794 C.ar    1  UNL1        0.0209
     24 C         -26.8392   -4.8869  -15.0802 C.ar    1  UNL1        0.0060
     25 C         -27.4334   -5.1169  -13.8317 C.ar    1  UNL1        0.0003
     26 C         -27.0144   -6.1885  -13.0401 C.ar    1  UNL1        0.0045
     27 C         -25.9888   -7.0411  -13.4783 C.ar    1  UNL1        0.0537
     28 C         -25.4038   -6.8253  -14.7370 C.ar    1  UNL1        0.0092
     29 C         -25.8165   -5.7484  -15.5408 C.ar    1  UNL1        0.0534
     30 C         -24.2725   -6.9539  -18.5663 C.3     1  UNL1        0.2542
     31 O         -24.2228   -6.3408  -17.2837 O.3     1  UNL1       -0.4561
     32 C         -19.4536   -8.6740   -7.3518 C.3     1  UNL1        0.0871
     33 C         -20.5493   -8.6724   -6.2675 C.3     1  UNL1        0.0244
     34 C         -18.3410   -9.6485   -6.8947 C.3     1  UNL1        0.0244
     35 C         -18.8256   -7.2734   -7.4888 C.3     1  UNL1        0.0244
@<TRIPOS>BOND
     1    30    31    1
     2    31    20    1
     3    20    21   ar
     4    21    22   ar
     5    22    23   ar
     6    23    24   ar
     7    24    25   ar
     8    25    26   ar
     9    26    27   ar
    10    27     1    1
    11     1     2    2
    12     1     3   am
    13     3     4    1
    14     4     5    1
    15     5     6    1
    16     6     7    1
    17     7     8    1
    18     6     9    1
    19     9    10    1
    20    10    11   ar
    21    11    12   ar
    22    12    13   ar
    23    13    32    1
    24    32    33    1
    25    32    34    1
    26    32    35    1
    27    13    14   ar
    28    14    15    1
    29    11    16    1
    30    16    17    2
    31    16    18   am
    32    27    28   ar
    33    28    29   ar
    34    29    20   ar
    35    29    24   ar
    36     8     3    1
    37    14    10   ar
    38    18     6    1
    39    18    19    1
@<TRIPOS>MOLECULE
*****
 35 39 0 0 0
SMALL
GASTEIGER

@<TRIPOS>ATOM
      1 C         -20.2869   -8.6365  -10.6657 C.2     1  UNL1        0.2490
      2 O         -20.6574   -7.4673  -10.9609 O.2     1  UNL1       -0.2699
      3 N         -20.4439   -9.6969  -11.6306 N.am    1  UNL1       -0.2760
      4 C         -20.8598  -11.0400  -11.1951 C.3     1  UNL1        0.0954
      5 C         -21.7432  -11.7228  -12.2557 C.3     1  UNL1        0.0399
      6 C         -22.6953  -10.7152  -12.9543 C.3     1  UNL1        0.0645
      7 C         -21.8671   -9.5829  -13.6480 C.3     1  UNL1        0.0399
      8 C         -20.4552   -9.3934  -13.0652 C.3     1  UNL1        0.0954
      9 C         -23.6675  -10.0940  -11.8851 C.3     1  UNL1        0.0481
     10 C         -24.8596   -9.4606  -12.5395 C.ar    1  UNL1        0.0259
     11 C         -25.3676   -9.8875  -13.7225 C.ar    1  UNL1        0.1519
     12 N         -26.5133   -9.2493  -14.0038 N.ar    1  UNL1       -0.1647
     13 N         -26.7584   -8.4089  -13.0003 N.ar    1  UNL1       -0.2494
     14 C         -25.7626   -8.5297  -12.0714 C.ar    1  UNL1        0.1047
     15 I         -25.5562   -7.5590  -10.1929 I       1  UNL1       -0.0219
     16 C         -24.7132  -10.9342  -14.4907 C.2     1  UNL1        0.2650
     17 O         -25.2304  -11.3975  -15.5412 O.2     1  UNL1       -0.2684
     18 N         -23.4632  -11.4392  -13.9965 N.am    1  UNL1       -0.3023
     19 H         -23.0096  -12.2234  -14.5185 H       1  UNL1        0.1497
     20 C         -17.2807  -11.1550   -7.6262 C.ar    1  UNL1        0.2248
     21 N         -16.7898  -11.3540   -6.3703 N.ar    1  UNL1       -0.2101
     22 C         -17.1874  -10.6041   -5.3098 C.ar    1  UNL1        0.1021
     23 C         -18.1280   -9.5888   -5.4816 C.ar    1  UNL1        0.0209
     24 C         -18.6578   -9.3508   -6.7557 C.ar    1  UNL1        0.0060
     25 C         -19.5998   -8.3327   -6.9578 C.ar    1  UNL1        0.0003
     26 C         -20.1243   -8.1026   -8.2315 C.ar    1  UNL1        0.0045
     27 C         -19.7240   -8.8918   -9.3213 C.ar    1  UNL1        0.0537
     28 C         -18.7661   -9.9007   -9.1267 C.ar    1  UNL1        0.0092
     29 C         -18.2333  -10.1421   -7.8484 C.ar    1  UNL1        0.0534
     30 C         -15.4680  -12.2436   -8.9208 C.3     1  UNL1        0.2542
     31 O         -16.8414  -11.9546   -8.6886 O.3     1  UNL1       -0.4561
     32 C         -27.9581   -7.5364  -12.9642 C.3     1  UNL1        0.0871
     33 C         -27.5427   -6.0623  -12.7895 C.3     1  UNL1        0.0244
     34 C         -28.7412   -7.6498  -14.2947 C.3     1  UNL1        0.0244
     35 C         -28.9000   -7.9719  -11.8249 C.3     1  UNL1        0.0244
@<TRIPOS>BOND
     1    30    31    1
     2    31    20    1
     3    20    21   ar
     4    21    22   ar
     5    22    23   ar
     6    23    24   ar
     7    24    25   ar
     8    25    26   ar
     9    26    27   ar
    10    27     1    1
    11     1     2    2
    12     1     3   am
    13     3     4    1
    14     4     5    1
    15     5     6    1
    16     6     7    1
    17     7     8    1
    18     6     9    1
    19     9    10    1
    20    10    11   ar
    21    11    12   ar
    22    12    13   ar
    23    13    32    1
    24    32    33    1
    25    32    34    1
    26    32    35    1
    27    13    14   ar
    28    14    15    1
    29    11    16    1
    30    16    17    2
    31    16    18   am
    32    27    28   ar
    33    28    29   ar
    34    29    20   ar
    35    29    24   ar
    36     8     3    1
    37    14    10   ar
    38    18     6    1
    39    18    19    1
