@<TRIPOS>MOLECULE
*****
 46 51 0 0 0
SMALL
GASTEIGER

@<TRIPOS>ATOM
      1 C          60.3539   86.1693   12.8191 C.ar    1  UNL1        0.0702
      2 C          59.2622   85.4968   13.3813 C.ar    1  UNL1        0.0191
      3 C          58.5519   84.5581   12.6321 C.ar    1  UNL1        0.0356
      4 C          58.9553   84.2728   11.3182 C.ar    1  UNL1        0.1318
      5 N          60.0240   84.9336   10.7931 N.ar    1  UNL1       -0.2279
      6 C          60.7280   85.8549   11.5025 C.ar    1  UNL1        0.1149
      7 N          58.2336   83.3289   10.5049 N.pl3   1  UNL1       -0.2932
      8 C          58.4031   81.8912   10.7577 C.3     1  UNL1        0.0923
      9 C          57.8344   81.0462    9.6056 C.3     1  UNL1        0.0252
     10 C          58.1533   81.6723    8.2291 C.3     1  UNL1        0.0472
     11 C          57.6343   83.1369    8.1200 C.3     1  UNL1        0.0252
     12 C          57.2801   83.7652    9.4763 C.3     1  UNL1        0.0923
     13 C          59.6590   81.5827    7.9176 C.3     1  UNL1        0.2054
     14 O          60.1571   82.8723    7.5668 O.3     1  UNL1       -0.4755
     15 C          61.2892   83.4689    8.1411 C.ar    1  UNL1        0.1388
     16 C          61.7818   84.7164    7.7157 C.ar    1  UNL1        0.0369
     17 C          62.9142   85.2666    8.3196 C.ar    1  UNL1        0.0033
     18 C          63.5650   84.5833    9.3493 C.ar    1  UNL1        0.0066
     19 C          63.0868   83.3360    9.7878 C.ar    1  UNL1        0.0785
     20 C          61.9456   82.7888    9.1745 C.ar    1  UNL1        0.0433
     21 C          63.7714   82.6067   10.8781 C.2     1  UNL1        0.3381
     22 O          63.1440   81.7638   11.5752 O.2     1  UNL1       -0.2451
     23 O          65.1173   82.8447   11.1451 O.3     1  UNL1       -0.4771
     24 H          65.5954   82.3509   11.8893 H       1  UNL1        0.2954
     25 C          61.1521   88.5238   13.3219 C.2     1  UNL1        0.2839
     26 O          60.2421   89.0710   12.6431 O.2     1  UNL1       -0.2665
     27 N          61.0897   87.1185   13.6097 N.am    1  UNL1       -0.2766
     28 H          61.5297   86.7842   14.4969 H       1  UNL1        0.1553
     29 C          65.2668   91.2943   14.2805 C.ar    1  UNL1       -0.0194
     30 C          65.6502   91.8790   15.5268 C.ar    1  UNL1       -0.0038
     31 C          64.8360   91.7227   16.6707 C.ar    1  UNL1        0.0028
     32 C          63.6489   90.9882   16.6113 C.ar    1  UNL1        0.0375
     33 C          63.2824   90.4313   15.3951 C.ar    1  UNL1        0.1449
     34 O          62.2094   89.7180   15.1693 O.2     1  UNL1       -0.4492
     35 C          62.2104   89.3694   13.9014 C.ar    1  UNL1        0.1946
     36 C          63.3273   89.9107   13.2533 C.ar    1  UNL1        0.0199
     37 C          63.6237   89.8237   11.7830 C.3     1  UNL1        0.0345
     38 C          64.0410   90.5802   14.2535 C.ar    1  UNL1        0.0297
     39 C          66.8930   92.6618   15.6755 C.ar    1  UNL1       -0.0003
     40 C          68.0104   92.0937   16.3062 C.ar    1  UNL1       -0.0000
     41 C          69.1943   92.8273   16.4310 C.ar    1  UNL1       -0.0000
     42 C          69.2713   94.1254   15.9173 C.ar    1  UNL1       -0.0000
     43 C          68.1657   94.6902   15.2746 C.ar    1  UNL1       -0.0000
     44 C          66.9802   93.9597   15.1481 C.ar    1  UNL1       -0.0000
     45 C          65.6377   92.6700   12.2163 C.3     1  UNL1        0.0050
     46 C          66.1237   91.4835   13.0458 C.3     1  UNL1        0.0265
@<TRIPOS>BOND
     1    45    46    1
     2    46    29    1
     3    29    30   ar
     4    30    39    1
     5    39    40   ar
     6    40    41   ar
     7    41    42   ar
     8    42    43   ar
     9    43    44   ar
    10    30    31   ar
    11    31    32   ar
    12    32    33   ar
    13    33    34   ar
    14    34    35   ar
    15    35    25    1
    16    25    26    2
    17    25    27   am
    18    27     1    1
    19     1     2   ar
    20     2     3   ar
    21     3     4   ar
    22     4     7    1
    23     7     8    1
    24     8     9    1
    25     9    10    1
    26    10    13    1
    27    13    14    1
    28    14    15    1
    29    15    16   ar
    30    16    17   ar
    31    17    18   ar
    32    18    19   ar
    33    19    21    1
    34    21    22    2
    35    21    23    1
    36    19    20   ar
    37    10    11    1
    38    11    12    1
    39     4     5   ar
    40     5     6   ar
    41    35    36   ar
    42    36    37    1
    43    36    38   ar
    44    38    29   ar
    45    44    39   ar
    46    38    33   ar
    47     6     1   ar
    48    12     7    1
    49    20    15   ar
    50    27    28    1
    51    23    24    1
@<TRIPOS>MOLECULE
*****
 46 51 0 0 0
SMALL
GASTEIGER

@<TRIPOS>ATOM
      1 C          60.4435   86.4169   12.8074 C.ar    1  UNL1        0.0702
      2 C          59.0656   86.5963   12.6361 C.ar    1  UNL1        0.0191
      3 C          58.3260   85.6866   11.8795 C.ar    1  UNL1        0.0356
      4 C          58.9682   84.5747   11.3123 C.ar    1  UNL1        0.1318
      5 N          60.3081   84.4157   11.4970 N.ar    1  UNL1       -0.2279
      6 C          61.0494   85.2912   12.2261 C.ar    1  UNL1        0.1149
      7 N          58.2446   83.6272   10.5049 N.pl3   1  UNL1       -0.2932
      8 C          58.5581   82.1968   10.6281 C.3     1  UNL1        0.0923
      9 C          57.9420   81.3843    9.4769 C.3     1  UNL1        0.0252
     10 C          58.0602   82.1287    8.1278 C.3     1  UNL1        0.0472
     11 C          57.4134   83.5447    8.1842 C.3     1  UNL1        0.0252
     12 C          57.1546   84.0448    9.6133 C.3     1  UNL1        0.0923
     13 C          59.5266   82.1965    7.6615 C.3     1  UNL1        0.2054
     14 O          59.8051   83.4906    7.1305 O.3     1  UNL1       -0.4755
     15 C          60.6213   84.4455    7.7545 C.ar    1  UNL1        0.1388
     16 C          61.9365   84.1603    8.1655 C.ar    1  UNL1        0.0369
     17 C          62.7076   85.1463    8.7842 C.ar    1  UNL1        0.0033
     18 C          62.1795   86.4213    8.9990 C.ar    1  UNL1        0.0066
     19 C          60.8676   86.7245    8.5946 C.ar    1  UNL1        0.0785
     20 C          60.0975   85.7259    7.9721 C.ar    1  UNL1        0.0433
     21 C          60.3017   88.0732    8.8191 C.2     1  UNL1        0.3381
     22 O          59.7396   88.6950    7.8772 O.2     1  UNL1       -0.2451
     23 O          60.3849   88.6693   10.0750 O.3     1  UNL1       -0.4771
     24 H          60.0008   89.5922   10.2394 H       1  UNL1        0.2954
     25 C          61.3080   88.7491   13.3046 C.2     1  UNL1        0.2839
     26 O          60.4366   89.3182   12.5939 O.2     1  UNL1       -0.2665
     27 N          61.1893   87.3506   13.6072 N.am    1  UNL1       -0.2766
     28 H          61.5927   87.0128   14.5103 H       1  UNL1        0.1553
     29 C          65.4818   91.4003   14.3417 C.ar    1  UNL1       -0.0194
     30 C          65.8554   91.9791   15.5937 C.ar    1  UNL1       -0.0038
     31 C          65.0123   91.8525   16.7202 C.ar    1  UNL1        0.0028
     32 C          63.8052   91.1534   16.6378 C.ar    1  UNL1        0.0375
     33 C          63.4488   90.6020   15.4162 C.ar    1  UNL1        0.1449
     34 O          62.3602   89.9200   15.1699 O.2     1  UNL1       -0.4492
     35 C          62.3783   89.5655   13.9037 C.ar    1  UNL1        0.1946
     36 C          63.5246   90.0703   13.2780 C.ar    1  UNL1        0.0199
     37 C          63.8502   89.9676   11.8148 C.3     1  UNL1        0.0345
     38 C          64.2361   90.7229   14.2908 C.ar    1  UNL1        0.0297
     39 C          67.1175   92.7252   15.7664 C.ar    1  UNL1       -0.0003
     40 C          68.2627   92.0688   16.2428 C.ar    1  UNL1       -0.0000
     41 C          69.4637   92.7699   16.3889 C.ar    1  UNL1       -0.0000
     42 C          69.5295   94.1247   16.0499 C.ar    1  UNL1       -0.0000
     43 C          68.3955   94.7794   15.5604 C.ar    1  UNL1       -0.0000
     44 C          67.1927   94.0816   15.4131 C.ar    1  UNL1       -0.0000
     45 C          65.9875   92.7992   12.3222 C.3     1  UNL1        0.0050
     46 C          66.3706   91.5581   13.1252 C.3     1  UNL1        0.0265
@<TRIPOS>BOND
     1    45    46    1
     2    46    29    1
     3    29    30   ar
     4    30    39    1
     5    39    40   ar
     6    40    41   ar
     7    41    42   ar
     8    42    43   ar
     9    43    44   ar
    10    30    31   ar
    11    31    32   ar
    12    32    33   ar
    13    33    34   ar
    14    34    35   ar
    15    35    25    1
    16    25    26    2
    17    25    27   am
    18    27     1    1
    19     1     2   ar
    20     2     3   ar
    21     3     4   ar
    22     4     7    1
    23     7     8    1
    24     8     9    1
    25     9    10    1
    26    10    13    1
    27    13    14    1
    28    14    15    1
    29    15    16   ar
    30    16    17   ar
    31    17    18   ar
    32    18    19   ar
    33    19    21    1
    34    21    22    2
    35    21    23    1
    36    19    20   ar
    37    10    11    1
    38    11    12    1
    39     4     5   ar
    40     5     6   ar
    41    35    36   ar
    42    36    37    1
    43    36    38   ar
    44    38    29   ar
    45    44    39   ar
    46    38    33   ar
    47     6     1   ar
    48    12     7    1
    49    20    15   ar
    50    27    28    1
    51    23    24    1
@<TRIPOS>MOLECULE
*****
 46 51 0 0 0
SMALL
GASTEIGER

@<TRIPOS>ATOM
      1 C          60.6798   86.8386   11.4528 C.ar    1  UNL1        0.0702
      2 C          59.7199   87.0825   10.4632 C.ar    1  UNL1        0.0191
      3 C          58.9314   86.0398    9.9752 C.ar    1  UNL1        0.0356
      4 C          59.0886   84.7482   10.5020 C.ar    1  UNL1        0.1318
      5 N          60.0236   84.5344   11.4689 N.ar    1  UNL1       -0.2279
      6 C          60.8058   85.5336   11.9560 C.ar    1  UNL1        0.1149
      7 N          58.3114   83.6415   10.0077 N.pl3   1  UNL1       -0.2932
      8 C          58.5272   82.3049   10.5790 C.3     1  UNL1        0.0923
      9 C          57.8697   81.2124    9.7194 C.3     1  UNL1        0.0252
     10 C          58.0510   81.4897    8.2099 C.3     1  UNL1        0.0472
     11 C          57.4999   82.8888    7.8035 C.3     1  UNL1        0.0252
     12 C          57.2608   83.8249    8.9977 C.3     1  UNL1        0.0923
     13 C          59.5232   81.3196    7.7905 C.3     1  UNL1        0.2054
     14 O          60.0002   82.5281    7.2020 O.3     1  UNL1       -0.4755
     15 C          60.9624   83.3675    7.7825 C.ar    1  UNL1        0.1388
     16 C          61.1404   84.7033    7.3777 C.ar    1  UNL1        0.0369
     17 C          62.1142   85.4973    7.9869 C.ar    1  UNL1        0.0033
     18 C          62.9173   84.9716    9.0014 C.ar    1  UNL1        0.0066
     19 C          62.7535   83.6392    9.4192 C.ar    1  UNL1        0.0785
     20 C          61.7704   82.8462    8.8007 C.ar    1  UNL1        0.0433
     21 C          63.6010   83.0759   10.4933 C.2     1  UNL1        0.3381
     22 O          63.1851   83.0410   11.6831 O.2     1  UNL1       -0.2451
     23 O          64.8681   82.5781   10.1996 O.3     1  UNL1       -0.4771
     24 H          65.4563   82.1903   10.9276 H       1  UNL1        0.2954
     25 C          62.0389   88.9571   11.1390 C.2     1  UNL1        0.2839
     26 O          61.5341   89.2186   10.0143 O.2     1  UNL1       -0.2665
     27 N          61.4706   87.9265   11.9615 N.am    1  UNL1       -0.2766
     28 H          61.5615   88.0263   12.9979 H       1  UNL1        0.1553
     29 C          65.5983   91.3250   13.8315 C.ar    1  UNL1       -0.0194
     30 C          66.4539   92.3850   13.3995 C.ar    1  UNL1       -0.0038
     31 C          66.3686   92.8800   12.0791 C.ar    1  UNL1        0.0028
     32 C          65.4434   92.3535   11.1740 C.ar    1  UNL1        0.0375
     33 C          64.6230   91.3201   11.6013 C.ar    1  UNL1        0.1449
     34 O          63.7081   90.7196   10.8848 O.2     1  UNL1       -0.4492
     35 C          63.1430   89.7981   11.6336 C.ar    1  UNL1        0.1946
     36 C          63.7420   89.7708   12.8989 C.ar    1  UNL1        0.0199
     37 C          63.4446   88.7884   13.9961 C.3     1  UNL1        0.0345
     38 C          64.6921   90.7977   12.8754 C.ar    1  UNL1        0.0297
     39 C          67.4513   93.0015   14.2963 C.ar    1  UNL1       -0.0003
     40 C          67.1068   94.1235   15.0655 C.ar    1  UNL1       -0.0000
     41 C          68.0448   94.6970   15.9295 C.ar    1  UNL1       -0.0000
     42 C          69.3256   94.1469   16.0376 C.ar    1  UNL1       -0.0000
     43 C          69.6689   93.0200   15.2850 C.ar    1  UNL1       -0.0000
     44 C          68.7336   92.4438   14.4199 C.ar    1  UNL1       -0.0000
     45 C          64.7286   91.4734   16.1794 C.3     1  UNL1        0.0050
     46 C          65.7065   90.7735   15.2381 C.3     1  UNL1        0.0265
@<TRIPOS>BOND
     1    45    46    1
     2    46    29    1
     3    29    30   ar
     4    30    39    1
     5    39    40   ar
     6    40    41   ar
     7    41    42   ar
     8    42    43   ar
     9    43    44   ar
    10    30    31   ar
    11    31    32   ar
    12    32    33   ar
    13    33    34   ar
    14    34    35   ar
    15    35    25    1
    16    25    26    2
    17    25    27   am
    18    27     1    1
    19     1     2   ar
    20     2     3   ar
    21     3     4   ar
    22     4     7    1
    23     7     8    1
    24     8     9    1
    25     9    10    1
    26    10    13    1
    27    13    14    1
    28    14    15    1
    29    15    16   ar
    30    16    17   ar
    31    17    18   ar
    32    18    19   ar
    33    19    21    1
    34    21    22    2
    35    21    23    1
    36    19    20   ar
    37    10    11    1
    38    11    12    1
    39     4     5   ar
    40     5     6   ar
    41    35    36   ar
    42    36    37    1
    43    36    38   ar
    44    38    29   ar
    45    44    39   ar
    46    38    33   ar
    47     6     1   ar
    48    12     7    1
    49    20    15   ar
    50    27    28    1
    51    23    24    1
