@<TRIPOS>MOLECULE
*****
 36 40 0 0 0
SMALL
GASTEIGER

@<TRIPOS>ATOM
      1 N          47.6245   14.0689  -25.3318 N.3     1  UNL1       -0.2679
      2 C          46.2660   13.7269  -25.8931 C.3     1  UNL1        0.0978
      3 C          45.4281   15.0109  -26.0673 C.3     1  UNL1        0.0224
      4 C          45.9537   15.8366  -27.2477 C.3     1  UNL1        0.0065
      5 C          45.7546   15.0795  -28.5603 C.3     1  UNL1        0.0277
      6 C          46.1596   13.6297  -28.4643 C.ar    1  UNL1       -0.0073
      7 C          46.2585   12.8747  -29.6409 C.ar    1  UNL1       -0.0015
      8 C          46.4609   11.4970  -29.5764 C.ar    1  UNL1        0.0203
      9 C          46.5401   10.8761  -28.3312 C.ar    1  UNL1        0.0985
     10 N          46.4489   11.6152  -27.1953 N.ar    1  UNL1       -0.2471
     11 C          46.2778   12.9681  -27.2181 C.ar    1  UNL1        0.0695
     12 C          47.5567   14.0928  -23.8335 C.3     1  UNL1        0.0886
     13 C          48.9373   18.9293  -26.7943 C.ar    1  UNL1       -0.0003
     14 C          50.0108   18.0318  -26.7654 C.ar    1  UNL1       -0.0003
     15 C          50.1051   17.0829  -25.7419 C.ar    1  UNL1       -0.0045
     16 C          49.1100   17.0196  -24.7558 C.ar    1  UNL1       -0.0234
     17 C          48.0430   17.9211  -24.7809 C.ar    1  UNL1       -0.0103
     18 C          47.9540   18.8795  -25.8002 C.ar    1  UNL1       -0.0032
     19 C          47.0194   17.8064  -23.6897 C.3     1  UNL1        0.0953
     20 N          46.6613   16.3935  -23.4958 N.3     1  UNL1       -0.2934
     21 C          47.8127   15.4907  -23.1979 C.3     1  UNL1        0.0748
     22 C          49.2021   16.0791  -23.5911 C.3     1  UNL1        0.0432
     23 H          46.1567   16.0833  -24.3604 H       1  UNL1        0.1236
     24 C          48.7038   13.1469  -25.7980 C.3     1  UNL1        0.0725
     25 C          49.3564   12.3322  -24.6691 C.3     1  UNL1        0.0188
     26 C          49.5596   10.8428  -25.0095 C.3     1  UNL1        0.0185
     27 C          50.9007   10.2916  -24.5099 C.3     1  UNL1        0.0686
     28 N          50.8602   10.1327  -23.0508 N.3     1  UNL1       -0.2975
     29 H          51.8143    9.8908  -22.6982 H       1  UNL1        0.1232
     30 C          49.8777    9.1208  -22.6220 C.3     1  UNL1        0.0685
     31 C          49.1757    9.4570  -21.2778 C.3     1  UNL1        0.0158
     32 C          49.7193   10.7790  -20.6664 C.3     1  UNL1        0.0014
     33 C          48.6842   11.4617  -19.7664 C.3     1  UNL1        0.0000
     34 C          47.4217   11.8559  -20.5573 C.3     1  UNL1        0.0000
     35 C          47.1132   10.9040  -21.7304 C.3     1  UNL1        0.0000
     36 C          47.6324    9.4871  -21.4607 C.3     1  UNL1        0.0014
@<TRIPOS>BOND
     1    13    14   ar
     2    14    15   ar
     3    15    16   ar
     4    16    17   ar
     5    17    18   ar
     6    17    19    1
     7    19    20    1
     8    20    21    1
     9    21    12    1
    10    12     1    1
    11     1    24    1
    12    24    25    1
    13    25    26    1
    14    26    27    1
    15    27    28    1
    16    28    30    1
    17    30    31    1
    18    31    32    1
    19    32    33    1
    20    33    34    1
    21    34    35    1
    22    35    36    1
    23     1     2    1
    24     2     3    1
    25     3     4    1
    26     4     5    1
    27     5     6    1
    28     6     7   ar
    29     7     8   ar
    30     8     9   ar
    31     9    10   ar
    32    10    11   ar
    33    21    22    1
    34    18    13   ar
    35    36    31    1
    36    11     2    1
    37    22    16    1
    38    11     6   ar
    39    20    23    1
    40    28    29    1
@<TRIPOS>MOLECULE
*****
 36 40 0 0 0
SMALL
GASTEIGER

@<TRIPOS>ATOM
      1 N          48.0743   12.6404  -25.5864 N.3     1  UNL1       -0.2679
      2 C          46.6672   12.4113  -26.0818 C.3     1  UNL1        0.0978
      3 C          45.8106   13.6720  -25.8405 C.3     1  UNL1        0.0224
      4 C          46.2103   14.7851  -26.8165 C.3     1  UNL1        0.0065
      5 C          45.8821   14.3795  -28.2531 C.3     1  UNL1        0.0277
      6 C          46.3008   12.9655  -28.5698 C.ar    1  UNL1       -0.0073
      7 C          46.2828   12.5365  -29.9039 C.ar    1  UNL1       -0.0015
      8 C          46.4965   11.1940  -30.2129 C.ar    1  UNL1        0.0203
      9 C          46.7042   10.2806  -29.1810 C.ar    1  UNL1        0.0985
     10 N          46.7257   10.7048  -27.8908 N.ar    1  UNL1       -0.2471
     11 C          46.5476   12.0136  -27.5512 C.ar    1  UNL1        0.0695
     12 C          48.1120   12.4877  -24.0947 C.3     1  UNL1        0.0886
     13 C          48.9460   17.7672  -26.4388 C.ar    1  UNL1       -0.0003
     14 C          49.9052   16.8557  -26.8947 C.ar    1  UNL1       -0.0003
     15 C          50.2193   15.7266  -26.1309 C.ar    1  UNL1       -0.0045
     16 C          49.5557   15.4993  -24.9166 C.ar    1  UNL1       -0.0234
     17 C          48.6041   16.4139  -24.4585 C.ar    1  UNL1       -0.0103
     18 C          48.2970   17.5515  -25.2183 C.ar    1  UNL1       -0.0032
     19 C          47.9399   16.1169  -23.1461 C.3     1  UNL1        0.0953
     20 N          47.5425   14.7019  -23.1036 N.3     1  UNL1       -0.2934
     21 C          48.6544   13.7318  -23.3319 C.3     1  UNL1        0.0748
     22 C          49.9097   14.3516  -24.0184 C.3     1  UNL1        0.0432
     23 H          46.7832   14.5748  -23.8147 H       1  UNL1        0.1236
     24 C          49.0802   11.7465  -26.2354 C.3     1  UNL1        0.0725
     25 C          49.6877   10.7010  -25.2856 C.3     1  UNL1        0.0188
     26 C          50.7499    9.7996  -25.9447 C.3     1  UNL1        0.0185
     27 C          50.5678    9.6701  -27.4621 C.3     1  UNL1        0.0686
     28 N          49.3910    8.8416  -27.7525 N.3     1  UNL1       -0.2975
     29 H          48.9673    8.5086  -26.8565 H       1  UNL1        0.1232
     30 C          49.7086    7.7008  -28.6306 C.3     1  UNL1        0.0685
     31 C          50.1026    8.1113  -30.0759 C.3     1  UNL1        0.0158
     32 C          51.4653    7.4900  -30.4931 C.3     1  UNL1        0.0014
     33 C          51.5742    7.3159  -32.0114 C.3     1  UNL1        0.0000
     34 C          50.4956    6.3547  -32.5478 C.3     1  UNL1        0.0000
     35 C          49.1874    6.3878  -31.7324 C.3     1  UNL1        0.0000
     36 C          48.9656    7.7541  -31.0738 C.3     1  UNL1        0.0014
@<TRIPOS>BOND
     1    13    14   ar
     2    14    15   ar
     3    15    16   ar
     4    16    17   ar
     5    17    18   ar
     6    17    19    1
     7    19    20    1
     8    20    21    1
     9    21    12    1
    10    12     1    1
    11     1    24    1
    12    24    25    1
    13    25    26    1
    14    26    27    1
    15    27    28    1
    16    28    30    1
    17    30    31    1
    18    31    32    1
    19    32    33    1
    20    33    34    1
    21    34    35    1
    22    35    36    1
    23     1     2    1
    24     2     3    1
    25     3     4    1
    26     4     5    1
    27     5     6    1
    28     6     7   ar
    29     7     8   ar
    30     8     9   ar
    31     9    10   ar
    32    10    11   ar
    33    21    22    1
    34    18    13   ar
    35    36    31    1
    36    11     2    1
    37    22    16    1
    38    11     6   ar
    39    20    23    1
    40    28    29    1
@<TRIPOS>MOLECULE
*****
 36 40 0 0 0
SMALL
GASTEIGER

@<TRIPOS>ATOM
      1 N          48.2176   12.4150  -22.3994 N.3     1  UNL1       -0.2679
      2 C          47.5665   11.5666  -21.3345 C.3     1  UNL1        0.0978
      3 C          47.6650   10.0743  -21.7148 C.3     1  UNL1        0.0224
      4 C          49.1046    9.5735  -21.5471 C.3     1  UNL1        0.0065
      5 C          49.5159    9.6122  -20.0756 C.3     1  UNL1        0.0277
      6 C          49.1216   10.8985  -19.3937 C.ar    1  UNL1       -0.0073
      7 C          49.6377   11.1759  -18.1205 C.ar    1  UNL1       -0.0015
      8 C          49.1628   12.2657  -17.3924 C.ar    1  UNL1        0.0203
      9 C          48.1543   13.0610  -17.9333 C.ar    1  UNL1        0.0985
     10 N          47.6630   12.7892  -19.1702 N.ar    1  UNL1       -0.2471
     11 C          48.1209   11.7485  -19.9234 C.ar    1  UNL1        0.0695
     12 C          47.1788   13.2663  -23.0673 C.3     1  UNL1        0.0886
     13 C          46.0043   15.2838  -28.4165 C.ar    1  UNL1       -0.0003
     14 C          45.2912   15.9920  -27.4425 C.ar    1  UNL1       -0.0003
     15 C          45.0161   15.4001  -26.2052 C.ar    1  UNL1       -0.0045
     16 C          45.4745   14.1026  -25.9353 C.ar    1  UNL1       -0.0234
     17 C          46.1794   13.3936  -26.9111 C.ar    1  UNL1       -0.0103
     18 C          46.4457   13.9821  -28.1554 C.ar    1  UNL1       -0.0032
     19 C          46.6310   12.0059  -26.5619 C.3     1  UNL1        0.0953
     20 N          47.2212   12.0036  -25.2151 N.3     1  UNL1       -0.2934
     21 C          46.3271   12.5240  -24.1384 C.3     1  UNL1        0.0748
     22 C          45.1389   13.3889  -24.6596 C.3     1  UNL1        0.0432
     23 H          48.1073   12.5607  -25.2673 H       1  UNL1        0.1236
     24 C          49.3370   13.2568  -21.8793 C.3     1  UNL1        0.0725
     25 C          50.7127   12.8899  -22.4598 C.3     1  UNL1        0.0188
     26 C          51.1013   13.7035  -23.7097 C.3     1  UNL1        0.0185
     27 C          50.6476   13.0448  -25.0183 C.3     1  UNL1        0.0686
     28 N          49.6157   13.8701  -25.6584 N.3     1  UNL1       -0.2975
     29 H          49.5436   13.6181  -26.6706 H       1  UNL1        0.1232
     30 C          49.8716   15.3133  -25.5010 C.3     1  UNL1        0.0685
     31 C          48.6552   16.2098  -25.8607 C.3     1  UNL1        0.0158
     32 C          48.1101   16.9583  -24.6118 C.3     1  UNL1        0.0014
     33 C          47.4039   18.2643  -24.9901 C.3     1  UNL1        0.0000
     34 C          48.3693   19.2488  -25.6782 C.3     1  UNL1        0.0000
     35 C          49.4768   18.5503  -26.4926 C.3     1  UNL1        0.0000
     36 C          49.0181   17.1845  -27.0159 C.3     1  UNL1        0.0014
@<TRIPOS>BOND
     1    13    14   ar
     2    14    15   ar
     3    15    16   ar
     4    16    17   ar
     5    17    18   ar
     6    17    19    1
     7    19    20    1
     8    20    21    1
     9    21    12    1
    10    12     1    1
    11     1    24    1
    12    24    25    1
    13    25    26    1
    14    26    27    1
    15    27    28    1
    16    28    30    1
    17    30    31    1
    18    31    32    1
    19    32    33    1
    20    33    34    1
    21    34    35    1
    22    35    36    1
    23     1     2    1
    24     2     3    1
    25     3     4    1
    26     4     5    1
    27     5     6    1
    28     6     7   ar
    29     7     8   ar
    30     8     9   ar
    31     9    10   ar
    32    10    11   ar
    33    21    22    1
    34    18    13   ar
    35    36    31    1
    36    11     2    1
    37    22    16    1
    38    11     6   ar
    39    20    23    1
    40    28    29    1
@<TRIPOS>MOLECULE
*****
 36 40 0 0 0
SMALL
GASTEIGER

@<TRIPOS>ATOM
      1 N          47.8822   13.8482  -25.4865 N.3     1  UNL1       -0.2679
      2 C          46.4982   13.4666  -25.9520 C.3     1  UNL1        0.0978
      3 C          45.5935   14.7158  -25.9980 C.3     1  UNL1        0.0224
      4 C          45.9832   15.6153  -27.1771 C.3     1  UNL1        0.0065
      5 C          45.7098   14.9066  -28.5034 C.3     1  UNL1        0.0277
      6 C          46.1843   13.4749  -28.5079 C.ar    1  UNL1       -0.0073
      7 C          46.2187   12.7766  -29.7226 C.ar    1  UNL1       -0.0015
      8 C          46.4858   11.4085  -29.7390 C.ar    1  UNL1        0.0203
      9 C          46.6946   10.7392  -28.5345 C.ar    1  UNL1        0.0985
     10 N          46.6652   11.4237  -27.3617 N.ar    1  UNL1       -0.2471
     11 C          46.4338   12.7667  -27.3076 C.ar    1  UNL1        0.0695
     12 C          47.9470   13.7717  -23.9899 C.3     1  UNL1        0.0886
     13 C          48.9673   18.8476  -26.6840 C.ar    1  UNL1       -0.0003
     14 C          50.1022   18.0289  -26.7040 C.ar    1  UNL1       -0.0003
     15 C          50.2680   17.0351  -25.7334 C.ar    1  UNL1       -0.0045
     16 C          49.2839   16.8476  -24.7521 C.ar    1  UNL1       -0.0234
     17 C          48.1552   17.6706  -24.7282 C.ar    1  UNL1       -0.0103
     18 C          47.9940   18.6740  -25.6940 C.ar    1  UNL1       -0.0032
     19 C          47.1467   17.4243  -23.6447 C.3     1  UNL1        0.0953
     20 N          46.8911   15.9810  -23.5278 N.3     1  UNL1       -0.2934
     21 C          48.1051   15.1479  -23.2793 C.3     1  UNL1        0.0748
     22 C          49.4474   15.8545  -23.6401 C.3     1  UNL1        0.0432
     23 H          46.4064   15.6828  -24.4078 H       1  UNL1        0.1236
     24 C          48.9611   13.0208  -26.1057 C.3     1  UNL1        0.0725
     25 C          49.9777   12.4662  -25.0942 C.3     1  UNL1        0.0188
     26 C          51.4400   12.8365  -25.4100 C.3     1  UNL1        0.0185
     27 C          52.3731   11.6197  -25.4399 C.3     1  UNL1        0.0686
     28 N          53.1881   11.6483  -26.6609 N.3     1  UNL1       -0.2975
     29 H          53.5368   12.6199  -26.8266 H       1  UNL1        0.1232
     30 C          52.4535   11.1536  -27.8394 C.3     1  UNL1        0.0685
     31 C          51.9752    9.6816  -27.7092 C.3     1  UNL1        0.0158
     32 C          50.4321    9.5686  -27.8613 C.3     1  UNL1        0.0014
     33 C          50.0071    8.1897  -28.3767 C.3     1  UNL1        0.0000
     34 C          50.5863    7.9076  -29.7766 C.3     1  UNL1        0.0000
     35 C          51.9500    8.5843  -30.0216 C.3     1  UNL1        0.0000
     36 C          52.7316    8.7707  -28.7163 C.3     1  UNL1        0.0014
@<TRIPOS>BOND
     1    13    14   ar
     2    14    15   ar
     3    15    16   ar
     4    16    17   ar
     5    17    18   ar
     6    17    19    1
     7    19    20    1
     8    20    21    1
     9    21    12    1
    10    12     1    1
    11     1    24    1
    12    24    25    1
    13    25    26    1
    14    26    27    1
    15    27    28    1
    16    28    30    1
    17    30    31    1
    18    31    32    1
    19    32    33    1
    20    33    34    1
    21    34    35    1
    22    35    36    1
    23     1     2    1
    24     2     3    1
    25     3     4    1
    26     4     5    1
    27     5     6    1
    28     6     7   ar
    29     7     8   ar
    30     8     9   ar
    31     9    10   ar
    32    10    11   ar
    33    21    22    1
    34    18    13   ar
    35    36    31    1
    36    11     2    1
    37    22    16    1
    38    11     6   ar
    39    20    23    1
    40    28    29    1
@<TRIPOS>MOLECULE
*****
 36 40 0 0 0
SMALL
GASTEIGER

@<TRIPOS>ATOM
      1 N          48.6027   12.5958  -25.0334 N.3     1  UNL1       -0.2679
      2 C          49.9037   12.0258  -24.5233 C.3     1  UNL1        0.0978
      3 C          50.8967   13.1670  -24.2186 C.3     1  UNL1        0.0224
      4 C          50.4734   13.9204  -22.9518 C.3     1  UNL1        0.0065
      5 C          50.5675   13.0068  -21.7301 C.3     1  UNL1        0.0277
      6 C          49.9825   11.6389  -21.9786 C.ar    1  UNL1       -0.0073
      7 C          49.7821   10.7800  -20.8894 C.ar    1  UNL1       -0.0015
      8 C          49.4069    9.4540  -21.1004 C.ar    1  UNL1        0.0203
      9 C          49.2566    8.9863  -22.4046 C.ar    1  UNL1        0.0985
     10 N          49.4471    9.8262  -23.4550 N.ar    1  UNL1       -0.2471
     11 C          49.7883   11.1360  -23.2878 C.ar    1  UNL1        0.0695
     12 C          48.5197   12.4053  -26.5189 C.3     1  UNL1        0.0886
     13 C          46.0704   12.4185  -31.8166 C.ar    1  UNL1       -0.0003
     14 C          45.6698   13.5343  -31.0728 C.ar    1  UNL1       -0.0003
     15 C          45.7038   13.4951  -29.6749 C.ar    1  UNL1       -0.0045
     16 C          46.1600   12.3418  -29.0204 C.ar    1  UNL1       -0.0234
     17 C          46.5522   11.2257  -29.7636 C.ar    1  UNL1       -0.0103
     18 C          46.5077   11.2605  -31.1644 C.ar    1  UNL1       -0.0032
     19 C          47.0187   10.0204  -29.0010 C.3     1  UNL1        0.0953
     20 N          47.9413   10.4381  -27.9348 N.3     1  UNL1       -0.2934
     21 C          47.3850   11.4464  -26.9844 C.3     1  UNL1        0.0748
     22 C          46.1405   12.2139  -27.5262 C.3     1  UNL1        0.0432
     23 H          48.8060   10.8017  -28.4022 H       1  UNL1        0.1236
     24 C          47.4015   12.0185  -24.3580 C.3     1  UNL1        0.0725
     25 C          46.6077   13.0371  -23.5235 C.3     1  UNL1        0.0188
     26 C          46.2896   14.3464  -24.2716 C.3     1  UNL1        0.0185
     27 C          47.0350   15.5590  -23.7006 C.3     1  UNL1        0.0686
     28 N          47.1607   16.5961  -24.7323 N.3     1  UNL1       -0.2975
     29 H          46.3444   17.2470  -24.6759 H       1  UNL1        0.1232
     30 C          47.2786   16.0297  -26.0882 C.3     1  UNL1        0.0685
     31 C          48.3664   16.7125  -26.9618 C.3     1  UNL1        0.0158
     32 C          48.4456   18.2398  -26.6821 C.3     1  UNL1        0.0014
     33 C          49.8362   18.8063  -26.9872 C.3     1  UNL1        0.0000
     34 C          50.9156   18.1622  -26.0957 C.3     1  UNL1        0.0000
     35 C          50.5978   16.7042  -25.7076 C.3     1  UNL1        0.0000
     36 C          49.7398   16.0099  -26.7713 C.3     1  UNL1        0.0014
@<TRIPOS>BOND
     1    13    14   ar
     2    14    15   ar
     3    15    16   ar
     4    16    17   ar
     5    17    18   ar
     6    17    19    1
     7    19    20    1
     8    20    21    1
     9    21    12    1
    10    12     1    1
    11     1    24    1
    12    24    25    1
    13    25    26    1
    14    26    27    1
    15    27    28    1
    16    28    30    1
    17    30    31    1
    18    31    32    1
    19    32    33    1
    20    33    34    1
    21    34    35    1
    22    35    36    1
    23     1     2    1
    24     2     3    1
    25     3     4    1
    26     4     5    1
    27     5     6    1
    28     6     7   ar
    29     7     8   ar
    30     8     9   ar
    31     9    10   ar
    32    10    11   ar
    33    21    22    1
    34    18    13   ar
    35    36    31    1
    36    11     2    1
    37    22    16    1
    38    11     6   ar
    39    20    23    1
    40    28    29    1
@<TRIPOS>MOLECULE
*****
 36 40 0 0 0
SMALL
GASTEIGER

@<TRIPOS>ATOM
      1 N          47.7876   14.0021  -25.5116 N.3     1  UNL1       -0.2679
      2 C          46.4072   13.6348  -25.9987 C.3     1  UNL1        0.0978
      3 C          45.5293   14.8998  -26.1007 C.3     1  UNL1        0.0224
      4 C          45.9643   15.7578  -27.2950 C.3     1  UNL1        0.0065
      5 C          45.7069   15.0173  -28.6070 C.3     1  UNL1        0.0277
      6 C          46.1521   13.5769  -28.5605 C.ar    1  UNL1       -0.0073
      7 C          46.2000   12.8440  -29.7542 C.ar    1  UNL1       -0.0015
      8 C          46.4395   11.4710  -29.7261 C.ar    1  UNL1        0.0203
      9 C          46.6069   10.8321  -28.4990 C.ar    1  UNL1        0.0985
     10 N          46.5647   11.5500  -27.3466 N.ar    1  UNL1       -0.2471
     11 C          46.3595   12.8983  -27.3354 C.ar    1  UNL1        0.0695
     12 C          47.8232   13.9426  -24.0133 C.3     1  UNL1        0.0886
     13 C          48.9713   18.9689  -26.7486 C.ar    1  UNL1       -0.0003
     14 C          50.0928   18.1317  -26.7400 C.ar    1  UNL1       -0.0003
     15 C          50.2261   17.1470  -25.7553 C.ar    1  UNL1       -0.0045
     16 C          49.2229   16.9872  -24.7886 C.ar    1  UNL1       -0.0234
     17 C          48.1077   17.8286  -24.7932 C.ar    1  UNL1       -0.0103
     18 C          47.9790   18.8229  -25.7732 C.ar    1  UNL1       -0.0032
     19 C          47.0774   17.6116  -23.7241 C.3     1  UNL1        0.0953
     20 N          46.7962   16.1741  -23.5946 N.3     1  UNL1       -0.2934
     21 C          47.9921   15.3244  -23.3162 C.3     1  UNL1        0.0748
     22 C          49.3516   16.0048  -23.6626 C.3     1  UNL1        0.0432
     23 H          46.3214   15.8733  -24.4792 H       1  UNL1        0.1236
     24 C          48.8657   13.1518  -26.1006 C.3     1  UNL1        0.0725
     25 C          49.8659   12.6103  -25.0659 C.3     1  UNL1        0.0188
     26 C          51.3399   12.9017  -25.4088 C.3     1  UNL1        0.0185
     27 C          52.3231   12.2536  -24.4262 C.3     1  UNL1        0.0686
     28 N          51.8228   12.3997  -23.0536 N.3     1  UNL1       -0.2975
     29 H          50.7776   12.4239  -23.0625 H       1  UNL1        0.1232
     30 C          52.3628   13.5958  -22.3821 C.3     1  UNL1        0.0685
     31 C          51.5214   14.0660  -21.1641 C.3     1  UNL1        0.0158
     32 C          50.2394   13.2038  -20.9904 C.3     1  UNL1        0.0014
     33 C          49.7575   13.1808  -19.5362 C.3     1  UNL1        0.0000
     34 C          50.8114   12.5543  -18.6026 C.3     1  UNL1        0.0000
     35 C          52.2611   12.7903  -19.0718 C.3     1  UNL1        0.0000
     36 C          52.3911   14.0888  -19.8760 C.3     1  UNL1        0.0014
@<TRIPOS>BOND
     1    13    14   ar
     2    14    15   ar
     3    15    16   ar
     4    16    17   ar
     5    17    18   ar
     6    17    19    1
     7    19    20    1
     8    20    21    1
     9    21    12    1
    10    12     1    1
    11     1    24    1
    12    24    25    1
    13    25    26    1
    14    26    27    1
    15    27    28    1
    16    28    30    1
    17    30    31    1
    18    31    32    1
    19    32    33    1
    20    33    34    1
    21    34    35    1
    22    35    36    1
    23     1     2    1
    24     2     3    1
    25     3     4    1
    26     4     5    1
    27     5     6    1
    28     6     7   ar
    29     7     8   ar
    30     8     9   ar
    31     9    10   ar
    32    10    11   ar
    33    21    22    1
    34    18    13   ar
    35    36    31    1
    36    11     2    1
    37    22    16    1
    38    11     6   ar
    39    20    23    1
    40    28    29    1
@<TRIPOS>MOLECULE
*****
 36 40 0 0 0
SMALL
GASTEIGER

@<TRIPOS>ATOM
      1 N          47.4360   14.2095  -25.1851 N.3     1  UNL1       -0.2679
      2 C          46.1137   13.8620  -25.8241 C.3     1  UNL1        0.0978
      3 C          45.3240   15.1502  -26.1377 C.3     1  UNL1        0.0224
      4 C          45.9554   15.8892  -27.3237 C.3     1  UNL1        0.0065
      5 C          45.8330   15.0559  -28.5991 C.3     1  UNL1        0.0277
      6 C          46.1925   13.6067  -28.3854 C.ar    1  UNL1       -0.0073
      7 C          46.3574   12.7779  -29.5034 C.ar    1  UNL1       -0.0015
      8 C          46.5190   11.4028  -29.3405 C.ar    1  UNL1        0.0203
      9 C          46.4912   10.8594  -28.0575 C.ar    1  UNL1        0.0985
     10 N          46.3366   11.6697  -26.9785 N.ar    1  UNL1       -0.2471
     11 C          46.2025   13.0219  -27.0961 C.ar    1  UNL1        0.0695
     12 C          47.2375   14.4440  -23.7170 C.3     1  UNL1        0.0886
     13 C          49.5626   18.6305  -27.0534 C.ar    1  UNL1       -0.0003
     14 C          50.5146   17.6573  -26.7287 C.ar    1  UNL1       -0.0003
     15 C          50.3524   16.8717  -25.5826 C.ar    1  UNL1       -0.0045
     16 C          49.2227   17.0476  -24.7706 C.ar    1  UNL1       -0.0234
     17 C          48.2770   18.0247  -25.0912 C.ar    1  UNL1       -0.0103
     18 C          48.4448   18.8199  -26.2336 C.ar    1  UNL1       -0.0032
     19 C          47.0982   18.1686  -24.1740 C.3     1  UNL1        0.0953
     20 N          46.5618   16.8389  -23.8478 N.3     1  UNL1       -0.2934
     21 C          47.5503   15.8949  -23.2469 C.3     1  UNL1        0.0748
     22 C          49.0386   16.2920  -23.4881 C.3     1  UNL1        0.0432
     23 H          46.1582   16.4456  -24.7314 H       1  UNL1        0.1236
     24 C          48.4920   13.1786  -25.4183 C.3     1  UNL1        0.0725
     25 C          49.0518   12.5588  -24.1273 C.3     1  UNL1        0.0188
     26 C          48.5503   11.1277  -23.8520 C.3     1  UNL1        0.0185
     27 C          49.1973   10.4938  -22.6144 C.3     1  UNL1        0.0686
     28 N          50.5538   10.0371  -22.9415 N.3     1  UNL1       -0.2975
     29 H          51.1359   10.8531  -23.2390 H       1  UNL1        0.1232
     30 C          50.5602    8.9906  -23.9798 C.3     1  UNL1        0.0685
     31 C          51.6443    9.1968  -25.0729 C.3     1  UNL1        0.0158
     32 C          51.0156    9.6509  -26.4202 C.3     1  UNL1        0.0014
     33 C          52.0032   10.4570  -27.2701 C.3     1  UNL1        0.0000
     34 C          52.4372   11.7513  -26.5549 C.3     1  UNL1        0.0000
     35 C          52.4608   11.6222  -25.0186 C.3     1  UNL1        0.0000
     36 C          52.7398   10.1814  -24.5761 C.3     1  UNL1        0.0014
@<TRIPOS>BOND
     1    13    14   ar
     2    14    15   ar
     3    15    16   ar
     4    16    17   ar
     5    17    18   ar
     6    17    19    1
     7    19    20    1
     8    20    21    1
     9    21    12    1
    10    12     1    1
    11     1    24    1
    12    24    25    1
    13    25    26    1
    14    26    27    1
    15    27    28    1
    16    28    30    1
    17    30    31    1
    18    31    32    1
    19    32    33    1
    20    33    34    1
    21    34    35    1
    22    35    36    1
    23     1     2    1
    24     2     3    1
    25     3     4    1
    26     4     5    1
    27     5     6    1
    28     6     7   ar
    29     7     8   ar
    30     8     9   ar
    31     9    10   ar
    32    10    11   ar
    33    21    22    1
    34    18    13   ar
    35    36    31    1
    36    11     2    1
    37    22    16    1
    38    11     6   ar
    39    20    23    1
    40    28    29    1
@<TRIPOS>MOLECULE
*****
 36 40 0 0 0
SMALL
GASTEIGER

@<TRIPOS>ATOM
      1 N          47.4299   13.1930  -25.2303 N.3     1  UNL1       -0.2679
      2 C          46.1037   12.9982  -25.9237 C.3     1  UNL1        0.0978
      3 C          45.3118   14.3226  -25.9304 C.3     1  UNL1        0.0224
      4 C          45.9356   15.3138  -26.9204 C.3     1  UNL1        0.0065
      5 C          45.8054   14.7932  -28.3515 C.3     1  UNL1        0.0277
      6 C          46.1665   13.3340  -28.4761 C.ar    1  UNL1       -0.0073
      7 C          46.3246   12.7823  -29.7547 C.ar    1  UNL1       -0.0015
      8 C          46.4875   11.4066  -29.9108 C.ar    1  UNL1        0.0203
      9 C          46.4679   10.5847  -28.7854 C.ar    1  UNL1        0.0985
     10 N          46.3198   11.1274  -27.5490 N.ar    1  UNL1       -0.2471
     11 C          46.1847   12.4705  -27.3543 C.ar    1  UNL1        0.0695
     12 C          47.2315   14.0103  -23.9884 C.3     1  UNL1        0.0886
     13 C          52.4006   13.6388  -21.3040 C.ar    1  UNL1       -0.0003
     14 C          51.3488   13.5914  -20.3819 C.ar    1  UNL1       -0.0003
     15 C          50.1073   14.1498  -20.7040 C.ar    1  UNL1       -0.0045
     16 C          49.9128   14.7393  -21.9614 C.ar    1  UNL1       -0.0234
     17 C          50.9657   14.7932  -22.8782 C.ar    1  UNL1       -0.0103
     18 C          52.2134   14.2437  -22.5516 C.ar    1  UNL1       -0.0032
     19 C          50.6939   15.4482  -24.2006 C.3     1  UNL1        0.0953
     20 N          49.4059   14.9755  -24.7296 N.3     1  UNL1       -0.2934
     21 C          48.2405   15.1838  -23.8198 C.3     1  UNL1        0.0748
     22 C          48.6308   15.4251  -22.3296 C.3     1  UNL1        0.0432
     23 H          49.5232   13.9600  -24.9608 H       1  UNL1        0.1236
     24 C          48.1231   11.9080  -24.9129 C.3     1  UNL1        0.0725
     25 C          49.4999   11.7624  -25.5818 C.3     1  UNL1        0.0188
     26 C          50.2752   10.5025  -25.1494 C.3     1  UNL1        0.0185
     27 C          51.3131   10.7836  -24.0558 C.3     1  UNL1        0.0686
     28 N          50.6749   10.7145  -22.7353 N.3     1  UNL1       -0.2975
     29 H          51.4003   10.8197  -21.9897 H       1  UNL1        0.1232
     30 C          49.9122    9.4676  -22.5435 C.3     1  UNL1        0.0685
     31 C          49.0685    9.4416  -21.2396 C.3     1  UNL1        0.0158
     32 C          49.6785   10.3654  -20.1480 C.3     1  UNL1        0.0014
     33 C          48.6167   10.8671  -19.1639 C.3     1  UNL1        0.0000
     34 C          47.5436   11.7140  -19.8753 C.3     1  UNL1        0.0000
     35 C          47.2933   11.2833  -21.3345 C.3     1  UNL1        0.0000
     36 C          47.5849    9.7928  -21.5424 C.3     1  UNL1        0.0014
@<TRIPOS>BOND
     1    13    14   ar
     2    14    15   ar
     3    15    16   ar
     4    16    17   ar
     5    17    18   ar
     6    17    19    1
     7    19    20    1
     8    20    21    1
     9    21    12    1
    10    12     1    1
    11     1    24    1
    12    24    25    1
    13    25    26    1
    14    26    27    1
    15    27    28    1
    16    28    30    1
    17    30    31    1
    18    31    32    1
    19    32    33    1
    20    33    34    1
    21    34    35    1
    22    35    36    1
    23     1     2    1
    24     2     3    1
    25     3     4    1
    26     4     5    1
    27     5     6    1
    28     6     7   ar
    29     7     8   ar
    30     8     9   ar
    31     9    10   ar
    32    10    11   ar
    33    21    22    1
    34    18    13   ar
    35    36    31    1
    36    11     2    1
    37    22    16    1
    38    11     6   ar
    39    20    23    1
    40    28    29    1
@<TRIPOS>MOLECULE
*****
 36 40 0 0 0
SMALL
GASTEIGER

@<TRIPOS>ATOM
      1 N          48.4351   13.1746  -23.7657 N.3     1  UNL1       -0.2679
      2 C          49.4577   12.2416  -23.1645 C.3     1  UNL1        0.0978
      3 C          50.1110   11.3894  -24.2727 C.3     1  UNL1        0.0224
      4 C          51.0625   12.2468  -25.1159 C.3     1  UNL1        0.0065
      5 C          52.2413   12.7268  -24.2696 C.3     1  UNL1        0.0277
      6 C          51.8158   13.2468  -22.9191 C.ar    1  UNL1       -0.0073
      7 C          52.7499   13.9359  -22.1338 C.ar    1  UNL1       -0.0015
      8 C          52.4445   14.2779  -20.8173 C.ar    1  UNL1        0.0203
      9 C          51.2115   13.9070  -20.2840 C.ar    1  UNL1        0.0985
     10 N          50.3092   13.2441  -21.0530 N.ar    1  UNL1       -0.2471
     11 C          50.5612   12.9159  -22.3526 C.ar    1  UNL1        0.0695
     12 C          47.0685   12.8098  -23.2665 C.3     1  UNL1        0.0886
     13 C          45.9659   15.2463  -28.4542 C.ar    1  UNL1       -0.0003
     14 C          45.3504   15.9610  -27.4202 C.ar    1  UNL1       -0.0003
     15 C          45.0491   15.3261  -26.2106 C.ar    1  UNL1       -0.0045
     16 C          45.3841   13.9765  -26.0290 C.ar    1  UNL1       -0.0234
     17 C          45.9913   13.2618  -27.0646 C.ar    1  UNL1       -0.0103
     18 C          46.2833   13.8947  -28.2810 C.ar    1  UNL1       -0.0032
     19 C          46.3125   11.8186  -26.8087 C.3     1  UNL1        0.0953
     20 N          46.9329   11.6790  -25.4828 N.3     1  UNL1       -0.2934
     21 C          46.1214   12.2186  -24.3515 C.3     1  UNL1        0.0748
     22 C          45.0117   13.2240  -24.7862 C.3     1  UNL1        0.0432
     23 H          47.8680   12.1497  -25.5304 H       1  UNL1        0.1236
     24 C          48.7268   14.6162  -23.5035 C.3     1  UNL1        0.0725
     25 C          47.4726   15.4681  -23.2478 C.3     1  UNL1        0.0188
     26 C          47.7566   16.9777  -23.1225 C.3     1  UNL1        0.0185
     27 C          46.6278   17.8487  -23.6875 C.3     1  UNL1        0.0686
     28 N          46.8712   18.1162  -25.1105 N.3     1  UNL1       -0.2975
     29 H          47.2407   17.2533  -25.5709 H       1  UNL1        0.1232
     30 C          47.7904   19.2494  -25.3209 C.3     1  UNL1        0.0685
     31 C          48.9684   18.9325  -26.2824 C.3     1  UNL1        0.0158
     32 C          50.2685   18.5964  -25.4989 C.3     1  UNL1        0.0014
     33 C          51.2051   17.6911  -26.3056 C.3     1  UNL1        0.0000
     34 C          50.5454   16.3346  -26.6208 C.3     1  UNL1        0.0000
     35 C          49.0139   16.4216  -26.7781 C.3     1  UNL1        0.0000
     36 C          48.5740   17.8033  -27.2752 C.3     1  UNL1        0.0014
@<TRIPOS>BOND
     1    13    14   ar
     2    14    15   ar
     3    15    16   ar
     4    16    17   ar
     5    17    18   ar
     6    17    19    1
     7    19    20    1
     8    20    21    1
     9    21    12    1
    10    12     1    1
    11     1    24    1
    12    24    25    1
    13    25    26    1
    14    26    27    1
    15    27    28    1
    16    28    30    1
    17    30    31    1
    18    31    32    1
    19    32    33    1
    20    33    34    1
    21    34    35    1
    22    35    36    1
    23     1     2    1
    24     2     3    1
    25     3     4    1
    26     4     5    1
    27     5     6    1
    28     6     7   ar
    29     7     8   ar
    30     8     9   ar
    31     9    10   ar
    32    10    11   ar
    33    21    22    1
    34    18    13   ar
    35    36    31    1
    36    11     2    1
    37    22    16    1
    38    11     6   ar
    39    20    23    1
    40    28    29    1
