@<TRIPOS>MOLECULE
*****
 43 47 0 0 0
SMALL
GASTEIGER

@<TRIPOS>ATOM
      1 C         -28.3445   -2.5948  -19.4513 C.3     1  UNL1        0.0323
      2 C         -27.9672   -3.1809  -18.1178 C.ar    1  UNL1       -0.0083
      3 C         -28.6527   -2.7697  -16.9637 C.ar    1  UNL1       -0.0018
      4 C         -28.3189   -3.2939  -15.7139 C.ar    1  UNL1        0.0144
      5 C         -27.2949   -4.2459  -15.5942 C.ar    1  UNL1        0.0518
      6 C         -26.6359   -4.6886  -16.7486 C.ar    1  UNL1        0.0290
      7 C         -26.9452   -4.1506  -18.0105 C.ar    1  UNL1        0.0477
      8 N         -26.9520   -4.8199  -14.3209 N.am    1  UNL1       -0.2803
      9 C         -27.3480   -6.1395  -13.9096 C.2     1  UNL1        0.2495
     10 O         -28.3172   -6.7083  -14.4835 O.2     1  UNL1       -0.2698
     11 H         -26.5045   -4.1980  -13.6103 H       1  UNL1        0.1552
     12 C         -26.6661   -6.8213  -12.7829 C.ar    1  UNL1        0.0537
     13 C         -25.2850   -6.6461  -12.5818 C.ar    1  UNL1        0.0042
     14 C         -24.6349   -7.2842  -11.5219 C.ar    1  UNL1       -0.0028
     15 C         -25.3541   -8.1003  -10.6376 C.ar    1  UNL1       -0.0061
     16 C         -26.7329   -8.2729  -10.8287 C.ar    1  UNL1       -0.0028
     17 C         -27.3844   -7.6364  -11.8890 C.ar    1  UNL1        0.0042
     18 C         -24.6409   -8.8026   -9.5117 C.3     1  UNL1        0.0992
     19 N         -23.1805   -8.7894   -9.7344 N.3     1  UNL1       -0.2665
     20 C         -22.4741   -8.6011   -8.4523 C.3     1  UNL1        0.0899
     21 C         -20.9602   -8.5668   -8.6840 C.3     1  UNL1        0.0897
     22 N         -20.5191   -9.8192   -9.3247 N.3     1  UNL1       -0.2691
     23 C         -19.0655   -9.7885   -9.5451 C.3     1  UNL1        0.0897
     24 C         -21.2211  -10.0075  -10.6074 C.3     1  UNL1        0.0897
     25 C         -22.7343  -10.0446  -10.3748 C.3     1  UNL1        0.0899
     26 N         -26.2540   -4.6178  -19.1837 N.pl3   1  UNL1       -0.2827
     27 H         -26.2279   -4.0055  -20.0297 H       1  UNL1        0.1551
     28 C         -25.5064   -5.8416  -19.2249 C.ar    1  UNL1        0.2208
     29 N         -25.5941   -6.6467  -20.3147 N.ar    1  UNL1       -0.2070
     30 CA        -24.8859   -7.8046  -20.4040 C.ar    1  UNL1        0.1608
     31 C         -24.0296   -8.1651  -19.3519 C.ar    1  UNL1        0.0450
     32 C         -23.9476   -7.3300  -18.2254 C.ar    1  UNL1        0.0874
     33 N         -24.6814   -6.1858  -18.2018 N.ar    1  UNL1       -0.2135
     34 C         -23.0682   -7.6479  -17.0700 C.ar    1  UNL1        0.0370
     35 C         -21.7022   -7.9435  -17.2356 C.ar    1  UNL1        0.0046
     36 C         -20.9105   -8.2524  -16.1280 C.ar    1  UNL1        0.0207
     37 C         -21.4870   -8.2728  -14.8585 C.ar    1  UNL1        0.0989
     38 N         -22.8088   -7.9989  -14.7080 N.ar    1  UNL1       -0.2423
     39 C         -23.6029   -7.6953  -15.7691 C.ar    1  UNL1        0.1003
     40 C         -25.0196   -8.6288  -21.6246 C.2     1  UNL1        0.3561
     41 O         -24.6801   -8.1410  -22.7351 O.2     1  UNL1       -0.2434
     42 OXT       -25.5319   -9.9257  -21.5950 O.3     1  UNL1       -0.4761
     43 HXT       -25.9199  -10.3437  -20.7599 H       1  UNL1        0.2955
@<TRIPOS>BOND
     1     1     2    1
     2     2     3   ar
     3     3     4   ar
     4     4     5   ar
     5     5     8    1
     6     8     9   am
     7     9    10    2
     8     9    12    1
     9    12    13   ar
    10    13    14   ar
    11    14    15   ar
    12    15    18    1
    13    18    19    1
    14    19    20    1
    15    20    21    1
    16    21    22    1
    17    22    23    1
    18    22    24    1
    19    24    25    1
    20    15    16   ar
    21    16    17   ar
    22     5     6   ar
    23     6     7   ar
    24     7    26    1
    25    26    28    1
    26    28    29   ar
    27    29    30   ar
    28    30    40    1
    29    40    41    2
    30    40    42    1
    31    30    31   ar
    32    31    32   ar
    33    32    34    1
    34    34    35   ar
    35    35    36   ar
    36    36    37   ar
    37    37    38   ar
    38    38    39   ar
    39    32    33   ar
    40     7     2   ar
    41    33    28   ar
    42    17    12   ar
    43    39    34   ar
    44    25    19    1
    45     8    11    1
    46    26    27    1
    47    42    43    1
@<TRIPOS>MOLECULE
*****
 43 47 0 0 0
SMALL
GASTEIGER

@<TRIPOS>ATOM
      1 C         -20.8512  -12.3057  -12.1286 C.3     1  UNL1        0.0323
      2 C         -22.0370  -11.4914  -12.5699 C.ar    1  UNL1       -0.0083
      3 C         -23.2354  -12.1415  -12.9046 C.ar    1  UNL1       -0.0018
      4 C         -24.3485  -11.4100  -13.3220 C.ar    1  UNL1        0.0144
      5 C         -24.2867  -10.0107  -13.4072 C.ar    1  UNL1        0.0518
      6 C         -23.1055   -9.3555  -13.0354 C.ar    1  UNL1        0.0290
      7 C         -21.9690  -10.0817  -12.6371 C.ar    1  UNL1        0.0477
      8 N         -25.4290   -9.2344  -13.8085 N.am    1  UNL1       -0.2803
      9 C         -26.0630   -8.2567  -12.9663 C.2     1  UNL1        0.2495
     10 O         -25.8844   -8.2974  -11.7178 O.2     1  UNL1       -0.2698
     11 H         -25.8992   -9.4871  -14.7068 H       1  UNL1        0.1552
     12 C         -26.9681   -7.2313  -13.5400 C.ar    1  UNL1        0.0537
     13 C         -26.5302   -5.9024  -13.6840 C.ar    1  UNL1        0.0042
     14 C         -27.3764   -4.9304  -14.2245 C.ar    1  UNL1       -0.0028
     15 C         -28.6712   -5.2701  -14.6408 C.ar    1  UNL1       -0.0061
     16 C         -29.1108   -6.5952  -14.5066 C.ar    1  UNL1       -0.0028
     17 C         -28.2662   -7.5684  -13.9650 C.ar    1  UNL1        0.0042
     18 C         -29.5844   -4.2109  -15.2010 C.3     1  UNL1        0.0992
     19 N         -29.2544   -3.9360  -16.6146 N.3     1  UNL1       -0.2665
     20 C         -30.0943   -2.8356  -17.1262 C.3     1  UNL1        0.0899
     21 C         -29.7677   -2.5627  -18.5978 C.3     1  UNL1        0.0897
     22 N         -28.3413   -2.2193  -18.7431 N.3     1  UNL1       -0.2691
     23 C         -28.0273   -1.9545  -20.1551 C.3     1  UNL1        0.0897
     24 C         -27.5005   -3.3189  -18.2356 C.3     1  UNL1        0.0897
     25 C         -27.8254   -3.5892  -16.7637 C.3     1  UNL1        0.0899
     26 N         -20.7644   -9.3886  -12.2617 N.pl3   1  UNL1       -0.2827
     27 H         -19.9839   -9.3251  -12.9532 H       1  UNL1        0.1551
     28 C         -20.6115   -8.6869  -11.0198 C.ar    1  UNL1        0.2208
     29 N         -21.2138   -7.4818  -10.8498 N.ar    1  UNL1       -0.2070
     30 CA        -21.1124   -6.7932   -9.6811 C.ar    1  UNL1        0.1608
     31 C         -20.3835   -7.3516   -8.6195 C.ar    1  UNL1        0.0450
     32 C         -19.7590   -8.5963   -8.8040 C.ar    1  UNL1        0.0874
     33 N         -19.9024   -9.2320   -9.9971 N.ar    1  UNL1       -0.2135
     34 C         -18.9658   -9.2479   -7.7291 C.ar    1  UNL1        0.0370
     35 C         -18.9625   -8.7603   -6.4089 C.ar    1  UNL1        0.0046
     36 C         -18.1929   -9.3898   -5.4290 C.ar    1  UNL1        0.0207
     37 C         -17.4224  -10.5002   -5.7719 C.ar    1  UNL1        0.0989
     38 N         -17.4208  -10.9574   -7.0508 N.ar    1  UNL1       -0.2423
     39 C         -18.1605  -10.3635   -8.0249 C.ar    1  UNL1        0.1003
     40 C         -21.8031   -5.4911   -9.5597 C.2     1  UNL1        0.3561
     41 O         -22.3311   -4.9785  -10.5818 O.2     1  UNL1       -0.2434
     42 OXT       -21.8722   -4.7946   -8.3533 O.3     1  UNL1       -0.4761
     43 HXT       -21.3848   -5.0922   -7.5188 H       1  UNL1        0.2955
@<TRIPOS>BOND
     1     1     2    1
     2     2     3   ar
     3     3     4   ar
     4     4     5   ar
     5     5     8    1
     6     8     9   am
     7     9    10    2
     8     9    12    1
     9    12    13   ar
    10    13    14   ar
    11    14    15   ar
    12    15    18    1
    13    18    19    1
    14    19    20    1
    15    20    21    1
    16    21    22    1
    17    22    23    1
    18    22    24    1
    19    24    25    1
    20    15    16   ar
    21    16    17   ar
    22     5     6   ar
    23     6     7   ar
    24     7    26    1
    25    26    28    1
    26    28    29   ar
    27    29    30   ar
    28    30    40    1
    29    40    41    2
    30    40    42    1
    31    30    31   ar
    32    31    32   ar
    33    32    34    1
    34    34    35   ar
    35    35    36   ar
    36    36    37   ar
    37    37    38   ar
    38    38    39   ar
    39    32    33   ar
    40     7     2   ar
    41    33    28   ar
    42    17    12   ar
    43    39    34   ar
    44    25    19    1
    45     8    11    1
    46    26    27    1
    47    42    43    1
@<TRIPOS>MOLECULE
*****
 43 47 0 0 0
SMALL
GASTEIGER

@<TRIPOS>ATOM
      1 C         -20.1198  -13.7784  -14.3390 C.3     1  UNL1        0.0323
      2 C         -21.2976  -12.8463  -14.2510 C.ar    1  UNL1       -0.0083
      3 C         -22.0119  -12.5237  -15.4158 C.ar    1  UNL1       -0.0018
      4 C         -23.1051  -11.6574  -15.3624 C.ar    1  UNL1        0.0144
      5 C         -23.5099  -11.1003  -14.1398 C.ar    1  UNL1        0.0518
      6 C         -22.8248  -11.4514  -12.9692 C.ar    1  UNL1        0.0290
      7 C         -21.7066  -12.3032  -13.0123 C.ar    1  UNL1        0.0477
      8 N         -24.6495  -10.2269  -14.0563 N.am    1  UNL1       -0.2803
      9 C         -24.6294   -8.9529  -13.3902 C.2     1  UNL1        0.2495
     10 O         -23.7330   -8.7082  -12.5365 O.2     1  UNL1       -0.2698
     11 H         -25.5712  -10.5953  -14.3830 H       1  UNL1        0.1552
     12 C         -25.6803   -7.9403  -13.6543 C.ar    1  UNL1        0.0537
     13 C         -25.3274   -6.6565  -14.1080 C.ar    1  UNL1        0.0042
     14 C         -26.3116   -5.6968  -14.3601 C.ar    1  UNL1       -0.0028
     15 C         -27.6665   -6.0052  -14.1738 C.ar    1  UNL1       -0.0061
     16 C         -28.0248   -7.2861  -13.7286 C.ar    1  UNL1       -0.0028
     17 C         -27.0416   -8.2467  -13.4748 C.ar    1  UNL1        0.0042
     18 C         -28.7190   -4.9572  -14.4259 C.3     1  UNL1        0.0992
     19 N         -28.7125   -4.5463  -15.8449 N.3     1  UNL1       -0.2665
     20 C         -29.9392   -3.7879  -16.1584 C.3     1  UNL1        0.0899
     21 C         -29.9438   -3.3784  -17.6346 C.3     1  UNL1        0.0897
     22 N         -28.7539   -2.5615  -17.9355 N.3     1  UNL1       -0.2691
     23 C         -28.7588   -2.1656  -19.3517 C.3     1  UNL1        0.0897
     24 C         -27.5273   -3.3187  -17.6262 C.3     1  UNL1        0.0897
     25 C         -27.5219   -3.7251  -16.1498 C.3     1  UNL1        0.0899
     26 N         -21.0154  -12.6492  -11.7979 N.pl3   1  UNL1       -0.2827
     27 H         -20.9705  -13.6533  -11.5129 H       1  UNL1        0.1551
     28 C         -20.2916  -11.6991  -11.0031 C.ar    1  UNL1        0.2208
     29 N         -19.1507  -12.0801  -10.3730 N.ar    1  UNL1       -0.2070
     30 CA        -18.4226  -11.2059   -9.6275 C.ar    1  UNL1        0.1608
     31 C         -18.8515   -9.8735   -9.5235 C.ar    1  UNL1        0.0450
     32 C         -20.0352   -9.4875  -10.1740 C.ar    1  UNL1        0.0874
     33 N         -20.7138  -10.4115  -10.9047 N.ar    1  UNL1       -0.2135
     34 C         -20.5558   -8.0970  -10.1053 C.ar    1  UNL1        0.0370
     35 C         -20.9652   -7.3995  -11.2572 C.ar    1  UNL1        0.0046
     36 C         -21.4346   -6.0888  -11.1555 C.ar    1  UNL1        0.0207
     37 C         -21.4867   -5.4751   -9.9045 C.ar    1  UNL1        0.0989
     38 N         -21.0780   -6.1501   -8.7990 N.ar    1  UNL1       -0.2423
     39 C         -20.6162   -7.4270   -8.8692 C.ar    1  UNL1        0.1003
     40 C         -17.1835  -11.6845   -8.9773 C.2     1  UNL1        0.3561
     41 O         -16.8197  -11.1629   -7.8901 O.2     1  UNL1       -0.2434
     42 OXT       -16.3859  -12.6819   -9.5378 O.3     1  UNL1       -0.4761
     43 HXT       -16.5579  -13.0717  -10.4549 H       1  UNL1        0.2955
@<TRIPOS>BOND
     1     1     2    1
     2     2     3   ar
     3     3     4   ar
     4     4     5   ar
     5     5     8    1
     6     8     9   am
     7     9    10    2
     8     9    12    1
     9    12    13   ar
    10    13    14   ar
    11    14    15   ar
    12    15    18    1
    13    18    19    1
    14    19    20    1
    15    20    21    1
    16    21    22    1
    17    22    23    1
    18    22    24    1
    19    24    25    1
    20    15    16   ar
    21    16    17   ar
    22     5     6   ar
    23     6     7   ar
    24     7    26    1
    25    26    28    1
    26    28    29   ar
    27    29    30   ar
    28    30    40    1
    29    40    41    2
    30    40    42    1
    31    30    31   ar
    32    31    32   ar
    33    32    34    1
    34    34    35   ar
    35    35    36   ar
    36    36    37   ar
    37    37    38   ar
    38    38    39   ar
    39    32    33   ar
    40     7     2   ar
    41    33    28   ar
    42    17    12   ar
    43    39    34   ar
    44    25    19    1
    45     8    11    1
    46    26    27    1
    47    42    43    1
@<TRIPOS>MOLECULE
*****
 43 47 0 0 0
SMALL
GASTEIGER

@<TRIPOS>ATOM
      1 C         -20.9571  -13.6806  -14.7518 C.3     1  UNL1        0.0323
      2 C         -21.6702  -12.3902  -15.0523 C.ar    1  UNL1       -0.0083
      3 C         -21.8627  -12.0019  -16.3876 C.ar    1  UNL1       -0.0018
      4 C         -22.5164  -10.8072  -16.6935 C.ar    1  UNL1        0.0144
      5 C         -22.9967   -9.9785  -15.6680 C.ar    1  UNL1        0.0518
      6 C         -22.8425  -10.3821  -14.3352 C.ar    1  UNL1        0.0290
      7 C         -22.1640  -11.5708  -14.0124 C.ar    1  UNL1        0.0477
      8 N         -23.6971   -8.7566  -15.9595 N.am    1  UNL1       -0.2803
      9 C         -23.2335   -7.7797  -16.9072 C.2     1  UNL1        0.2495
     10 O         -22.0190   -7.7679  -17.2490 O.2     1  UNL1       -0.2698
     11 H         -24.5142   -8.5074  -15.3578 H       1  UNL1        0.1552
     12 C         -24.1533   -6.7503  -17.4494 C.ar    1  UNL1        0.0537
     13 C         -24.6851   -5.7607  -16.6030 C.ar    1  UNL1        0.0042
     14 C         -25.5517   -4.7866  -17.1061 C.ar    1  UNL1       -0.0028
     15 C         -25.8946   -4.7768  -18.4654 C.ar    1  UNL1       -0.0061
     16 C         -25.3616   -5.7567  -19.3156 C.ar    1  UNL1       -0.0028
     17 C         -24.4956   -6.7325  -18.8138 C.ar    1  UNL1        0.0042
     18 C         -26.8477   -3.7368  -18.9943 C.3     1  UNL1        0.0992
     19 N         -28.1322   -3.7924  -18.2666 N.3     1  UNL1       -0.2665
     20 C         -27.9016   -3.6269  -16.8183 C.3     1  UNL1        0.0899
     21 C         -29.2305   -3.7046  -16.0600 C.3     1  UNL1        0.0897
     22 N         -30.1515   -2.6617  -16.5475 N.3     1  UNL1       -0.2691
     23 C         -31.4265   -2.7336  -15.8184 C.3     1  UNL1        0.0897
     24 C         -30.3859   -2.8274  -17.9936 C.3     1  UNL1        0.0897
     25 C         -29.0575   -2.7467  -18.7512 C.3     1  UNL1        0.0899
     26 N         -22.0143  -11.9657  -12.6362 N.pl3   1  UNL1       -0.2827
     27 H         -22.4872  -12.8377  -12.3085 H       1  UNL1        0.1551
     28 C         -21.1635  -11.2807  -11.7061 C.ar    1  UNL1        0.2208
     29 N         -20.1118  -11.9347  -11.1493 N.ar    1  UNL1       -0.2070
     30 CA        -19.2678  -11.3167  -10.2798 C.ar    1  UNL1        0.1608
     31 C         -19.4789   -9.9650   -9.9662 C.ar    1  UNL1        0.0450
     32 C         -20.5717   -9.2960  -10.5420 C.ar    1  UNL1        0.0874
     33 N         -21.3751   -9.9729  -11.4050 N.ar    1  UNL1       -0.2135
     34 C         -20.8631   -7.8672  -10.2537 C.ar    1  UNL1        0.0370
     35 C         -21.1806   -6.9531  -11.2757 C.ar    1  UNL1        0.0046
     36 C         -21.4335   -5.6151  -10.9683 C.ar    1  UNL1        0.0207
     37 C         -21.3613   -5.1917   -9.6416 C.ar    1  UNL1        0.0989
     38 N         -21.0419   -6.0770   -8.6623 N.ar    1  UNL1       -0.2423
     39 C         -20.7905   -7.3854   -8.9335 C.ar    1  UNL1        0.1003
     40 C         -18.1354  -12.0849   -9.7190 C.2     1  UNL1        0.3561
     41 O         -17.3115  -11.5021   -8.9654 O.2     1  UNL1       -0.2434
     42 OXT       -17.9316  -13.4328  -10.0135 O.3     1  UNL1       -0.4761
     43 HXT       -18.4891  -13.9375  -10.6896 H       1  UNL1        0.2955
@<TRIPOS>BOND
     1     1     2    1
     2     2     3   ar
     3     3     4   ar
     4     4     5   ar
     5     5     8    1
     6     8     9   am
     7     9    10    2
     8     9    12    1
     9    12    13   ar
    10    13    14   ar
    11    14    15   ar
    12    15    18    1
    13    18    19    1
    14    19    20    1
    15    20    21    1
    16    21    22    1
    17    22    23    1
    18    22    24    1
    19    24    25    1
    20    15    16   ar
    21    16    17   ar
    22     5     6   ar
    23     6     7   ar
    24     7    26    1
    25    26    28    1
    26    28    29   ar
    27    29    30   ar
    28    30    40    1
    29    40    41    2
    30    40    42    1
    31    30    31   ar
    32    31    32   ar
    33    32    34    1
    34    34    35   ar
    35    35    36   ar
    36    36    37   ar
    37    37    38   ar
    38    38    39   ar
    39    32    33   ar
    40     7     2   ar
    41    33    28   ar
    42    17    12   ar
    43    39    34   ar
    44    25    19    1
    45     8    11    1
    46    26    27    1
    47    42    43    1
@<TRIPOS>MOLECULE
*****
 43 47 0 0 0
SMALL
GASTEIGER

@<TRIPOS>ATOM
      1 C         -23.8079  -13.3080  -15.7302 C.3     1  UNL1        0.0323
      2 C         -22.8899  -12.9279  -14.6004 C.ar    1  UNL1       -0.0083
      3 C         -21.5699  -13.4058  -14.5922 C.ar    1  UNL1       -0.0018
      4 C         -20.6995  -13.0724  -13.5532 C.ar    1  UNL1        0.0144
      5 C         -21.1311  -12.2480  -12.5029 C.ar    1  UNL1        0.0518
      6 C         -22.4351  -11.7362  -12.5282 C.ar    1  UNL1        0.0290
      7 C         -23.3299  -12.0843  -13.5558 C.ar    1  UNL1        0.0477
      8 N         -20.2441  -11.8692  -11.4361 N.am    1  UNL1       -0.2803
      9 C         -20.1206  -10.5243  -10.9428 C.2     1  UNL1        0.2495
     10 O         -20.5011   -9.5583  -11.6598 O.2     1  UNL1       -0.2698
     11 H         -19.5625  -12.5826  -11.0920 H       1  UNL1        0.1552
     12 C         -19.5024  -10.2526   -9.6223 C.ar    1  UNL1        0.0537
     13 C         -18.4212  -11.0325   -9.1737 C.ar    1  UNL1        0.0042
     14 C         -17.8324  -10.7825   -7.9312 C.ar    1  UNL1       -0.0028
     15 C         -18.3057   -9.7425   -7.1189 C.ar    1  UNL1       -0.0061
     16 C         -19.3788   -8.9568   -7.5643 C.ar    1  UNL1       -0.0028
     17 C         -19.9697   -9.2063   -8.8062 C.ar    1  UNL1        0.0042
     18 C         -17.6798   -9.4951   -5.7711 C.3     1  UNL1        0.0992
     19 N         -18.5469   -8.6275   -4.9478 N.3     1  UNL1       -0.2665
     20 C         -19.1287   -9.4024   -3.8346 C.3     1  UNL1        0.0899
     21 C         -20.0442   -8.5092   -2.9916 C.3     1  UNL1        0.0897
     22 N         -19.2839   -7.3611   -2.4649 N.3     1  UNL1       -0.2691
     23 C         -20.1612   -6.5044   -1.6532 C.3     1  UNL1        0.0897
     24 C         -18.7047   -6.5836   -3.5757 C.3     1  UNL1        0.0897
     25 C         -17.7873   -7.4763   -4.4163 C.3     1  UNL1        0.0899
     26 N         -24.6663  -11.5492  -13.5613 N.pl3   1  UNL1       -0.2827
     27 H         -25.4154  -12.0713  -14.0690 H       1  UNL1        0.1551
     28 C         -25.0537  -10.3845  -12.8187 C.ar    1  UNL1        0.2208
     29 N         -24.6939  -10.2679  -11.5146 N.ar    1  UNL1       -0.2070
     30 CA        -25.0217   -9.1709  -10.7803 C.ar    1  UNL1        0.1608
     31 C         -25.7325   -8.1264  -11.3917 C.ar    1  UNL1        0.0450
     32 C         -26.1058   -8.2558  -12.7398 C.ar    1  UNL1        0.0874
     33 N         -25.7440   -9.3782  -13.4162 N.ar    1  UNL1       -0.2135
     34 C         -26.8642   -7.1953  -13.4537 C.ar    1  UNL1        0.0370
     35 C         -26.2617   -5.9835  -13.8400 C.ar    1  UNL1        0.0046
     36 C         -27.0099   -5.0041  -14.4956 C.ar    1  UNL1        0.0207
     37 C         -28.3601   -5.2345  -14.7570 C.ar    1  UNL1        0.0989
     38 N         -28.9377   -6.4013  -14.3700 N.ar    1  UNL1       -0.2423
     39 C         -28.2328   -7.3718  -13.7297 C.ar    1  UNL1        0.1003
     40 C         -24.5882   -9.1038   -9.3680 C.2     1  UNL1        0.3561
     41 O         -23.8071   -8.1834   -9.0086 O.2     1  UNL1       -0.2434
     42 OXT       -24.9962  -10.0404   -8.4185 O.3     1  UNL1       -0.4761
     43 HXT       -25.5361  -10.8622   -8.6548 H       1  UNL1        0.2955
@<TRIPOS>BOND
     1     1     2    1
     2     2     3   ar
     3     3     4   ar
     4     4     5   ar
     5     5     8    1
     6     8     9   am
     7     9    10    2
     8     9    12    1
     9    12    13   ar
    10    13    14   ar
    11    14    15   ar
    12    15    18    1
    13    18    19    1
    14    19    20    1
    15    20    21    1
    16    21    22    1
    17    22    23    1
    18    22    24    1
    19    24    25    1
    20    15    16   ar
    21    16    17   ar
    22     5     6   ar
    23     6     7   ar
    24     7    26    1
    25    26    28    1
    26    28    29   ar
    27    29    30   ar
    28    30    40    1
    29    40    41    2
    30    40    42    1
    31    30    31   ar
    32    31    32   ar
    33    32    34    1
    34    34    35   ar
    35    35    36   ar
    36    36    37   ar
    37    37    38   ar
    38    38    39   ar
    39    32    33   ar
    40     7     2   ar
    41    33    28   ar
    42    17    12   ar
    43    39    34   ar
    44    25    19    1
    45     8    11    1
    46    26    27    1
    47    42    43    1
@<TRIPOS>MOLECULE
*****
 43 47 0 0 0
SMALL
GASTEIGER

@<TRIPOS>ATOM
      1 C         -29.0230   -5.2303  -14.9218 C.3     1  UNL1        0.0323
      2 C         -27.7630   -5.6793  -14.2329 C.ar    1  UNL1       -0.0083
      3 C         -27.8059   -6.7808  -13.3635 C.ar    1  UNL1       -0.0018
      4 C         -26.6524   -7.2144  -12.7079 C.ar    1  UNL1        0.0144
      5 C         -25.4297   -6.5574  -12.9139 C.ar    1  UNL1        0.0518
      6 C         -25.3745   -5.4832  -13.8116 C.ar    1  UNL1        0.0290
      7 C         -26.5337   -5.0205  -14.4595 C.ar    1  UNL1        0.0477
      8 N         -24.2232   -7.0030  -12.2704 N.am    1  UNL1       -0.2803
      9 C         -23.4415   -6.1811  -11.3868 C.2     1  UNL1        0.2495
     10 O         -23.5677   -4.9262  -11.4257 O.2     1  UNL1       -0.2698
     11 H         -23.8265   -7.9246  -12.5625 H       1  UNL1        0.1552
     12 C         -22.4487   -6.7856  -10.4657 C.ar    1  UNL1        0.0537
     13 C         -22.2926   -8.1824  -10.4119 C.ar    1  UNL1        0.0042
     14 C         -21.3587   -8.7600   -9.5474 C.ar    1  UNL1       -0.0028
     15 C         -20.5565   -7.9527   -8.7289 C.ar    1  UNL1       -0.0061
     16 C         -20.7025   -6.5588   -8.7836 C.ar    1  UNL1       -0.0028
     17 C         -21.6370   -5.9795   -9.6468 C.ar    1  UNL1        0.0042
     18 C         -19.5687   -8.5851   -7.7834 C.3     1  UNL1        0.0992
     19 N         -19.7608   -8.0706   -6.4119 N.3     1  UNL1       -0.2665
     20 C         -20.4733   -9.0692   -5.5913 C.3     1  UNL1        0.0899
     21 C         -20.6914   -8.5293   -4.1744 C.3     1  UNL1        0.0897
     22 N         -19.3950   -8.1985   -3.5551 N.3     1  UNL1       -0.2691
     23 C         -19.6030   -7.6827   -2.1939 C.3     1  UNL1        0.0897
     24 C         -18.6831   -7.1984   -4.3716 C.3     1  UNL1        0.0897
     25 C         -18.4628   -7.7399   -5.7870 C.3     1  UNL1        0.0899
     26 N         -26.4552   -3.9133  -15.3763 N.pl3   1  UNL1       -0.2827
     27 H         -26.2295   -2.9646  -15.0015 H       1  UNL1        0.1551
     28 C         -26.5697   -4.0566  -16.7991 C.ar    1  UNL1        0.2208
     29 N         -27.2049   -3.0989  -17.5224 N.ar    1  UNL1       -0.2070
     30 CA        -27.3169   -3.1847  -18.8753 C.ar    1  UNL1        0.1608
     31 C         -26.7450   -4.2804  -19.5405 C.ar    1  UNL1        0.0450
     32 C         -26.0938   -5.2699  -18.7855 C.ar    1  UNL1        0.0874
     33 N         -26.0161   -5.1211  -17.4364 N.ar    1  UNL1       -0.2135
     34 C         -25.4695   -6.4614  -19.4178 C.ar    1  UNL1        0.0370
     35 C         -25.8873   -6.9405  -20.6735 C.ar    1  UNL1        0.0046
     36 C         -25.2876   -8.0720  -21.2292 C.ar    1  UNL1        0.0207
     37 C         -24.2772   -8.7268  -20.5259 C.ar    1  UNL1        0.0989
     38 N         -23.8880   -8.2660  -19.3089 N.ar    1  UNL1       -0.2423
     39 C         -24.4550   -7.1668  -18.7442 C.ar    1  UNL1        0.1003
     40 C         -28.0116   -2.1004  -19.6025 C.2     1  UNL1        0.3561
     41 O         -29.1524   -1.7338  -19.2145 O.2     1  UNL1       -0.2434
     42 OXT       -27.4573   -1.4807  -20.7223 O.3     1  UNL1       -0.4761
     43 HXT       -26.5962   -1.7914  -21.1518 H       1  UNL1        0.2955
@<TRIPOS>BOND
     1     1     2    1
     2     2     3   ar
     3     3     4   ar
     4     4     5   ar
     5     5     8    1
     6     8     9   am
     7     9    10    2
     8     9    12    1
     9    12    13   ar
    10    13    14   ar
    11    14    15   ar
    12    15    18    1
    13    18    19    1
    14    19    20    1
    15    20    21    1
    16    21    22    1
    17    22    23    1
    18    22    24    1
    19    24    25    1
    20    15    16   ar
    21    16    17   ar
    22     5     6   ar
    23     6     7   ar
    24     7    26    1
    25    26    28    1
    26    28    29   ar
    27    29    30   ar
    28    30    40    1
    29    40    41    2
    30    40    42    1
    31    30    31   ar
    32    31    32   ar
    33    32    34    1
    34    34    35   ar
    35    35    36   ar
    36    36    37   ar
    37    37    38   ar
    38    38    39   ar
    39    32    33   ar
    40     7     2   ar
    41    33    28   ar
    42    17    12   ar
    43    39    34   ar
    44    25    19    1
    45     8    11    1
    46    26    27    1
    47    42    43    1
@<TRIPOS>MOLECULE
*****
 43 47 0 0 0
SMALL
GASTEIGER

@<TRIPOS>ATOM
      1 C         -29.2336   -5.0542  -15.1901 C.3     1  UNL1        0.0323
      2 C         -28.1128   -5.6466  -14.3797 C.ar    1  UNL1       -0.0083
      3 C         -28.3757   -6.7284  -13.5244 C.ar    1  UNL1       -0.0018
      4 C         -27.3550   -7.2930  -12.7578 C.ar    1  UNL1        0.0144
      5 C         -26.0475   -6.7897  -12.8361 C.ar    1  UNL1        0.0518
      6 C         -25.7729   -5.7366  -13.7185 C.ar    1  UNL1        0.0290
      7 C         -26.7966   -5.1424  -14.4779 C.ar    1  UNL1        0.0477
      8 N         -24.9745   -7.3727  -12.0763 N.am    1  UNL1       -0.2803
      9 C         -24.2537   -8.5467  -12.4878 C.2     1  UNL1        0.2495
     10 O         -24.7655   -9.3293  -13.3349 O.2     1  UNL1       -0.2698
     11 H         -24.7984   -7.0002  -11.1160 H       1  UNL1        0.1552
     12 C         -22.9377   -8.8793  -11.8900 C.ar    1  UNL1        0.0537
     13 C         -22.8203   -9.9565  -10.9932 C.ar    1  UNL1        0.0042
     14 C         -21.5838  -10.2771  -10.4263 C.ar    1  UNL1       -0.0028
     15 C         -20.4404   -9.5344  -10.7527 C.ar    1  UNL1       -0.0061
     16 C         -20.5501   -8.4637  -11.6521 C.ar    1  UNL1       -0.0028
     17 C         -21.7863   -8.1409  -12.2191 C.ar    1  UNL1        0.0042
     18 C         -19.1162   -9.8728  -10.1189 C.3     1  UNL1        0.0992
     19 N         -19.1997   -9.7555   -8.6486 N.3     1  UNL1       -0.2665
     20 C         -17.9954  -10.3374   -8.0247 C.3     1  UNL1        0.0899
     21 C         -18.0895  -10.2351   -6.4991 C.3     1  UNL1        0.0897
     22 N         -18.2361   -8.8245   -6.0960 N.3     1  UNL1       -0.2691
     23 C         -18.3237   -8.7249   -4.6315 C.3     1  UNL1        0.0897
     24 C         -19.4406   -8.2423   -6.7155 C.3     1  UNL1        0.0897
     25 C         -19.3446   -8.3423   -8.2405 C.3     1  UNL1        0.0899
     26 N         -26.4931   -4.0597  -15.3767 N.pl3   1  UNL1       -0.2827
     27 H         -26.1151   -3.1691  -14.9824 H       1  UNL1        0.1551
     28 C         -26.5845   -4.1691  -16.8042 C.ar    1  UNL1        0.2208
     29 N         -27.1988   -3.1893  -17.5158 N.ar    1  UNL1       -0.2070
     30 CA        -27.2884   -3.2429  -18.8720 C.ar    1  UNL1        0.1608
     31 C         -26.7148   -4.3282  -19.5526 C.ar    1  UNL1        0.0450
     32 C         -26.0852   -5.3407  -18.8098 C.ar    1  UNL1        0.0874
     33 N         -26.0293   -5.2237  -17.4565 N.ar    1  UNL1       -0.2135
     34 C         -25.4607   -6.5230  -19.4589 C.ar    1  UNL1        0.0370
     35 C         -25.8660   -6.9735  -20.7292 C.ar    1  UNL1        0.0046
     36 C         -25.2666   -8.0973  -21.3007 C.ar    1  UNL1        0.0207
     37 C         -24.2690   -8.7728  -20.5988 C.ar    1  UNL1        0.0989
     38 N         -23.8919   -8.3397  -19.3680 N.ar    1  UNL1       -0.2423
     39 C         -24.4590   -7.2487  -18.7876 C.ar    1  UNL1        0.1003
     40 C         -27.9611   -2.1359  -19.5855 C.2     1  UNL1        0.3561
     41 O         -29.0545   -1.6948  -19.1427 O.2     1  UNL1       -0.2434
     42 OXT       -27.4383   -1.5742  -20.7501 O.3     1  UNL1       -0.4761
     43 HXT       -26.6228   -1.9440  -21.2200 H       1  UNL1        0.2955
@<TRIPOS>BOND
     1     1     2    1
     2     2     3   ar
     3     3     4   ar
     4     4     5   ar
     5     5     8    1
     6     8     9   am
     7     9    10    2
     8     9    12    1
     9    12    13   ar
    10    13    14   ar
    11    14    15   ar
    12    15    18    1
    13    18    19    1
    14    19    20    1
    15    20    21    1
    16    21    22    1
    17    22    23    1
    18    22    24    1
    19    24    25    1
    20    15    16   ar
    21    16    17   ar
    22     5     6   ar
    23     6     7   ar
    24     7    26    1
    25    26    28    1
    26    28    29   ar
    27    29    30   ar
    28    30    40    1
    29    40    41    2
    30    40    42    1
    31    30    31   ar
    32    31    32   ar
    33    32    34    1
    34    34    35   ar
    35    35    36   ar
    36    36    37   ar
    37    37    38   ar
    38    38    39   ar
    39    32    33   ar
    40     7     2   ar
    41    33    28   ar
    42    17    12   ar
    43    39    34   ar
    44    25    19    1
    45     8    11    1
    46    26    27    1
    47    42    43    1
