@<TRIPOS>MOLECULE
*****
 47 52 0 0 0
SMALL
GASTEIGER

@<TRIPOS>ATOM
      1 C          60.6840   86.5104    8.3577 C.ar    1  UNL1        0.0702
      2 C          59.7825   85.5030    8.7205 C.ar    1  UNL1        0.0191
      3 C          59.9665   84.7855    9.9033 C.ar    1  UNL1        0.0356
      4 C          61.0702   85.0723   10.7242 C.ar    1  UNL1        0.1318
      5 N          61.9535   86.0330   10.3323 N.ar    1  UNL1       -0.2279
      6 C          61.7923   86.7464    9.1866 C.ar    1  UNL1        0.1149
      7 N          61.3014   84.3493   11.9516 N.pl3   1  UNL1       -0.2932
      8 C          60.2730   83.4188   12.4395 C.3     1  UNL1        0.0923
      9 C          60.3998   83.2139   13.9519 C.3     1  UNL1        0.0253
     10 C          61.7997   82.6876   14.3622 C.3     1  UNL1        0.0495
     11 C          62.9352   83.2075   13.4221 C.3     1  UNL1        0.0528
     12 C          62.5507   84.5209   12.7112 C.3     1  UNL1        0.0947
     13 C          64.2831   83.3563   14.1580 C.3     1  UNL1        0.1389
     14 O          65.3322   82.7886   13.4163 O.3     1  UNL1       -0.3819
     15 H          65.8120   83.5333   12.9686 H       1  UNL1        0.2104
     16 C          61.8095   81.1478   14.4254 C.3     1  UNL1        0.2055
     17 O          62.4582   80.6159   13.2716 O.3     1  UNL1       -0.4755
     18 C          61.8056   80.2864   12.0747 C.ar    1  UNL1        0.1388
     19 C          62.3385   80.6056   10.8126 C.ar    1  UNL1        0.0369
     20 C          61.6500   80.2513    9.6510 C.ar    1  UNL1        0.0033
     21 C          60.4261   79.5833    9.7327 C.ar    1  UNL1        0.0066
     22 C          59.8717   79.2651   10.9852 C.ar    1  UNL1        0.0785
     23 C          60.5789   79.6154   12.1504 C.ar    1  UNL1        0.0433
     24 C          58.5755   78.5516   11.0919 C.2     1  UNL1        0.3381
     25 O          57.5438   79.0478   10.5658 O.2     1  UNL1       -0.2451
     26 O          58.4624   77.3274   11.7500 O.3     1  UNL1       -0.4771
     27 H          59.2639   76.8223   12.1047 H       1  UNL1        0.2954
     28 C          60.0324   88.5834    7.0451 C.2     1  UNL1        0.2839
     29 O          59.5245   89.1411    8.0550 O.2     1  UNL1       -0.2665
     30 N          60.4943   87.2252    7.1244 N.am    1  UNL1       -0.2766
     31 H          60.6197   86.6970    6.2312 H       1  UNL1        0.1553
     32 C          57.5862   89.7031    5.3028 C.3     1  UNL1        0.0345
     33 C          59.0513   89.8034    5.0019 C.ar    1  UNL1        0.0202
     34 C          60.1165   89.3122    5.7651 C.ar    1  UNL1        0.1946
     35 O          61.2640   89.5961    5.1752 O.2     1  UNL1       -0.4492
     36 C          60.9981   90.2456    4.0682 C.ar    1  UNL1        0.1452
     37 C          61.9081   90.7375    3.1391 C.ar    1  UNL1        0.0375
     38 C          61.4032   91.4114    2.0136 C.ar    1  UNL1        0.0031
     39 C          60.0039   91.5827    1.8340 C.ar    1  UNL1        0.0002
     40 C          59.1115   91.0658    2.8037 C.ar    1  UNL1        0.0028
     41 C          59.6474   90.4021    3.9084 C.ar    1  UNL1        0.0337
     42 C          59.4822   92.2965    0.6409 C.ar    1  UNL1        0.0000
     43 C          60.3078   93.1765   -0.0845 C.ar    1  UNL1        0.0000
     44 C          59.8140   93.8473   -1.2076 C.ar    1  UNL1        0.0000
     45 C          58.4945   93.6477   -1.6194 C.ar    1  UNL1        0.0000
     46 C          57.6656   92.7770   -0.9087 C.ar    1  UNL1        0.0000
     47 C          58.1538   92.1042    0.2157 C.ar    1  UNL1        0.0000
@<TRIPOS>BOND
     1    32    33    1
     2    33    34   ar
     3    34    28    1
     4    28    29    2
     5    28    30   am
     6    30     1    1
     7     1     2   ar
     8     2     3   ar
     9     3     4   ar
    10     4     7    1
    11     7     8    1
    12     8     9    1
    13     9    10    1
    14    10    16    1
    15    16    17    1
    16    17    18    1
    17    18    19   ar
    18    19    20   ar
    19    20    21   ar
    20    21    22   ar
    21    22    24    1
    22    24    25    2
    23    24    26    1
    24    22    23   ar
    25    10    11    1
    26    11    13    1
    27    13    14    1
    28    11    12    1
    29     4     5   ar
    30     5     6   ar
    31    34    35   ar
    32    35    36   ar
    33    36    37   ar
    34    37    38   ar
    35    38    39   ar
    36    39    42    1
    37    42    43   ar
    38    43    44   ar
    39    44    45   ar
    40    45    46   ar
    41    46    47   ar
    42    39    40   ar
    43    40    41   ar
    44    41    33   ar
    45     6     1   ar
    46    41    36   ar
    47    12     7    1
    48    47    42   ar
    49    23    18   ar
    50    30    31    1
    51    26    27    1
    52    14    15    1
@<TRIPOS>MOLECULE
*****
 47 52 0 0 0
SMALL
GASTEIGER

@<TRIPOS>ATOM
      1 C          60.6610   86.3853    8.0384 C.ar    1  UNL1        0.0702
      2 C          60.0548   85.1296    8.1607 C.ar    1  UNL1        0.0191
      3 C          60.2621   84.3556    9.3033 C.ar    1  UNL1        0.0356
      4 C          61.0933   84.8393   10.3276 C.ar    1  UNL1        0.1318
      5 N          61.7006   86.0490   10.1702 N.ar    1  UNL1       -0.2279
      6 C          61.5105   86.8210    9.0679 C.ar    1  UNL1        0.1149
      7 N          61.3399   84.0679   11.5221 N.pl3   1  UNL1       -0.2932
      8 C          60.1980   83.5994   12.3208 C.3     1  UNL1        0.0923
      9 C          60.6185   83.3427   13.7708 C.3     1  UNL1        0.0253
     10 C          61.7729   82.3128   13.8785 C.3     1  UNL1        0.0495
     11 C          62.7412   82.3668   12.6526 C.3     1  UNL1        0.0528
     12 C          62.7109   83.7356   11.9429 C.3     1  UNL1        0.0947
     13 C          64.1855   81.9757   13.0289 C.3     1  UNL1        0.1389
     14 O          64.9514   81.6989   11.8844 O.3     1  UNL1       -0.3819
     15 H          65.5111   82.4986   11.7050 H       1  UNL1        0.2104
     16 C          61.2195   80.8874   14.0710 C.3     1  UNL1        0.2055
     17 O          61.2982   80.1632   12.8445 O.3     1  UNL1       -0.4755
     18 C          60.1890   79.7717   12.0808 C.ar    1  UNL1        0.1388
     19 C          59.3268   78.7344   12.4798 C.ar    1  UNL1        0.0369
     20 C          58.2337   78.3862   11.6843 C.ar    1  UNL1        0.0033
     21 C          57.9912   79.0602   10.4852 C.ar    1  UNL1        0.0066
     22 C          58.8478   80.0927   10.0637 C.ar    1  UNL1        0.0785
     23 C          59.9400   80.4447   10.8783 C.ar    1  UNL1        0.0433
     24 C          58.6034   80.8232    8.7959 C.2     1  UNL1        0.3381
     25 O          59.3605   80.6300    7.8075 O.2     1  UNL1       -0.2451
     26 O          57.5416   81.7161    8.6551 O.3     1  UNL1       -0.4771
     27 H          56.8363   81.8423    9.3692 H       1  UNL1        0.2954
     28 C          60.1622   88.5675    6.8409 C.2     1  UNL1        0.2839
     29 O          59.8157   89.1465    7.9055 O.2     1  UNL1       -0.2665
     30 N          60.4569   87.1612    6.8450 N.am    1  UNL1       -0.2766
     31 H          60.4390   86.6538    5.9313 H       1  UNL1        0.1553
     32 C          57.6899   89.7349    5.1681 C.3     1  UNL1        0.0345
     33 C          59.1499   89.8378    4.8440 C.ar    1  UNL1        0.0202
     34 C          60.2266   89.3257    5.5769 C.ar    1  UNL1        0.1946
     35 O          61.3646   89.6199    4.9738 O.2     1  UNL1       -0.4492
     36 C          61.0817   90.2957    3.8870 C.ar    1  UNL1        0.1452
     37 C          61.9771   90.8065    2.9539 C.ar    1  UNL1        0.0375
     38 C          61.4550   91.5079    1.8534 C.ar    1  UNL1        0.0031
     39 C          60.0533   91.6876    1.7022 C.ar    1  UNL1        0.0002
     40 C          59.1762   91.1509    2.6751 C.ar    1  UNL1        0.0028
     41 C          59.7289   90.4601    3.7545 C.ar    1  UNL1        0.0337
     42 C          59.5134   92.4307    0.5354 C.ar    1  UNL1        0.0000
     43 C          58.1321   92.4300    0.2632 C.ar    1  UNL1        0.0000
     44 C          57.6264   93.1306   -0.8361 C.ar    1  UNL1        0.0000
     45 C          58.4907   93.8389   -1.6740 C.ar    1  UNL1        0.0000
     46 C          59.8629   93.8478   -1.4144 C.ar    1  UNL1        0.0000
     47 C          60.3742   93.1482   -0.3169 C.ar    1  UNL1        0.0000
@<TRIPOS>BOND
     1    32    33    1
     2    33    34   ar
     3    34    28    1
     4    28    29    2
     5    28    30   am
     6    30     1    1
     7     1     2   ar
     8     2     3   ar
     9     3     4   ar
    10     4     7    1
    11     7     8    1
    12     8     9    1
    13     9    10    1
    14    10    16    1
    15    16    17    1
    16    17    18    1
    17    18    19   ar
    18    19    20   ar
    19    20    21   ar
    20    21    22   ar
    21    22    24    1
    22    24    25    2
    23    24    26    1
    24    22    23   ar
    25    10    11    1
    26    11    13    1
    27    13    14    1
    28    11    12    1
    29     4     5   ar
    30     5     6   ar
    31    34    35   ar
    32    35    36   ar
    33    36    37   ar
    34    37    38   ar
    35    38    39   ar
    36    39    42    1
    37    42    43   ar
    38    43    44   ar
    39    44    45   ar
    40    45    46   ar
    41    46    47   ar
    42    39    40   ar
    43    40    41   ar
    44    41    33   ar
    45     6     1   ar
    46    41    36   ar
    47    12     7    1
    48    47    42   ar
    49    23    18   ar
    50    30    31    1
    51    26    27    1
    52    14    15    1
@<TRIPOS>MOLECULE
*****
 47 52 0 0 0
SMALL
GASTEIGER

@<TRIPOS>ATOM
      1 C          60.7956   86.9739    8.3103 C.ar    1  UNL1        0.0702
      2 C          60.8616   85.5786    8.3995 C.ar    1  UNL1        0.0191
      3 C          61.0349   84.9593    9.6381 C.ar    1  UNL1        0.0356
      4 C          61.1543   85.7457   10.7963 C.ar    1  UNL1        0.1318
      5 N          61.1225   87.1030   10.6799 N.ar    1  UNL1       -0.2279
      6 C          60.9513   87.7273    9.4848 C.ar    1  UNL1        0.1149
      7 N          61.3418   85.1458   12.0955 N.pl3   1  UNL1       -0.2932
      8 C          60.6063   83.9177   12.4303 C.3     1  UNL1        0.0923
      9 C          60.4618   83.7681   13.9475 C.3     1  UNL1        0.0253
     10 C          61.8318   83.7561   14.6740 C.3     1  UNL1        0.0495
     11 C          62.9022   84.6359   13.9504 C.3     1  UNL1        0.0528
     12 C          62.2631   85.7368   13.0799 C.3     1  UNL1        0.0947
     13 C          63.9266   85.2395   14.9336 C.3     1  UNL1        0.1389
     14 O          65.0454   84.4027   15.0787 O.3     1  UNL1       -0.3819
     15 H          65.7725   84.7850   14.5218 H       1  UNL1        0.2104
     16 C          62.3450   82.3138   14.8524 C.3     1  UNL1        0.2055
     17 O          63.5178   82.1120   14.0657 O.3     1  UNL1       -0.4755
     18 C          63.5126   81.7868   12.7015 C.ar    1  UNL1        0.1388
     19 C          64.3633   82.4143   11.7734 C.ar    1  UNL1        0.0369
     20 C          64.3210   82.0507   10.4262 C.ar    1  UNL1        0.0033
     21 C          63.4314   81.0666    9.9891 C.ar    1  UNL1        0.0066
     22 C          62.5653   80.4355   10.8996 C.ar    1  UNL1        0.0785
     23 C          62.6238   80.8000   12.2576 C.ar    1  UNL1        0.0433
     24 C          61.6173   79.3847   10.4548 C.2     1  UNL1        0.3381
     25 O          60.5149   79.2457   11.0488 O.2     1  UNL1       -0.2451
     26 O          61.9025   78.5454    9.3784 O.3     1  UNL1       -0.4771
     27 H          62.7184   78.6669    8.7928 H       1  UNL1        0.2954
     28 C          59.9541   88.8430    6.8126 C.2     1  UNL1        0.2839
     29 O          59.2275   89.3297    7.7204 O.2     1  UNL1       -0.2665
     30 N          60.6403   87.5986    7.0244 N.am    1  UNL1       -0.2766
     31 H          60.9736   87.0733    6.1844 H       1  UNL1        0.1553
     32 C          57.5622   90.0574    5.0584 C.3     1  UNL1        0.0345
     33 C          59.0279   90.0634    4.7441 C.ar    1  UNL1        0.0202
     34 C          60.0693   89.5311    5.5126 C.ar    1  UNL1        0.1946
     35 O          61.2262   89.7312    4.9067 O.2     1  UNL1       -0.4492
     36 C          60.9888   90.3652    3.7844 C.ar    1  UNL1        0.1452
     37 C          61.9177   90.7777    2.8356 C.ar    1  UNL1        0.0375
     38 C          61.4430   91.4497    1.6958 C.ar    1  UNL1        0.0031
     39 C          60.0546   91.6980    1.5219 C.ar    1  UNL1        0.0002
     40 C          59.1422   91.2606    2.5119 C.ar    1  UNL1        0.0028
     41 C          59.6482   90.5965    3.6303 C.ar    1  UNL1        0.0337
     42 C          59.5649   92.4090    0.3136 C.ar    1  UNL1        0.0000
     43 C          58.2120   92.3255   -0.0670 C.ar    1  UNL1        0.0000
     44 C          57.7536   92.9960   -1.2051 C.ar    1  UNL1        0.0000
     45 C          58.6372   93.7566   -1.9741 C.ar    1  UNL1        0.0000
     46 C          59.9815   93.8479   -1.6068 C.ar    1  UNL1        0.0000
     47 C          60.4456   93.1787   -0.4701 C.ar    1  UNL1        0.0000
@<TRIPOS>BOND
     1    32    33    1
     2    33    34   ar
     3    34    28    1
     4    28    29    2
     5    28    30   am
     6    30     1    1
     7     1     2   ar
     8     2     3   ar
     9     3     4   ar
    10     4     7    1
    11     7     8    1
    12     8     9    1
    13     9    10    1
    14    10    16    1
    15    16    17    1
    16    17    18    1
    17    18    19   ar
    18    19    20   ar
    19    20    21   ar
    20    21    22   ar
    21    22    24    1
    22    24    25    2
    23    24    26    1
    24    22    23   ar
    25    10    11    1
    26    11    13    1
    27    13    14    1
    28    11    12    1
    29     4     5   ar
    30     5     6   ar
    31    34    35   ar
    32    35    36   ar
    33    36    37   ar
    34    37    38   ar
    35    38    39   ar
    36    39    42    1
    37    42    43   ar
    38    43    44   ar
    39    44    45   ar
    40    45    46   ar
    41    46    47   ar
    42    39    40   ar
    43    40    41   ar
    44    41    33   ar
    45     6     1   ar
    46    41    36   ar
    47    12     7    1
    48    47    42   ar
    49    23    18   ar
    50    30    31    1
    51    26    27    1
    52    14    15    1
