@<TRIPOS>MOLECULE
*****
 47 51 0 0 0
SMALL
GASTEIGER

@<TRIPOS>ATOM
      1 C         -20.7187  -10.2072  -10.9698 C.ar    1  UNL1        0.0010
      2 C         -20.5198  -11.4513  -11.5472 C.ar    1  UNL1        0.0719
      3 N         -19.5087  -12.1061  -10.9291 N.ar    1  UNL1       -0.3241
      4 C         -19.1201  -13.4819  -11.2325 C.3     1  UNL1        0.1305
      5 C         -19.0380  -11.2722   -9.9656 C.ar    1  UNL1        0.0660
      6 C         -18.0274  -11.4851   -8.9999 C.ar    1  UNL1        0.0924
      7 C         -17.8502  -10.4949   -8.0093 C.ar    1  UNL1        0.0227
      8 C         -18.6356   -9.3179   -7.9996 C.ar    1  UNL1        0.0535
      9 C         -19.5822   -9.1067   -9.0143 C.ar    1  UNL1        0.0159
     10 C         -19.7743  -10.1068   -9.9644 C.ar    1  UNL1        0.0150
     11 C         -17.1187  -12.6453   -9.0025 C.2     1  UNL1        0.3395
     12 O         -15.9691  -12.5465   -9.5047 O.2     1  UNL1       -0.2450
     13 O         -17.4916  -13.8372   -8.3870 O.3     1  UNL1       -0.4771
     14 H         -18.4087  -13.9508   -7.9718 H       1  UNL1        0.2954
     15 N         -18.4593   -8.3127   -6.9891 N.am    1  UNL1       -0.2499
     16 C         -19.4492   -7.9919   -6.0035 C.2     1  UNL1        0.4053
     17 O         -20.5617   -8.5877   -5.9917 O.2     1  UNL1       -0.2261
     18 H         -17.6430   -7.6655   -7.0726 H       1  UNL1        0.1582
     19 O         -19.1828   -6.9751   -5.0804 O.3     1  UNL1       -0.4383
     20 C         -18.3858   -7.1671   -3.9101 C.3     1  UNL1        0.1705
     21 C         -18.5236   -8.5971   -3.3938 C.3     1  UNL1        0.0437
     22 C         -19.6352   -8.5815   -2.3479 C.3     1  UNL1        0.0038
     23 C         -20.0042   -7.1202   -2.1144 C.3     1  UNL1        0.0038
     24 C         -18.9200   -6.2951   -2.7870 C.3     1  UNL1        0.0437
     25 C         -21.8332   -9.2492  -11.2965 C.3     1  UNL1        0.0572
     26 C         -23.6007   -9.0367  -13.1138 C.ar    1  UNL1        0.1352
     27 C         -24.4216   -9.6351  -14.0889 C.ar    1  UNL1        0.0411
     28 C         -24.4609  -11.0294  -14.2350 C.ar    1  UNL1        0.0578
     29 C         -23.7270  -11.8339  -13.3548 C.ar    1  UNL1        0.0044
     30 C         -22.9086  -11.2522  -12.3864 C.ar    1  UNL1       -0.0008
     31 C         -22.8111   -9.8550  -12.2781 C.ar    1  UNL1        0.0162
     32 C         -25.2711  -11.6479  -15.3037 C.2     1  UNL1        0.2644
     33 O         -26.3505  -12.2251  -15.0043 O.2     1  UNL1       -0.2686
     34 N         -24.8662  -11.5976  -16.6782 N.am    1  UNL1       -0.1814
     35 H         -25.5985  -11.6959  -17.4160 H       1  UNL1        0.1769
     36 S         -23.1999  -11.6533  -17.1725 S.O2    1  UNL1        0.0755
     37 O         -22.5630  -12.8591  -16.5413 O.2     1  UNL1       -0.1499
     38 O         -23.1092  -11.7587  -18.6696 O.2     1  UNL1       -0.1499
     39 C         -22.3571  -10.1770  -16.6705 C.ar    1  UNL1        0.1213
     40 C         -21.3193  -10.2785  -15.7289 C.ar    1  UNL1        0.0199
     41 C         -20.6259   -9.1428  -15.3082 C.ar    1  UNL1        0.0014
     42 C         -20.9639   -7.8897  -15.8152 C.ar    1  UNL1       -0.0002
     43 C         -22.0082   -7.7652  -16.7322 C.ar    1  UNL1       -0.0029
     44 C         -22.7303   -8.8961  -17.1534 C.ar    1  UNL1       -0.0030
     45 C         -23.8771   -8.7071  -18.1106 C.3     1  UNL1        0.0324
     46 C         -24.6383   -6.8133  -12.6081 C.3     1  UNL1        0.2525
     47 O         -23.5354   -7.6420  -12.9589 O.3     1  UNL1       -0.4717
@<TRIPOS>BOND
     1    46    47    1
     2    47    26    1
     3    26    27   ar
     4    27    28   ar
     5    28    32    1
     6    32    33    2
     7    32    34   am
     8    34    36    1
     9    36    37    2
    10    36    38    2
    11    36    39    1
    12    39    40   ar
    13    40    41   ar
    14    41    42   ar
    15    42    43   ar
    16    43    44   ar
    17    44    45    1
    18    28    29   ar
    19    29    30   ar
    20    30    31   ar
    21    31    25    1
    22    25     1    1
    23     1     2   ar
    24     2     3   ar
    25     3     4    1
    26     3     5   ar
    27     5     6   ar
    28     6    11    1
    29    11    12    2
    30    11    13    1
    31     6     7   ar
    32     7     8   ar
    33     8    15    1
    34    15    16   am
    35    16    17    2
    36    16    19    1
    37    19    20    1
    38    20    21    1
    39    21    22    1
    40    22    23    1
    41    23    24    1
    42     8     9   ar
    43     9    10   ar
    44    31    26   ar
    45    10     1   ar
    46    44    39   ar
    47    10     5   ar
    48    24    20    1
    49    34    35    1
    50    13    14    1
    51    15    18    1
@<TRIPOS>MOLECULE
*****
 47 51 0 0 0
SMALL
GASTEIGER

@<TRIPOS>ATOM
      1 C         -22.6505   -9.2175  -11.8463 C.ar    1  UNL1        0.0010
      2 C         -22.6007   -9.7962  -10.5879 C.ar    1  UNL1        0.0719
      3 N         -23.7859   -9.6494   -9.9501 N.ar    1  UNL1       -0.3241
      4 C         -24.0918  -10.2392   -8.6484 C.3     1  UNL1        0.1305
      5 C         -24.5951   -8.9530  -10.7901 C.ar    1  UNL1        0.0660
      6 C         -25.9506   -8.5807  -10.6381 C.ar    1  UNL1        0.0924
      7 C         -26.5957   -7.9924  -11.7477 C.ar    1  UNL1        0.0227
      8 C         -25.9033   -7.7570  -12.9590 C.ar    1  UNL1        0.0535
      9 C         -24.5393   -8.0750  -13.0520 C.ar    1  UNL1        0.0159
     10 C         -23.9230   -8.6889  -11.9643 C.ar    1  UNL1        0.0150
     11 C         -26.7054   -8.7188   -9.3799 C.2     1  UNL1        0.3395
     12 O         -26.9381   -9.8606   -8.9047 O.2     1  UNL1       -0.2450
     13 O         -27.1045   -7.5915   -8.6671 O.3     1  UNL1       -0.4771
     14 H         -26.9323   -6.6575   -9.0197 H       1  UNL1        0.2954
     15 N         -26.5604   -7.1634  -14.0898 N.am    1  UNL1       -0.2499
     16 C         -26.7760   -5.7541  -14.2361 C.2     1  UNL1        0.4053
     17 O         -26.3999   -4.9494  -13.3397 O.2     1  UNL1       -0.2261
     18 H         -27.0554   -7.7933  -14.7608 H       1  UNL1        0.1582
     19 O         -27.4516   -5.2851  -15.3678 O.3     1  UNL1       -0.4383
     20 C         -27.6104   -3.8970  -15.6675 C.3     1  UNL1        0.1705
     21 C         -28.9653   -3.6393  -16.3219 C.3     1  UNL1        0.0437
     22 C         -28.7429   -3.6983  -17.8308 C.3     1  UNL1        0.0038
     23 C         -27.2371   -3.7914  -18.0541 C.3     1  UNL1        0.0038
     24 C         -26.5889   -3.4866  -16.7141 C.3     1  UNL1        0.0437
     25 C         -21.5749   -9.2934  -12.8970 C.3     1  UNL1        0.0572
     26 C         -21.7073  -10.4451  -15.1615 C.ar    1  UNL1        0.1352
     27 C         -21.7439  -11.6276  -15.9250 C.ar    1  UNL1        0.0411
     28 C         -21.7993  -12.8823  -15.3008 C.ar    1  UNL1        0.0578
     29 C         -21.8880  -12.9525  -13.9052 C.ar    1  UNL1        0.0044
     30 C         -21.8505  -11.7878  -13.1383 C.ar    1  UNL1       -0.0008
     31 C         -21.7264  -10.5308  -13.7531 C.ar    1  UNL1        0.0162
     32 C         -21.7686  -14.1208  -16.1048 C.2     1  UNL1        0.2644
     33 O         -20.6990  -14.4569  -16.6799 O.2     1  UNL1       -0.2686
     34 N         -22.9241  -14.9591  -16.2378 N.am    1  UNL1       -0.1814
     35 H         -22.7829  -15.9659  -16.4758 H       1  UNL1        0.1769
     36 S         -24.5442  -14.3296  -16.2901 S.O2    1  UNL1        0.0755
     37 O         -24.5963  -13.2537  -17.3380 O.2     1  UNL1       -0.1499
     38 O         -25.5123  -15.4251  -16.6415 O.2     1  UNL1       -0.1499
     39 C         -25.0031  -13.6730  -14.7090 C.ar    1  UNL1        0.1213
     40 C         -25.1697  -14.5594  -13.6318 C.ar    1  UNL1        0.0199
     41 C         -25.5266  -14.0858  -12.3685 C.ar    1  UNL1        0.0014
     42 C         -25.7296  -12.7224  -12.1648 C.ar    1  UNL1       -0.0002
     43 C         -25.5935  -11.8290  -13.2279 C.ar    1  UNL1       -0.0029
     44 C         -25.2528  -12.2901  -14.5121 C.ar    1  UNL1       -0.0030
     45 C         -25.1602  -11.2942  -15.6374 C.3     1  UNL1        0.0324
     46 C         -22.6945   -8.5740  -16.5033 C.3     1  UNL1        0.2525
     47 O         -21.6381   -9.1785  -15.7653 O.3     1  UNL1       -0.4717
@<TRIPOS>BOND
     1    46    47    1
     2    47    26    1
     3    26    27   ar
     4    27    28   ar
     5    28    32    1
     6    32    33    2
     7    32    34   am
     8    34    36    1
     9    36    37    2
    10    36    38    2
    11    36    39    1
    12    39    40   ar
    13    40    41   ar
    14    41    42   ar
    15    42    43   ar
    16    43    44   ar
    17    44    45    1
    18    28    29   ar
    19    29    30   ar
    20    30    31   ar
    21    31    25    1
    22    25     1    1
    23     1     2   ar
    24     2     3   ar
    25     3     4    1
    26     3     5   ar
    27     5     6   ar
    28     6    11    1
    29    11    12    2
    30    11    13    1
    31     6     7   ar
    32     7     8   ar
    33     8    15    1
    34    15    16   am
    35    16    17    2
    36    16    19    1
    37    19    20    1
    38    20    21    1
    39    21    22    1
    40    22    23    1
    41    23    24    1
    42     8     9   ar
    43     9    10   ar
    44    31    26   ar
    45    10     1   ar
    46    44    39   ar
    47    10     5   ar
    48    24    20    1
    49    34    35    1
    50    13    14    1
    51    15    18    1
@<TRIPOS>MOLECULE
*****
 47 51 0 0 0
SMALL
GASTEIGER

@<TRIPOS>ATOM
      1 C         -23.8353   -9.4283  -10.8539 C.ar    1  UNL1        0.0010
      2 C         -24.4902   -8.4471  -11.5813 C.ar    1  UNL1        0.0719
      3 N         -23.8554   -7.2579  -11.4544 N.ar    1  UNL1       -0.3241
      4 C         -24.2347   -6.0478  -12.1807 C.3     1  UNL1        0.1305
      5 C         -22.8015   -7.4674  -10.6234 C.ar    1  UNL1        0.0660
      6 C         -21.7875   -6.5747  -10.2061 C.ar    1  UNL1        0.0924
      7 C         -20.7149   -7.1067   -9.4579 C.ar    1  UNL1        0.0227
      8 C         -20.6701   -8.4782   -9.1128 C.ar    1  UNL1        0.0535
      9 C         -21.7286   -9.3223   -9.4837 C.ar    1  UNL1        0.0159
     10 C         -22.7627   -8.7947  -10.2533 C.ar    1  UNL1        0.0150
     11 C         -21.8155   -5.1228  -10.4573 C.2     1  UNL1        0.3395
     12 O         -22.4291   -4.3569   -9.6697 O.2     1  UNL1       -0.2450
     13 O         -21.1056   -4.5755  -11.5226 O.3     1  UNL1       -0.4771
     14 H         -20.5997   -5.1626  -12.1752 H       1  UNL1        0.2954
     15 N         -19.5767   -9.0210   -8.3562 N.am    1  UNL1       -0.2499
     16 C         -19.1186   -8.4733   -7.1135 C.2     1  UNL1        0.4053
     17 O         -19.6643   -7.4463   -6.6233 O.2     1  UNL1       -0.2261
     18 H         -18.9751   -9.7465   -8.8077 H       1  UNL1        0.1582
     19 O         -18.0261   -9.0668   -6.4723 O.3     1  UNL1       -0.4383
     20 C         -17.9420   -9.2298   -5.0552 C.3     1  UNL1        0.1705
     21 C         -17.1922   -8.0602   -4.4225 C.3     1  UNL1        0.0437
     22 C         -15.7282   -8.4798   -4.3213 C.3     1  UNL1        0.0038
     23 C         -15.6614   -9.9537   -4.7075 C.3     1  UNL1        0.0038
     24 C         -17.0969  -10.4511   -4.7370 C.3     1  UNL1        0.0437
     25 C         -24.1644  -10.8974  -10.8555 C.3     1  UNL1        0.0572
     26 C         -24.1686  -12.5365  -12.8010 C.ar    1  UNL1        0.1352
     27 C         -23.5199  -13.1072  -13.9128 C.ar    1  UNL1        0.0411
     28 C         -22.1929  -12.7713  -14.2186 C.ar    1  UNL1        0.0578
     29 C         -21.4878  -11.9118  -13.3674 C.ar    1  UNL1        0.0044
     30 C         -22.1207  -11.3388  -12.2642 C.ar    1  UNL1       -0.0008
     31 C         -23.4701  -11.6170  -11.9899 C.ar    1  UNL1        0.0162
     32 C         -21.5402  -13.3203  -15.4242 C.2     1  UNL1        0.2644
     33 O         -20.4364  -13.9175  -15.3107 O.2     1  UNL1       -0.2686
     34 N         -22.1377  -13.2018  -16.7221 N.am    1  UNL1       -0.1814
     35 H         -21.8674  -13.8910  -17.4585 H       1  UNL1        0.1769
     36 S         -23.0741  -11.8187  -17.2059 S.O2    1  UNL1        0.0755
     37 O         -22.9444  -11.6612  -18.6946 O.2     1  UNL1       -0.1499
     38 O         -24.5190  -12.0213  -16.8426 O.2     1  UNL1       -0.1499
     39 C         -22.4956  -10.3614  -16.3791 C.ar    1  UNL1        0.1213
     40 C         -21.1729   -9.9409  -16.5971 C.ar    1  UNL1        0.0199
     41 C         -20.6768   -8.7971  -15.9700 C.ar    1  UNL1        0.0014
     42 C         -21.4912   -8.0620  -15.1110 C.ar    1  UNL1       -0.0002
     43 C         -22.7997   -8.4775  -14.8621 C.ar    1  UNL1       -0.0029
     44 C         -23.3107   -9.6380  -15.4704 C.ar    1  UNL1       -0.0030
     45 C         -24.7138  -10.0714  -15.1377 C.3     1  UNL1        0.0324
     46 C         -26.1716  -14.0390  -12.8822 C.3     1  UNL1        0.2525
     47 O         -25.5012  -12.8481  -12.4840 O.3     1  UNL1       -0.4717
@<TRIPOS>BOND
     1    46    47    1
     2    47    26    1
     3    26    27   ar
     4    27    28   ar
     5    28    32    1
     6    32    33    2
     7    32    34   am
     8    34    36    1
     9    36    37    2
    10    36    38    2
    11    36    39    1
    12    39    40   ar
    13    40    41   ar
    14    41    42   ar
    15    42    43   ar
    16    43    44   ar
    17    44    45    1
    18    28    29   ar
    19    29    30   ar
    20    30    31   ar
    21    31    25    1
    22    25     1    1
    23     1     2   ar
    24     2     3   ar
    25     3     4    1
    26     3     5   ar
    27     5     6   ar
    28     6    11    1
    29    11    12    2
    30    11    13    1
    31     6     7   ar
    32     7     8   ar
    33     8    15    1
    34    15    16   am
    35    16    17    2
    36    16    19    1
    37    19    20    1
    38    20    21    1
    39    21    22    1
    40    22    23    1
    41    23    24    1
    42     8     9   ar
    43     9    10   ar
    44    31    26   ar
    45    10     1   ar
    46    44    39   ar
    47    10     5   ar
    48    24    20    1
    49    34    35    1
    50    13    14    1
    51    15    18    1
@<TRIPOS>MOLECULE
*****
 47 51 0 0 0
SMALL
GASTEIGER

@<TRIPOS>ATOM
      1 C         -21.3490   -7.7958  -13.2449 C.ar    1  UNL1        0.0010
      2 C         -20.4806   -8.2460  -12.2630 C.ar    1  UNL1        0.0719
      3 N         -21.1258   -8.3718  -11.0792 N.ar    1  UNL1       -0.3241
      4 C         -20.5161   -8.9236   -9.8711 C.3     1  UNL1        0.1305
      5 C         -22.4084   -7.9788  -11.2926 C.ar    1  UNL1        0.0660
      6 C         -23.5105   -7.9688  -10.4069 C.ar    1  UNL1        0.0924
      7 C         -24.7783   -7.6562  -10.9437 C.ar    1  UNL1        0.0227
      8 C         -24.9368   -7.3360  -12.3128 C.ar    1  UNL1        0.0535
      9 C         -23.8104   -7.2871  -13.1491 C.ar    1  UNL1        0.0159
     10 C         -22.5707   -7.6336  -12.6173 C.ar    1  UNL1        0.0150
     11 C         -23.4024   -8.2086   -8.9568 C.2     1  UNL1        0.3395
     12 O         -22.7952   -7.3855   -8.2237 O.2     1  UNL1       -0.2450
     13 O         -24.0305   -9.3052   -8.3725 O.3     1  UNL1       -0.4771
     14 H         -24.5288   -9.9866   -8.9326 H       1  UNL1        0.2954
     15 N         -26.2270   -7.0229  -12.8605 N.am    1  UNL1       -0.2499
     16 C         -26.7514   -5.6923  -12.9530 C.2     1  UNL1        0.4053
     17 O         -26.0863   -4.7079  -12.5275 O.2     1  UNL1       -0.2261
     18 H         -26.8885   -7.8099  -13.0483 H       1  UNL1        0.1582
     19 O         -28.0331   -5.5035  -13.4810 O.3     1  UNL1       -0.4383
     20 C         -28.3635   -5.7566  -14.8480 C.3     1  UNL1        0.1705
     21 C         -27.6076   -4.8030  -15.7698 C.3     1  UNL1        0.0437
     22 C         -28.5254   -3.6082  -16.0141 C.3     1  UNL1        0.0038
     23 C         -29.8785   -3.9557  -15.4023 C.3     1  UNL1        0.0038
     24 C         -29.8308   -5.4397  -15.0795 C.3     1  UNL1        0.0437
     25 C         -21.0324   -7.6615  -14.7106 C.3     1  UNL1        0.0572
     26 C         -22.8322   -8.5859  -16.2526 C.ar    1  UNL1        0.1352
     27 C         -23.3173   -9.6230  -17.0722 C.ar    1  UNL1        0.0411
     28 C         -22.6366  -10.8462  -17.1586 C.ar    1  UNL1        0.0578
     29 C         -21.5010  -11.0583  -16.3675 C.ar    1  UNL1        0.0044
     30 C         -21.0099  -10.0375  -15.5534 C.ar    1  UNL1       -0.0008
     31 C         -21.6471   -8.7862  -15.5131 C.ar    1  UNL1        0.0162
     32 C         -23.1122  -11.9051  -18.0716 C.2     1  UNL1        0.2644
     33 O         -23.1680  -11.6739  -19.3091 O.2     1  UNL1       -0.2686
     34 N         -23.5013  -13.1968  -17.5863 N.am    1  UNL1       -0.1814
     35 H         -23.4678  -14.0061  -18.2451 H       1  UNL1        0.1769
     36 S         -24.2777  -13.4309  -16.0479 S.O2    1  UNL1        0.0755
     37 O         -25.5038  -12.5634  -16.0039 O.2     1  UNL1       -0.1499
     38 O         -24.6719  -14.8725  -15.8832 O.2     1  UNL1       -0.1499
     39 C         -23.1738  -13.0057  -14.7279 C.ar    1  UNL1        0.1213
     40 C         -21.9693  -13.7173  -14.5987 C.ar    1  UNL1        0.0199
     41 C         -21.0689  -13.4135  -13.5767 C.ar    1  UNL1        0.0014
     42 C         -21.3616  -12.4010  -12.6653 C.ar    1  UNL1       -0.0002
     43 C         -22.5641  -11.6998  -12.7619 C.ar    1  UNL1       -0.0029
     44 C         -23.4919  -12.0049  -13.7738 C.ar    1  UNL1       -0.0030
     45 C         -24.7949  -11.2513  -13.8117 C.3     1  UNL1        0.0324
     46 C         -23.8474   -6.5363  -17.2747 C.3     1  UNL1        0.2525
     47 O         -23.4903   -7.3481  -16.1613 O.3     1  UNL1       -0.4717
@<TRIPOS>BOND
     1    46    47    1
     2    47    26    1
     3    26    27   ar
     4    27    28   ar
     5    28    32    1
     6    32    33    2
     7    32    34   am
     8    34    36    1
     9    36    37    2
    10    36    38    2
    11    36    39    1
    12    39    40   ar
    13    40    41   ar
    14    41    42   ar
    15    42    43   ar
    16    43    44   ar
    17    44    45    1
    18    28    29   ar
    19    29    30   ar
    20    30    31   ar
    21    31    25    1
    22    25     1    1
    23     1     2   ar
    24     2     3   ar
    25     3     4    1
    26     3     5   ar
    27     5     6   ar
    28     6    11    1
    29    11    12    2
    30    11    13    1
    31     6     7   ar
    32     7     8   ar
    33     8    15    1
    34    15    16   am
    35    16    17    2
    36    16    19    1
    37    19    20    1
    38    20    21    1
    39    21    22    1
    40    22    23    1
    41    23    24    1
    42     8     9   ar
    43     9    10   ar
    44    31    26   ar
    45    10     1   ar
    46    44    39   ar
    47    10     5   ar
    48    24    20    1
    49    34    35    1
    50    13    14    1
    51    15    18    1
@<TRIPOS>MOLECULE
*****
 47 51 0 0 0
SMALL
GASTEIGER

@<TRIPOS>ATOM
      1 C         -24.1591   -7.3878  -11.3692 C.ar    1  UNL1        0.0010
      2 C         -25.5178   -7.5989  -11.5431 C.ar    1  UNL1        0.0719
      3 N         -25.9789   -8.4956  -10.6395 N.ar    1  UNL1       -0.3241
      4 C         -27.3877   -8.8552  -10.4910 C.3     1  UNL1        0.1305
      5 C         -24.9099   -8.8820   -9.8958 C.ar    1  UNL1        0.0660
      6 C         -24.8487   -9.7556   -8.7858 C.ar    1  UNL1        0.0924
      7 C         -23.6194   -9.8549   -8.0985 C.ar    1  UNL1        0.0227
      8 C         -22.4811   -9.1290   -8.5223 C.ar    1  UNL1        0.0535
      9 C         -22.5585   -8.3248   -9.6702 C.ar    1  UNL1        0.0159
     10 C         -23.7856   -8.2052  -10.3180 C.ar    1  UNL1        0.0150
     11 C         -25.9699  -10.6038   -8.3439 C.2     1  UNL1        0.3395
     12 O         -25.9578  -11.8401   -8.5786 O.2     1  UNL1       -0.2450
     13 O         -27.0157  -10.0631   -7.6008 O.3     1  UNL1       -0.4771
     14 H         -27.0564   -9.0724   -7.3925 H       1  UNL1        0.2954
     15 N         -21.2317   -9.2257   -7.8205 N.am    1  UNL1       -0.2499
     16 C         -20.3644   -8.1101   -7.5811 C.2     1  UNL1        0.4053
     17 O         -20.6638   -6.9599   -8.0055 O.2     1  UNL1       -0.2261
     18 H         -20.8505  -10.1775   -7.6186 H       1  UNL1        0.1582
     19 O         -19.1563   -8.3223   -6.9085 O.3     1  UNL1       -0.4383
     20 C         -18.9213   -7.8966   -5.5648 C.3     1  UNL1        0.1705
     21 C         -17.4297   -7.6816   -5.3214 C.3     1  UNL1        0.0437
     22 C         -16.8842   -8.9891   -4.7533 C.3     1  UNL1        0.0038
     23 C         -18.0845   -9.8900   -4.4822 C.3     1  UNL1        0.0038
     24 C         -19.3153   -9.0078   -4.6072 C.3     1  UNL1        0.0437
     25 C         -23.3235   -6.3667  -12.0944 C.3     1  UNL1        0.0572
     26 C         -21.2706   -7.4792  -13.1042 C.ar    1  UNL1        0.1352
     27 C         -20.6525   -8.1445  -14.1802 C.ar    1  UNL1        0.0411
     28 C         -21.3272   -8.3196  -15.3973 C.ar    1  UNL1        0.0578
     29 C         -22.6024   -7.7654  -15.5624 C.ar    1  UNL1        0.0044
     30 C         -23.2255   -7.1060  -14.5027 C.ar    1  UNL1       -0.0008
     31 C         -22.5837   -6.9859  -13.2589 C.ar    1  UNL1        0.0162
     32 C         -20.7001   -9.0775  -16.4990 C.2     1  UNL1        0.2644
     33 O         -19.9559   -8.4744  -17.3177 O.2     1  UNL1       -0.2686
     34 N         -20.9070  -10.4877  -16.6539 N.am    1  UNL1       -0.1814
     35 H         -20.1913  -11.0407  -17.1756 H       1  UNL1        0.1769
     36 S         -22.4087  -11.2692  -16.2563 S.O2    1  UNL1        0.0755
     37 O         -23.5224  -10.5151  -16.9264 O.2     1  UNL1       -0.1499
     38 O         -22.3953  -12.6912  -16.7447 O.2     1  UNL1       -0.1499
     39 C         -22.6479  -11.2905  -14.5001 C.ar    1  UNL1        0.1213
     40 C         -21.5324  -11.4857  -13.6686 C.ar    1  UNL1        0.0199
     41 C         -21.6738  -11.5056  -12.2804 C.ar    1  UNL1        0.0014
     42 C         -22.9311  -11.3388  -11.7034 C.ar    1  UNL1       -0.0002
     43 C         -24.0547  -11.1688  -12.5130 C.ar    1  UNL1       -0.0029
     44 C         -23.9340  -11.1649  -13.9142 C.ar    1  UNL1       -0.0030
     45 C         -25.1801  -11.0220  -14.7472 C.3     1  UNL1        0.0324
     46 C         -19.6901   -8.2246  -11.3091 C.3     1  UNL1        0.2525
     47 O         -20.6188   -7.3045  -11.8721 O.3     1  UNL1       -0.4717
@<TRIPOS>BOND
     1    46    47    1
     2    47    26    1
     3    26    27   ar
     4    27    28   ar
     5    28    32    1
     6    32    33    2
     7    32    34   am
     8    34    36    1
     9    36    37    2
    10    36    38    2
    11    36    39    1
    12    39    40   ar
    13    40    41   ar
    14    41    42   ar
    15    42    43   ar
    16    43    44   ar
    17    44    45    1
    18    28    29   ar
    19    29    30   ar
    20    30    31   ar
    21    31    25    1
    22    25     1    1
    23     1     2   ar
    24     2     3   ar
    25     3     4    1
    26     3     5   ar
    27     5     6   ar
    28     6    11    1
    29    11    12    2
    30    11    13    1
    31     6     7   ar
    32     7     8   ar
    33     8    15    1
    34    15    16   am
    35    16    17    2
    36    16    19    1
    37    19    20    1
    38    20    21    1
    39    21    22    1
    40    22    23    1
    41    23    24    1
    42     8     9   ar
    43     9    10   ar
    44    31    26   ar
    45    10     1   ar
    46    44    39   ar
    47    10     5   ar
    48    24    20    1
    49    34    35    1
    50    13    14    1
    51    15    18    1
@<TRIPOS>MOLECULE
*****
 47 51 0 0 0
SMALL
GASTEIGER

@<TRIPOS>ATOM
      1 C         -23.1909   -9.5190  -10.5609 C.ar    1  UNL1        0.0010
      2 C         -22.2152   -9.4563   -9.5785 C.ar    1  UNL1        0.0719
      3 N         -21.7960   -8.1805   -9.4057 N.ar    1  UNL1       -0.3241
      4 C         -20.8498   -7.7643   -8.3725 C.3     1  UNL1        0.1305
      5 C         -22.4861   -7.4213  -10.2959 C.ar    1  UNL1        0.0660
      6 C         -22.4709   -6.0213  -10.4937 C.ar    1  UNL1        0.0924
      7 C         -23.4161   -5.4771  -11.3903 C.ar    1  UNL1        0.0227
      8 C         -24.3269   -6.3051  -12.0882 C.ar    1  UNL1        0.0535
      9 C         -24.2678   -7.6975  -11.9207 C.ar    1  UNL1        0.0159
     10 C         -23.3567   -8.2201  -11.0059 C.ar    1  UNL1        0.0150
     11 C         -21.4957   -5.1125   -9.8655 C.2     1  UNL1        0.3395
     12 O         -20.6037   -4.5630  -10.5627 O.2     1  UNL1       -0.2450
     13 O         -21.5938   -4.7947   -8.5136 O.3     1  UNL1       -0.4771
     14 H         -22.3004   -5.2175   -7.9234 H       1  UNL1        0.2954
     15 N         -25.2920   -5.7516  -12.9965 N.am    1  UNL1       -0.2499
     16 C         -26.5678   -5.2412  -12.5891 C.2     1  UNL1        0.4053
     17 O         -26.9157   -5.2728  -11.3765 O.2     1  UNL1       -0.2261
     18 H         -25.1340   -5.8761  -14.0220 H       1  UNL1        0.1582
     19 O         -27.4432   -4.7478  -13.5624 O.3     1  UNL1       -0.4383
     20 C         -27.5862   -5.3333  -14.8580 C.3     1  UNL1        0.1705
     21 C         -26.6164   -4.6930  -15.8480 C.3     1  UNL1        0.0437
     22 C         -27.3740   -3.5599  -16.5349 C.3     1  UNL1        0.0038
     23 C         -28.8297   -3.6675  -16.0929 C.3     1  UNL1        0.0038
     24 C         -28.9669   -5.0157  -15.4057 C.3     1  UNL1        0.0437
     25 C         -23.9875  -10.7394  -10.9385 C.3     1  UNL1        0.0572
     26 C         -24.0493  -12.4644  -12.8072 C.ar    1  UNL1        0.1352
     27 C         -23.4414  -13.0731  -13.9219 C.ar    1  UNL1        0.0411
     28 C         -22.1368  -12.7282  -14.3041 C.ar    1  UNL1        0.0578
     29 C         -21.4101  -11.8189  -13.5259 C.ar    1  UNL1        0.0044
     30 C         -22.0026  -11.2079  -12.4207 C.ar    1  UNL1       -0.0008
     31 C         -23.3322  -11.4970  -12.0713 C.ar    1  UNL1        0.0162
     32 C         -21.5297  -13.3195  -15.5137 C.2     1  UNL1        0.2644
     33 O         -20.4408  -13.9459  -15.4145 O.2     1  UNL1       -0.2686
     34 N         -22.1553  -13.2094  -16.7990 N.am    1  UNL1       -0.1814
     35 H         -21.9228  -13.9205  -17.5274 H       1  UNL1        0.1769
     36 S         -23.0636  -11.8096  -17.2883 S.O2    1  UNL1        0.0755
     37 O         -22.9692  -11.6875  -18.7830 O.2     1  UNL1       -0.1499
     38 O         -24.5036  -11.9616  -16.8832 O.2     1  UNL1       -0.1499
     39 C         -22.4213  -10.3530  -16.5089 C.ar    1  UNL1        0.1213
     40 C         -21.0889   -9.9844  -16.7594 C.ar    1  UNL1        0.0199
     41 C         -20.5430   -8.8432  -16.1702 C.ar    1  UNL1        0.0014
     42 C         -21.3166   -8.0588  -15.3170 C.ar    1  UNL1       -0.0002
     43 C         -22.6341   -8.4223  -15.0360 C.ar    1  UNL1       -0.0029
     44 C         -23.1951   -9.5792  -15.6058 C.ar    1  UNL1       -0.0030
     45 C         -24.6062   -9.9550  -15.2389 C.3     1  UNL1        0.0324
     46 C         -26.1004  -13.8998  -12.8977 C.3     1  UNL1        0.2525
     47 O         -25.3594  -12.7847  -12.4145 O.3     1  UNL1       -0.4717
@<TRIPOS>BOND
     1    46    47    1
     2    47    26    1
     3    26    27   ar
     4    27    28   ar
     5    28    32    1
     6    32    33    2
     7    32    34   am
     8    34    36    1
     9    36    37    2
    10    36    38    2
    11    36    39    1
    12    39    40   ar
    13    40    41   ar
    14    41    42   ar
    15    42    43   ar
    16    43    44   ar
    17    44    45    1
    18    28    29   ar
    19    29    30   ar
    20    30    31   ar
    21    31    25    1
    22    25     1    1
    23     1     2   ar
    24     2     3   ar
    25     3     4    1
    26     3     5   ar
    27     5     6   ar
    28     6    11    1
    29    11    12    2
    30    11    13    1
    31     6     7   ar
    32     7     8   ar
    33     8    15    1
    34    15    16   am
    35    16    17    2
    36    16    19    1
    37    19    20    1
    38    20    21    1
    39    21    22    1
    40    22    23    1
    41    23    24    1
    42     8     9   ar
    43     9    10   ar
    44    31    26   ar
    45    10     1   ar
    46    44    39   ar
    47    10     5   ar
    48    24    20    1
    49    34    35    1
    50    13    14    1
    51    15    18    1
@<TRIPOS>MOLECULE
*****
 47 51 0 0 0
SMALL
GASTEIGER

@<TRIPOS>ATOM
      1 C         -23.1432   -9.0606  -13.0301 C.ar    1  UNL1        0.0010
      2 C         -24.3252   -8.7045  -13.6602 C.ar    1  UNL1        0.0719
      3 N         -25.3034   -8.4894  -12.7491 N.ar    1  UNL1       -0.3241
      4 C         -26.6387   -7.9991  -13.0843 C.3     1  UNL1        0.1305
      5 C         -24.7572   -8.7307  -11.5289 C.ar    1  UNL1        0.0660
      6 C         -25.3266   -8.6000  -10.2413 C.ar    1  UNL1        0.0924
      7 C         -24.4735   -8.7671   -9.1289 C.ar    1  UNL1        0.0227
      8 C         -23.1042   -9.0826   -9.2951 C.ar    1  UNL1        0.0535
      9 C         -22.5877   -9.2740  -10.5862 C.ar    1  UNL1        0.0159
     10 C         -23.4294   -9.0700  -11.6771 C.ar    1  UNL1        0.0150
     11 C         -26.7594   -8.3575   -9.9964 C.2     1  UNL1        0.3395
     12 O         -27.4770   -9.2621   -9.4960 O.2     1  UNL1       -0.2450
     13 O         -27.3179   -7.1068  -10.2460 O.3     1  UNL1       -0.4771
     14 H         -26.7689   -6.3557  -10.6471 H       1  UNL1        0.2954
     15 N         -22.2347   -9.2476   -8.1639 N.am    1  UNL1       -0.2499
     16 C         -21.2792   -8.2654   -7.7440 C.2     1  UNL1        0.4053
     17 O         -21.1452   -7.1846   -8.3816 O.2     1  UNL1       -0.2261
     18 H         -22.1721  -10.1926   -7.7222 H       1  UNL1        0.1582
     19 O         -20.4631   -8.5409   -6.6417 O.3     1  UNL1       -0.4383
     20 C         -19.0537   -8.3054   -6.6308 C.3     1  UNL1        0.1705
     21 C         -18.2890   -9.6217   -6.5162 C.3     1  UNL1        0.0437
     22 C         -18.0249   -9.8485   -5.0301 C.3     1  UNL1        0.0038
     23 C         -18.4565   -8.5788   -4.3038 C.3     1  UNL1        0.0038
     24 C         -18.6814   -7.5293   -5.3794 C.3     1  UNL1        0.0437
     25 C         -21.8074   -9.2487  -13.6985 C.3     1  UNL1        0.0572
     26 C         -21.5966  -11.7814  -13.5859 C.ar    1  UNL1        0.1352
     27 C         -21.6127  -13.0336  -14.2296 C.ar    1  UNL1        0.0411
     28 C         -21.7366  -13.1213  -15.6239 C.ar    1  UNL1        0.0578
     29 C         -21.7754  -11.9471  -16.3857 C.ar    1  UNL1        0.0044
     30 C         -21.7623  -10.7009  -15.7589 C.ar    1  UNL1       -0.0008
     31 C         -21.7072  -10.6056  -14.3585 C.ar    1  UNL1        0.0162
     32 C         -21.8215  -14.4382  -16.2870 C.2     1  UNL1        0.2644
     33 O         -20.8058  -14.9015  -16.8715 O.2     1  UNL1       -0.2686
     34 N         -23.0293  -15.2105  -16.2720 N.am    1  UNL1       -0.1814
     35 H         -22.9600  -16.2440  -16.4040 H       1  UNL1        0.1769
     36 S         -24.6105  -14.4882  -16.3167 S.O2    1  UNL1        0.0755
     37 O         -24.6108  -13.4243  -17.3779 O.2     1  UNL1       -0.1499
     38 O         -25.6443  -15.5297  -16.6443 O.2     1  UNL1       -0.1499
     39 C         -25.0137  -13.7863  -14.7399 C.ar    1  UNL1        0.1213
     40 C         -25.1633  -14.6436  -13.6370 C.ar    1  UNL1        0.0199
     41 C         -25.4764  -14.1340  -12.3761 C.ar    1  UNL1        0.0014
     42 C         -25.6524  -12.7630  -12.2003 C.ar    1  UNL1       -0.0002
     43 C         -25.5328  -11.8978  -13.2885 C.ar    1  UNL1       -0.0029
     44 C         -25.2362  -12.3953  -14.5700 C.ar    1  UNL1       -0.0030
     45 C         -25.1602  -11.4283  -15.7217 C.3     1  UNL1        0.0324
     46 C         -20.4204  -12.2081  -11.4156 C.3     1  UNL1        0.2525
     47 O         -21.4871  -11.6705  -12.1898 O.3     1  UNL1       -0.4717
@<TRIPOS>BOND
     1    46    47    1
     2    47    26    1
     3    26    27   ar
     4    27    28   ar
     5    28    32    1
     6    32    33    2
     7    32    34   am
     8    34    36    1
     9    36    37    2
    10    36    38    2
    11    36    39    1
    12    39    40   ar
    13    40    41   ar
    14    41    42   ar
    15    42    43   ar
    16    43    44   ar
    17    44    45    1
    18    28    29   ar
    19    29    30   ar
    20    30    31   ar
    21    31    25    1
    22    25     1    1
    23     1     2   ar
    24     2     3   ar
    25     3     4    1
    26     3     5   ar
    27     5     6   ar
    28     6    11    1
    29    11    12    2
    30    11    13    1
    31     6     7   ar
    32     7     8   ar
    33     8    15    1
    34    15    16   am
    35    16    17    2
    36    16    19    1
    37    19    20    1
    38    20    21    1
    39    21    22    1
    40    22    23    1
    41    23    24    1
    42     8     9   ar
    43     9    10   ar
    44    31    26   ar
    45    10     1   ar
    46    44    39   ar
    47    10     5   ar
    48    24    20    1
    49    34    35    1
    50    13    14    1
    51    15    18    1
@<TRIPOS>MOLECULE
*****
 47 51 0 0 0
SMALL
GASTEIGER

@<TRIPOS>ATOM
      1 C         -23.5554   -9.0346  -10.6105 C.ar    1  UNL1        0.0010
      2 C         -22.4029   -8.9986   -9.8414 C.ar    1  UNL1        0.0719
      3 N         -21.8453   -7.7653   -9.8782 N.ar    1  UNL1       -0.3241
      4 C         -20.6800   -7.3717   -9.0890 C.3     1  UNL1        0.1305
      5 C         -22.6273   -7.0100  -10.6926 C.ar    1  UNL1        0.0660
      6 C         -22.5264   -5.6399  -11.0273 C.ar    1  UNL1        0.0924
      7 C         -23.5777   -5.0709  -11.7784 C.ar    1  UNL1        0.0227
      8 C         -24.6790   -5.8496  -12.2060 C.ar    1  UNL1        0.0535
      9 C         -24.7128   -7.2226  -11.9157 C.ar    1  UNL1        0.0159
     10 C         -23.6892   -7.7651  -11.1425 C.ar    1  UNL1        0.0150
     11 C         -21.3686   -4.7935  -10.6880 C.2     1  UNL1        0.3395
     12 O         -20.6308   -4.3371  -11.5995 O.2     1  UNL1       -0.2450
     13 O         -21.1213   -4.4299   -9.3670 O.3     1  UNL1       -0.4771
     14 H         -21.6959   -4.7780   -8.6087 H       1  UNL1        0.2954
     15 N         -25.7514   -5.2702  -12.9656 N.am    1  UNL1       -0.2499
     16 C         -26.1565   -5.7398  -14.2577 C.2     1  UNL1        0.4053
     17 O         -25.5571   -6.7042  -14.8085 O.2     1  UNL1       -0.2261
     18 H         -26.1496   -4.3593  -12.6433 H       1  UNL1        0.1582
     19 O         -27.1984   -5.0839  -14.9219 O.3     1  UNL1       -0.4383
     20 C         -27.0781   -3.7663  -15.4617 C.3     1  UNL1        0.1705
     21 C         -28.3577   -3.3645  -16.1910 C.3     1  UNL1        0.0437
     22 C         -28.1597   -3.7302  -17.6596 C.3     1  UNL1        0.0038
     23 C         -26.7041   -4.1569  -17.8183 C.3     1  UNL1        0.0038
     24 C         -26.0008   -3.7561  -16.5324 C.3     1  UNL1        0.0437
     25 C         -24.5170  -10.1889  -10.7079 C.3     1  UNL1        0.0572
     26 C         -23.4020  -11.7697  -12.3601 C.ar    1  UNL1        0.1352
     27 C         -23.4200  -12.4553  -13.5898 C.ar    1  UNL1        0.0411
     28 C         -24.4529  -12.2421  -14.5143 C.ar    1  UNL1        0.0578
     29 C         -25.4374  -11.2860  -14.2367 C.ar    1  UNL1        0.0044
     30 C         -25.4311  -10.6022  -13.0209 C.ar    1  UNL1       -0.0008
     31 C         -24.4383  -10.8596  -12.0610 C.ar    1  UNL1        0.0162
     32 C         -24.5032  -13.0140  -15.7724 C.2     1  UNL1        0.2644
     33 O         -25.2631  -14.0160  -15.8517 O.2     1  UNL1       -0.2686
     34 N         -23.7168  -12.6443  -16.9128 N.am    1  UNL1       -0.1814
     35 H         -24.0366  -12.9520  -17.8579 H       1  UNL1        0.1769
     36 S         -22.1287  -11.9489  -16.7772 S.O2    1  UNL1        0.0755
     37 O         -21.3105  -12.8207  -15.8669 O.2     1  UNL1       -0.1499
     38 O         -21.4783  -11.8802  -18.1310 O.2     1  UNL1       -0.1499
     39 C         -22.2288  -10.3025  -16.1282 C.ar    1  UNL1        0.1213
     40 C         -21.6855  -10.0424  -14.8589 C.ar    1  UNL1        0.0199
     41 C         -21.7384   -8.7601  -14.3108 C.ar    1  UNL1        0.0014
     42 C         -22.3410   -7.7219  -15.0183 C.ar    1  UNL1       -0.0002
     43 C         -22.9085   -7.9657  -16.2694 C.ar    1  UNL1       -0.0029
     44 C         -22.8812   -9.2556  -16.8293 C.ar    1  UNL1       -0.0030
     45 C         -23.5449   -9.4800  -18.1620 C.3     1  UNL1        0.0324
     46 C         -20.9913  -11.8857  -11.6888 C.3     1  UNL1        0.2525
     47 O         -22.3848  -11.9777  -11.4138 O.3     1  UNL1       -0.4717
@<TRIPOS>BOND
     1    46    47    1
     2    47    26    1
     3    26    27   ar
     4    27    28   ar
     5    28    32    1
     6    32    33    2
     7    32    34   am
     8    34    36    1
     9    36    37    2
    10    36    38    2
    11    36    39    1
    12    39    40   ar
    13    40    41   ar
    14    41    42   ar
    15    42    43   ar
    16    43    44   ar
    17    44    45    1
    18    28    29   ar
    19    29    30   ar
    20    30    31   ar
    21    31    25    1
    22    25     1    1
    23     1     2   ar
    24     2     3   ar
    25     3     4    1
    26     3     5   ar
    27     5     6   ar
    28     6    11    1
    29    11    12    2
    30    11    13    1
    31     6     7   ar
    32     7     8   ar
    33     8    15    1
    34    15    16   am
    35    16    17    2
    36    16    19    1
    37    19    20    1
    38    20    21    1
    39    21    22    1
    40    22    23    1
    41    23    24    1
    42     8     9   ar
    43     9    10   ar
    44    31    26   ar
    45    10     1   ar
    46    44    39   ar
    47    10     5   ar
    48    24    20    1
    49    34    35    1
    50    13    14    1
    51    15    18    1
@<TRIPOS>MOLECULE
*****
 47 51 0 0 0
SMALL
GASTEIGER

@<TRIPOS>ATOM
      1 C         -23.0371   -8.1287  -12.3624 C.ar    1  UNL1        0.0010
      2 C         -22.7544   -8.7232  -11.1427 C.ar    1  UNL1        0.0719
      3 N         -23.8698   -8.7937  -10.3784 N.ar    1  UNL1       -0.3241
      4 C         -23.9290   -9.4599   -9.0790 C.3     1  UNL1        0.1305
      5 C         -24.8699   -8.2214  -11.0977 C.ar    1  UNL1        0.0660
      6 C         -26.2429   -8.0856  -10.7884 C.ar    1  UNL1        0.0924
      7 C         -27.0943   -7.5853  -11.7974 C.ar    1  UNL1        0.0227
      8 C         -26.5881   -7.2059  -13.0631 C.ar    1  UNL1        0.0535
      9 C         -25.2091   -7.2882  -13.3124 C.ar    1  UNL1        0.0159
     10 C         -24.3842   -7.8180  -12.3231 C.ar    1  UNL1        0.0150
     11 C         -26.8210   -8.3808   -9.4654 C.2     1  UNL1        0.3395
     12 O         -27.0062   -9.5732   -9.1084 O.2     1  UNL1       -0.2450
     13 O         -27.0996   -7.3519   -8.5697 O.3     1  UNL1       -0.4771
     14 H         -26.9613   -6.3810   -8.8237 H       1  UNL1        0.2954
     15 N         -27.4545   -6.7017  -14.0917 N.am    1  UNL1       -0.2499
     16 C         -27.3690   -5.3742  -14.6250 C.2     1  UNL1        0.4053
     17 O         -26.5109   -4.5591  -14.1870 O.2     1  UNL1       -0.2261
     18 H         -28.2954   -7.2658  -14.3502 H       1  UNL1        0.1582
     19 O         -28.2819   -4.9782  -15.6084 O.3     1  UNL1       -0.4383
     20 C         -28.5851   -3.6109  -15.8922 C.3     1  UNL1        0.1705
     21 C         -29.9919   -3.4804  -16.4703 C.3     1  UNL1        0.0437
     22 C         -29.8481   -3.5190  -17.9894 C.3     1  UNL1        0.0038
     23 C         -28.3547   -3.4717  -18.2951 C.3     1  UNL1        0.0038
     24 C         -27.6650   -3.1076  -16.9910 C.3     1  UNL1        0.0437
     25 C         -22.0865   -7.9961  -13.5223 C.3     1  UNL1        0.0572
     26 C         -22.8741   -9.1789  -15.6323 C.ar    1  UNL1        0.1352
     27 C         -22.8193  -10.2878  -16.4982 C.ar    1  UNL1        0.0411
     28 C         -22.0505  -11.4146  -16.1719 C.ar    1  UNL1        0.0578
     29 C         -21.3872  -11.4609  -14.9397 C.ar    1  UNL1        0.0044
     30 C         -21.4326  -10.3674  -14.0747 C.ar    1  UNL1       -0.0008
     31 C         -22.1447   -9.2082  -14.4246 C.ar    1  UNL1        0.0162
     32 C         -21.9422  -12.5461  -17.1149 C.2     1  UNL1        0.2644
     33 O         -22.1167  -12.3422  -18.3461 O.2     1  UNL1       -0.2686
     34 N         -21.6306  -13.8715  -16.6657 N.am    1  UNL1       -0.1814
     35 H         -21.2035  -14.5391  -17.3455 H       1  UNL1        0.1769
     36 S         -22.1732  -14.5007  -15.1381 S.O2    1  UNL1        0.0755
     37 O         -22.3881  -15.9803  -15.2893 O.2     1  UNL1       -0.1499
     38 O         -21.1377  -14.2458  -14.0781 O.2     1  UNL1       -0.1499
     39 C         -23.6783  -13.7066  -14.6424 C.ar    1  UNL1        0.1213
     40 C         -23.6384  -12.7834  -13.5841 C.ar    1  UNL1        0.0199
     41 C         -24.7985  -12.1317  -13.1634 C.ar    1  UNL1        0.0014
     42 C         -26.0153  -12.3982  -13.7877 C.ar    1  UNL1       -0.0002
     43 C         -26.0800  -13.3304  -14.8239 C.ar    1  UNL1       -0.0029
     44 C         -24.9246  -14.0106  -15.2486 C.ar    1  UNL1       -0.0030
     45 C         -25.0511  -15.0394  -16.3407 C.3     1  UNL1        0.0324
     46 C         -23.3592   -7.1630  -17.0382 C.3     1  UNL1        0.2525
     47 O         -23.6267   -8.0347  -15.9452 O.3     1  UNL1       -0.4717
@<TRIPOS>BOND
     1    46    47    1
     2    47    26    1
     3    26    27   ar
     4    27    28   ar
     5    28    32    1
     6    32    33    2
     7    32    34   am
     8    34    36    1
     9    36    37    2
    10    36    38    2
    11    36    39    1
    12    39    40   ar
    13    40    41   ar
    14    41    42   ar
    15    42    43   ar
    16    43    44   ar
    17    44    45    1
    18    28    29   ar
    19    29    30   ar
    20    30    31   ar
    21    31    25    1
    22    25     1    1
    23     1     2   ar
    24     2     3   ar
    25     3     4    1
    26     3     5   ar
    27     5     6   ar
    28     6    11    1
    29    11    12    2
    30    11    13    1
    31     6     7   ar
    32     7     8   ar
    33     8    15    1
    34    15    16   am
    35    16    17    2
    36    16    19    1
    37    19    20    1
    38    20    21    1
    39    21    22    1
    40    22    23    1
    41    23    24    1
    42     8     9   ar
    43     9    10   ar
    44    31    26   ar
    45    10     1   ar
    46    44    39   ar
    47    10     5   ar
    48    24    20    1
    49    34    35    1
    50    13    14    1
    51    15    18    1
