@<TRIPOS>MOLECULE
*****
 46 51 0 0 0
SMALL
GASTEIGER

@<TRIPOS>ATOM
      1 C          11.8908   80.6542   25.1016 C.ar    1  UNL1        0.0702
      2 C          11.2105   81.8455   24.8273 C.ar    1  UNL1        0.0191
      3 C          11.9165   82.9941   24.4670 C.ar    1  UNL1        0.0356
      4 C          13.3216   82.9559   24.3970 C.ar    1  UNL1        0.1318
      5 N          13.9598   81.7889   24.6954 N.ar    1  UNL1       -0.2279
      6 C          13.2928   80.6575   25.0447 C.ar    1  UNL1        0.1149
      7 N          14.0920   84.1220   24.0180 N.pl3   1  UNL1       -0.2932
      8 C          15.0645   84.0536   22.9154 C.3     1  UNL1        0.0923
      9 C          14.7905   85.1499   21.8724 C.3     1  UNL1        0.0252
     10 C          14.2773   86.4799   22.4902 C.3     1  UNL1        0.0472
     11 C          14.5915   86.5663   23.9944 C.3     1  UNL1        0.0252
     12 C          13.9296   85.3976   24.7392 C.3     1  UNL1        0.0923
     13 C          14.8446   87.6994   21.7491 C.3     1  UNL1        0.2054
     14 O          16.2242   87.4875   21.4557 O.3     1  UNL1       -0.4755
     15 C          17.2834   88.1395   22.1040 C.ar    1  UNL1        0.1388
     16 C          18.2645   88.8642   21.4029 C.ar    1  UNL1        0.0369
     17 C          19.2920   89.5053   22.0967 C.ar    1  UNL1        0.0033
     18 C          19.3563   89.4268   23.4893 C.ar    1  UNL1        0.0066
     19 C          18.3936   88.6960   24.2076 C.ar    1  UNL1        0.0785
     20 C          17.3544   88.0623   23.5009 C.ar    1  UNL1        0.0433
     21 C          18.4722   88.6226   25.6871 C.2     1  UNL1        0.3381
     22 O          17.4248   88.4281   26.3596 O.2     1  UNL1       -0.2451
     23 O          19.6794   88.7791   26.3676 O.3     1  UNL1       -0.4771
     24 H          20.5384   89.0407   25.9019 H       1  UNL1        0.2954
     25 C          10.1320   79.4807   26.5071 C.2     1  UNL1        0.2839
     26 O          10.0097   80.4617   27.2890 O.2     1  UNL1       -0.2665
     27 N          11.1506   79.4853   25.4937 N.am    1  UNL1       -0.2766
     28 H          11.4297   78.5691   25.0750 H       1  UNL1        0.1553
     29 C           7.8810   75.3074   25.5058 C.ar    1  UNL1        0.0123
     30 C           6.9699   74.4665   26.1792 C.ar    1  UNL1       -0.0013
     31 C           6.4766   74.8050   27.4675 C.ar    1  UNL1       -0.0001
     32 C           6.9152   75.9977   28.0884 C.ar    1  UNL1        0.0028
     33 C           7.8270   76.8027   27.4055 C.ar    1  UNL1        0.0334
     34 C           8.4349   77.9957   27.7478 C.ar    1  UNL1        0.0202
     35 C           8.2622   78.7797   29.0139 C.3     1  UNL1        0.0345
     36 C           9.2548   78.3044   26.6575 C.ar    1  UNL1        0.1946
     37 O           9.1437   77.3703   25.7307 O.2     1  UNL1       -0.4495
     38 C           8.2948   76.4685   26.1625 C.ar    1  UNL1        0.1412
     39 C           5.5128   73.9120   28.1593 C.ar    1  UNL1       -0.0000
     40 C           5.3673   72.5699   27.7597 C.ar    1  UNL1       -0.0000
     41 C           4.4586   71.7312   28.4123 C.ar    1  UNL1       -0.0000
     42 C           3.6872   72.2203   29.4689 C.ar    1  UNL1        0.0000
     43 C           3.8225   73.5497   29.8749 C.ar    1  UNL1       -0.0000
     44 C           4.7291   74.3932   29.2253 C.ar    1  UNL1       -0.0000
     45 C           7.6388   73.7851   23.5478 C.3     1  UNL1        0.0051
     46 C           8.4372   74.9311   24.1597 C.3     1  UNL1        0.0295
@<TRIPOS>BOND
     1    45    46    1
     2    46    29    1
     3    29    30   ar
     4    30    31   ar
     5    31    39    1
     6    39    40   ar
     7    40    41   ar
     8    41    42   ar
     9    42    43   ar
    10    43    44   ar
    11    31    32   ar
    12    32    33   ar
    13    33    34   ar
    14    34    35    1
    15    34    36   ar
    16    36    25    1
    17    25    26    2
    18    25    27   am
    19    27     1    1
    20     1     2   ar
    21     2     3   ar
    22     3     4   ar
    23     4     7    1
    24     7     8    1
    25     8     9    1
    26     9    10    1
    27    10    13    1
    28    13    14    1
    29    14    15    1
    30    15    16   ar
    31    16    17   ar
    32    17    18   ar
    33    18    19   ar
    34    19    21    1
    35    21    22    2
    36    21    23    1
    37    19    20   ar
    38    10    11    1
    39    11    12    1
    40     4     5   ar
    41     5     6   ar
    42    36    37   ar
    43    37    38   ar
    44    38    29   ar
    45    44    39   ar
    46    38    33   ar
    47     6     1   ar
    48    12     7    1
    49    20    15   ar
    50    27    28    1
    51    23    24    1
@<TRIPOS>MOLECULE
*****
 46 51 0 0 0
SMALL
GASTEIGER

@<TRIPOS>ATOM
      1 C          11.8885   80.6023   25.0787 C.ar    1  UNL1        0.0702
      2 C          11.2107   81.7745   24.7268 C.ar    1  UNL1        0.0191
      3 C          11.9218   82.9116   24.3409 C.ar    1  UNL1        0.0356
      4 C          13.3287   82.8818   24.3233 C.ar    1  UNL1        0.1318
      5 N          13.9633   81.7347   24.6966 N.ar    1  UNL1       -0.2279
      6 C          13.2916   80.6146   25.0721 C.ar    1  UNL1        0.1149
      7 N          14.1046   84.0362   23.9203 N.pl3   1  UNL1       -0.2932
      8 C          15.1707   83.9100   22.9134 C.3     1  UNL1        0.0923
      9 C          14.9657   84.9148   21.7674 C.3     1  UNL1        0.0252
     10 C          14.3730   86.2737   22.2322 C.3     1  UNL1        0.0472
     11 C          14.5532   86.4843   23.7461 C.3     1  UNL1        0.0252
     12 C          13.8535   85.3586   24.5219 C.3     1  UNL1        0.0923
     13 C          14.9771   87.4477   21.4480 C.3     1  UNL1        0.2054
     14 O          14.0554   87.8892   20.4530 O.3     1  UNL1       -0.4755
     15 C          14.1657   87.6015   19.0847 C.ar    1  UNL1        0.1388
     16 C          14.0797   88.5984   18.0957 C.ar    1  UNL1        0.0369
     17 C          14.2080   88.2611   16.7474 C.ar    1  UNL1        0.0033
     18 C          14.4164   86.9327   16.3712 C.ar    1  UNL1        0.0066
     19 C          14.4914   85.9196   17.3433 C.ar    1  UNL1        0.0785
     20 C          14.3725   86.2702   18.7012 C.ar    1  UNL1        0.0433
     21 C          14.7155   84.5126   16.9302 C.2     1  UNL1        0.3381
     22 O          15.8467   84.1596   16.5024 O.2     1  UNL1       -0.2451
     23 O          13.6990   83.5595   16.9858 O.3     1  UNL1       -0.4771
     24 H          12.7429   83.7943   17.2185 H       1  UNL1        0.2954
     25 C          10.1102   79.4723   26.4953 C.2     1  UNL1        0.2839
     26 O           9.9783   80.4766   27.2456 O.2     1  UNL1       -0.2665
     27 N          11.1422   79.4460   25.4960 N.am    1  UNL1       -0.2766
     28 H          11.4262   78.5175   25.1089 H       1  UNL1        0.1553
     29 C           7.8550   75.2812   25.5820 C.ar    1  UNL1        0.0123
     30 C           6.9398   74.4577   26.2712 C.ar    1  UNL1       -0.0013
     31 C           6.4422   74.8268   27.5495 C.ar    1  UNL1       -0.0001
     32 C           6.8808   76.0327   28.1443 C.ar    1  UNL1        0.0028
     33 C           7.7967   76.8201   27.4466 C.ar    1  UNL1        0.0334
     34 C           8.4056   78.0195   27.7635 C.ar    1  UNL1        0.0202
     35 C           8.2296   78.8328   29.0105 C.3     1  UNL1        0.0345
     36 C           9.2302   78.3015   26.6695 C.ar    1  UNL1        0.1946
     37 O           9.1208   77.3464   25.7641 O.2     1  UNL1       -0.4495
     38 C           8.2685   76.4564   26.2134 C.ar    1  UNL1        0.1412
     39 C           5.4742   73.9517   28.2579 C.ar    1  UNL1       -0.0000
     40 C           5.2850   72.6173   27.8509 C.ar    1  UNL1       -0.0000
     41 C           4.3724   71.7956   28.5193 C.ar    1  UNL1       -0.0000
     42 C           3.6403   72.2941   29.5993 C.ar    1  UNL1        0.0000
     43 C           3.8191   73.6160   30.0129 C.ar    1  UNL1       -0.0000
     44 C           4.7298   74.4426   29.3476 C.ar    1  UNL1       -0.0000
     45 C           7.5359   73.8118   23.5948 C.3     1  UNL1        0.0051
     46 C           8.4156   74.8729   24.2471 C.3     1  UNL1        0.0295
@<TRIPOS>BOND
     1    45    46    1
     2    46    29    1
     3    29    30   ar
     4    30    31   ar
     5    31    39    1
     6    39    40   ar
     7    40    41   ar
     8    41    42   ar
     9    42    43   ar
    10    43    44   ar
    11    31    32   ar
    12    32    33   ar
    13    33    34   ar
    14    34    35    1
    15    34    36   ar
    16    36    25    1
    17    25    26    2
    18    25    27   am
    19    27     1    1
    20     1     2   ar
    21     2     3   ar
    22     3     4   ar
    23     4     7    1
    24     7     8    1
    25     8     9    1
    26     9    10    1
    27    10    13    1
    28    13    14    1
    29    14    15    1
    30    15    16   ar
    31    16    17   ar
    32    17    18   ar
    33    18    19   ar
    34    19    21    1
    35    21    22    2
    36    21    23    1
    37    19    20   ar
    38    10    11    1
    39    11    12    1
    40     4     5   ar
    41     5     6   ar
    42    36    37   ar
    43    37    38   ar
    44    38    29   ar
    45    44    39   ar
    46    38    33   ar
    47     6     1   ar
    48    12     7    1
    49    20    15   ar
    50    27    28    1
    51    23    24    1
@<TRIPOS>MOLECULE
*****
 46 51 0 0 0
SMALL
GASTEIGER

@<TRIPOS>ATOM
      1 C          11.8906   80.7150   25.1231 C.ar    1  UNL1        0.0702
      2 C          11.2255   81.9347   24.9583 C.ar    1  UNL1        0.0191
      3 C          11.9350   83.0826   24.6023 C.ar    1  UNL1        0.0356
      4 C          13.3295   83.0138   24.4259 C.ar    1  UNL1        0.1318
      5 N          13.9551   81.8182   24.6191 N.ar    1  UNL1       -0.2279
      6 C          13.2842   80.6872   24.9620 C.ar    1  UNL1        0.1149
      7 N          14.1024   84.1785   24.0475 N.pl3   1  UNL1       -0.2932
      8 C          14.9918   84.1410   22.8754 C.3     1  UNL1        0.0923
      9 C          14.6741   85.2931   21.9076 C.3     1  UNL1        0.0252
     10 C          14.2424   86.6031   22.6228 C.3     1  UNL1        0.0472
     11 C          14.6651   86.6085   24.1027 C.3     1  UNL1        0.0252
     12 C          14.0263   85.4209   24.8377 C.3     1  UNL1        0.0923
     13 C          14.7884   87.8436   21.9008 C.3     1  UNL1        0.2054
     14 O          14.8029   87.6157   20.4928 O.3     1  UNL1       -0.4755
     15 C          13.8630   88.1403   19.5936 C.ar    1  UNL1        0.1388
     16 C          12.5892   88.5751   20.0033 C.ar    1  UNL1        0.0369
     17 C          11.6942   89.1008   19.0701 C.ar    1  UNL1        0.0033
     18 C          12.0546   89.1931   17.7242 C.ar    1  UNL1        0.0066
     19 C          13.3175   88.7512   17.2922 C.ar    1  UNL1        0.0785
     20 C          14.2180   88.2331   18.2417 C.ar    1  UNL1        0.0433
     21 C          13.6885   88.8570   15.8598 C.2     1  UNL1        0.3381
     22 O          12.7863   88.8810   14.9808 O.2     1  UNL1       -0.2451
     23 O          15.0195   88.9162   15.4478 O.3     1  UNL1       -0.4771
     24 H          15.7945   88.7971   16.0871 H       1  UNL1        0.2954
     25 C          10.1597   79.5312   26.5544 C.2     1  UNL1        0.2839
     26 O          10.0710   80.4970   27.3596 O.2     1  UNL1       -0.2665
     27 N          11.1487   79.5462   25.5123 N.am    1  UNL1       -0.2766
     28 H          11.4053   78.6360   25.0669 H       1  UNL1        0.1553
     29 C           7.8826   75.3706   25.5594 C.ar    1  UNL1        0.0123
     30 C           6.9637   74.5382   26.2327 C.ar    1  UNL1       -0.0013
     31 C           6.4690   74.8841   27.5185 C.ar    1  UNL1       -0.0001
     32 C           6.9141   76.0757   28.1370 C.ar    1  UNL1        0.0028
     33 C           7.8334   76.8722   27.4543 C.ar    1  UNL1        0.0334
     34 C           8.4486   78.0620   27.7947 C.ar    1  UNL1        0.0202
     35 C           8.2777   78.8510   29.0579 C.3     1  UNL1        0.0345
     36 C           9.2738   78.3616   26.7058 C.ar    1  UNL1        0.1946
     37 O           9.1590   77.4254   25.7816 O.2     1  UNL1       -0.4495
     38 C           8.3025   76.5308   26.2137 C.ar    1  UNL1        0.1412
     39 C           5.4970   73.9999   28.2102 C.ar    1  UNL1       -0.0000
     40 C           4.7117   74.4910   29.2704 C.ar    1  UNL1       -0.0000
     41 C           3.7977   73.6562   29.9205 C.ar    1  UNL1       -0.0000
     42 C           3.6564   72.3254   29.5208 C.ar    1  UNL1        0.0000
     43 C           4.4295   71.8264   28.4702 C.ar    1  UNL1       -0.0000
     44 C           5.3458   72.6565   27.8171 C.ar    1  UNL1       -0.0000
     45 C           7.6730   73.8048   23.6321 C.3     1  UNL1        0.0051
     46 C           8.4401   74.9863   24.2160 C.3     1  UNL1        0.0295
@<TRIPOS>BOND
     1    45    46    1
     2    46    29    1
     3    29    30   ar
     4    30    31   ar
     5    31    39    1
     6    39    40   ar
     7    40    41   ar
     8    41    42   ar
     9    42    43   ar
    10    43    44   ar
    11    31    32   ar
    12    32    33   ar
    13    33    34   ar
    14    34    35    1
    15    34    36   ar
    16    36    25    1
    17    25    26    2
    18    25    27   am
    19    27     1    1
    20     1     2   ar
    21     2     3   ar
    22     3     4   ar
    23     4     7    1
    24     7     8    1
    25     8     9    1
    26     9    10    1
    27    10    13    1
    28    13    14    1
    29    14    15    1
    30    15    16   ar
    31    16    17   ar
    32    17    18   ar
    33    18    19   ar
    34    19    21    1
    35    21    22    2
    36    21    23    1
    37    19    20   ar
    38    10    11    1
    39    11    12    1
    40     4     5   ar
    41     5     6   ar
    42    36    37   ar
    43    37    38   ar
    44    38    29   ar
    45    44    39   ar
    46    38    33   ar
    47     6     1   ar
    48    12     7    1
    49    20    15   ar
    50    27    28    1
    51    23    24    1
@<TRIPOS>MOLECULE
*****
 46 51 0 0 0
SMALL
GASTEIGER

@<TRIPOS>ATOM
      1 C          11.8165   80.7863   25.2190 C.ar    1  UNL1        0.0702
      2 C          13.2016   80.7135   25.0356 C.ar    1  UNL1        0.0191
      3 C          13.9261   81.8508   24.6758 C.ar    1  UNL1        0.0356
      4 C          13.2552   83.0722   24.4800 C.ar    1  UNL1        0.1318
      5 N          11.9019   83.1080   24.6395 N.ar    1  UNL1       -0.2279
      6 C          11.1766   82.0144   24.9932 C.ar    1  UNL1        0.1149
      7 N          13.9699   84.2778   24.1156 N.pl3   1  UNL1       -0.2932
      8 C          14.6867   84.3671   22.8332 C.3     1  UNL1        0.0923
      9 C          14.2392   85.6054   22.0388 C.3     1  UNL1        0.0252
     10 C          13.9144   86.8330   22.9340 C.3     1  UNL1        0.0472
     11 C          14.5397   86.6969   24.3338 C.3     1  UNL1        0.0252
     12 C          14.0076   85.4348   25.0285 C.3     1  UNL1        0.0923
     13 C          14.3566   88.1452   22.2702 C.3     1  UNL1        0.2054
     14 O          13.2482   88.7473   21.6044 O.3     1  UNL1       -0.4755
     15 C          13.1191   88.8510   20.2116 C.ar    1  UNL1        0.1388
     16 C          14.2215   88.7513   19.3432 C.ar    1  UNL1        0.0369
     17 C          14.0377   88.8496   17.9630 C.ar    1  UNL1        0.0033
     18 C          12.7607   89.0531   17.4361 C.ar    1  UNL1        0.0066
     19 C          11.6480   89.1694   18.2877 C.ar    1  UNL1        0.0785
     20 C          11.8408   89.0575   19.6774 C.ar    1  UNL1        0.0433
     21 C          10.2965   89.3831   17.7146 C.2     1  UNL1        0.3381
     22 O          10.1588   89.5075   16.4685 O.2     1  UNL1       -0.2451
     23 O           9.1615   89.4675   18.5204 O.3     1  UNL1       -0.4771
     24 H           9.2093   89.4812   19.5308 H       1  UNL1        0.2954
     25 C          10.0978   79.5426   26.6136 C.2     1  UNL1        0.2839
     26 O          10.0102   80.4767   27.4554 O.2     1  UNL1       -0.2665
     27 N          11.0810   79.6008   25.5675 N.am    1  UNL1       -0.2766
     28 H          11.3383   78.7092   25.0865 H       1  UNL1        0.1553
     29 C           7.7790   75.4500   25.4478 C.ar    1  UNL1        0.0123
     30 C           6.8855   74.5759   26.1024 C.ar    1  UNL1       -0.0013
     31 C           6.4409   74.8400   27.4254 C.ar    1  UNL1       -0.0001
     32 C           6.9109   75.9909   28.0998 C.ar    1  UNL1        0.0028
     33 C           7.8044   76.8297   27.4337 C.ar    1  UNL1        0.0334
     34 C           8.4337   77.9965   27.8241 C.ar    1  UNL1        0.0202
     35 C           8.3123   78.7046   29.1399 C.3     1  UNL1        0.0345
     36 C           9.2169   78.3647   26.7253 C.ar    1  UNL1        0.1946
     37 O           9.0655   77.4882   25.7494 O.2     1  UNL1       -0.4495
     38 C           8.2251   76.5673   26.1570 C.ar    1  UNL1        0.1412
     39 C           5.4951   73.9131   28.0970 C.ar    1  UNL1       -0.0000
     40 C           5.4220   72.5613   27.7104 C.ar    1  UNL1       -0.0000
     41 C           4.5301   71.6907   28.3440 C.ar    1  UNL1       -0.0000
     42 C           3.7034   72.1572   29.3685 C.ar    1  UNL1        0.0000
     43 C           3.7666   73.4959   29.7614 C.ar    1  UNL1       -0.0000
     44 C           4.6561   74.3713   29.1307 C.ar    1  UNL1       -0.0000
     45 C           7.1221   74.8986   23.1080 C.3     1  UNL1        0.0051
     46 C           8.2840   75.1512   24.0626 C.3     1  UNL1        0.0295
@<TRIPOS>BOND
     1    45    46    1
     2    46    29    1
     3    29    30   ar
     4    30    31   ar
     5    31    39    1
     6    39    40   ar
     7    40    41   ar
     8    41    42   ar
     9    42    43   ar
    10    43    44   ar
    11    31    32   ar
    12    32    33   ar
    13    33    34   ar
    14    34    35    1
    15    34    36   ar
    16    36    25    1
    17    25    26    2
    18    25    27   am
    19    27     1    1
    20     1     2   ar
    21     2     3   ar
    22     3     4   ar
    23     4     7    1
    24     7     8    1
    25     8     9    1
    26     9    10    1
    27    10    13    1
    28    13    14    1
    29    14    15    1
    30    15    16   ar
    31    16    17   ar
    32    17    18   ar
    33    18    19   ar
    34    19    21    1
    35    21    22    2
    36    21    23    1
    37    19    20   ar
    38    10    11    1
    39    11    12    1
    40     4     5   ar
    41     5     6   ar
    42    36    37   ar
    43    37    38   ar
    44    38    29   ar
    45    44    39   ar
    46    38    33   ar
    47     6     1   ar
    48    12     7    1
    49    20    15   ar
    50    27    28    1
    51    23    24    1
@<TRIPOS>MOLECULE
*****
 46 51 0 0 0
SMALL
GASTEIGER

@<TRIPOS>ATOM
      1 C          11.3868   81.4184   25.3813 C.ar    1  UNL1        0.0702
      2 C          12.2569   82.0388   26.2843 C.ar    1  UNL1        0.0191
      3 C          13.1822   82.9829   25.8368 C.ar    1  UNL1        0.0356
      4 C          13.2502   83.2978   24.4669 C.ar    1  UNL1        0.1318
      5 N          12.4086   82.6584   23.6061 N.ar    1  UNL1       -0.2279
      6 C          11.4974   81.7389   24.0198 C.ar    1  UNL1        0.1149
      7 N          14.1889   84.2782   23.9619 N.pl3   1  UNL1       -0.2932
      8 C          15.0383   83.9749   22.7988 C.3     1  UNL1        0.0923
      9 C          14.8866   85.0524   21.7121 C.3     1  UNL1        0.0252
     10 C          14.6801   86.4832   22.2813 C.3     1  UNL1        0.0472
     11 C          15.1273   86.5802   23.7508 C.3     1  UNL1        0.0252
     12 C          14.3245   85.5943   24.6123 C.3     1  UNL1        0.0923
     13 C          15.4000   87.5370   21.4272 C.3     1  UNL1        0.2054
     14 O          15.1520   87.2896   20.0445 O.3     1  UNL1       -0.4755
     15 C          14.1211   87.8857   19.3034 C.ar    1  UNL1        0.1388
     16 C          12.8967   88.2637   19.8843 C.ar    1  UNL1        0.0369
     17 C          11.9070   88.8647   19.1050 C.ar    1  UNL1        0.0033
     18 C          12.1230   89.0892   17.7438 C.ar    1  UNL1        0.0066
     19 C          13.3342   88.7061   17.1412 C.ar    1  UNL1        0.0785
     20 C          14.3312   88.1112   17.9369 C.ar    1  UNL1        0.0433
     21 C          13.5516   88.9524   15.6947 C.2     1  UNL1        0.3381
     22 O          12.5623   89.0294   14.9184 O.2     1  UNL1       -0.2451
     23 O          14.8309   89.0879   15.1563 O.3     1  UNL1       -0.4771
     24 H          15.6705   88.9342   15.6993 H       1  UNL1        0.2954
     25 C          10.8152   79.0831   26.1972 C.2     1  UNL1        0.2839
     26 O          11.9371   78.6200   25.8569 O.2     1  UNL1       -0.2665
     27 N          10.4545   80.4311   25.8546 N.am    1  UNL1       -0.2766
     28 H           9.4410   80.6862   25.8697 H       1  UNL1        0.1553
     29 C           8.1369   77.2429   29.7925 C.ar    1  UNL1        0.0123
     30 C           7.1698   76.2222   29.9086 C.ar    1  UNL1       -0.0013
     31 C           6.8024   75.4314   28.7873 C.ar    1  UNL1       -0.0001
     32 C           7.4076   75.6799   27.5333 C.ar    1  UNL1        0.0028
     33 C           8.3499   76.7044   27.4446 C.ar    1  UNL1        0.0334
     34 C           9.0888   77.1828   26.3792 C.ar    1  UNL1        0.0202
     35 C           9.0689   76.6967   24.9612 C.3     1  UNL1        0.0345
     36 C           9.8508   78.2270   26.9133 C.ar    1  UNL1        0.1946
     37 O           9.5917   78.3617   28.2012 O.2     1  UNL1       -0.4495
     38 C           8.6990   77.4597   28.5325 C.ar    1  UNL1        0.1412
     39 C           5.7876   74.3566   28.9286 C.ar    1  UNL1       -0.0000
     40 C           4.8223   74.4140   29.9519 C.ar    1  UNL1       -0.0000
     41 C           3.8683   73.4003   30.0832 C.ar    1  UNL1       -0.0000
     42 C           3.8658   72.3208   29.1970 C.ar    1  UNL1        0.0000
     43 C           4.8179   72.2525   28.1776 C.ar    1  UNL1       -0.0000
     44 C           5.7750   73.2629   28.0420 C.ar    1  UNL1       -0.0000
     45 C           8.3462   79.5854   30.6166 C.3     1  UNL1        0.0051
     46 C           8.4976   78.1094   30.9682 C.3     1  UNL1        0.0295
@<TRIPOS>BOND
     1    45    46    1
     2    46    29    1
     3    29    30   ar
     4    30    31   ar
     5    31    39    1
     6    39    40   ar
     7    40    41   ar
     8    41    42   ar
     9    42    43   ar
    10    43    44   ar
    11    31    32   ar
    12    32    33   ar
    13    33    34   ar
    14    34    35    1
    15    34    36   ar
    16    36    25    1
    17    25    26    2
    18    25    27   am
    19    27     1    1
    20     1     2   ar
    21     2     3   ar
    22     3     4   ar
    23     4     7    1
    24     7     8    1
    25     8     9    1
    26     9    10    1
    27    10    13    1
    28    13    14    1
    29    14    15    1
    30    15    16   ar
    31    16    17   ar
    32    17    18   ar
    33    18    19   ar
    34    19    21    1
    35    21    22    2
    36    21    23    1
    37    19    20   ar
    38    10    11    1
    39    11    12    1
    40     4     5   ar
    41     5     6   ar
    42    36    37   ar
    43    37    38   ar
    44    38    29   ar
    45    44    39   ar
    46    38    33   ar
    47     6     1   ar
    48    12     7    1
    49    20    15   ar
    50    27    28    1
    51    23    24    1
@<TRIPOS>MOLECULE
*****
 46 51 0 0 0
SMALL
GASTEIGER

@<TRIPOS>ATOM
      1 C          10.8929   81.6179   24.9321 C.ar    1  UNL1        0.0702
      2 C          10.4961   80.8682   23.8195 C.ar    1  UNL1        0.0191
      3 C           9.7681   79.6893   23.9865 C.ar    1  UNL1        0.0356
      4 C           9.4479   79.2451   25.2829 C.ar    1  UNL1        0.1318
      5 N           9.8702   79.9813   26.3496 N.ar    1  UNL1       -0.2279
      6 C          10.5766   81.1340   26.2106 C.ar    1  UNL1        0.1149
      7 N           8.6863   78.0328   25.5004 N.pl3   1  UNL1       -0.2932
      8 C           8.2105   77.6763   26.8469 C.3     1  UNL1        0.0923
      9 C           6.6939   77.4222   26.8441 C.3     1  UNL1        0.0252
     10 C           6.1794   76.7514   25.5406 C.3     1  UNL1        0.0472
     11 C           7.3220   76.0805   24.7575 C.3     1  UNL1        0.0252
     12 C           8.3854   77.1224   24.3804 C.3     1  UNL1        0.0923
     13 C           5.0594   75.7421   25.8323 C.3     1  UNL1        0.2054
     14 O           5.6015   74.5928   26.4800 O.3     1  UNL1       -0.4755
     15 C           5.9841   74.5477   27.8286 C.ar    1  UNL1        0.1388
     16 C           5.0685   74.7434   28.8787 C.ar    1  UNL1        0.0369
     17 C           5.4982   74.6765   30.2051 C.ar    1  UNL1        0.0033
     18 C           6.8393   74.4210   30.4981 C.ar    1  UNL1        0.0066
     19 C           7.7728   74.2364   29.4630 C.ar    1  UNL1        0.0785
     20 C           7.3287   74.2940   28.1287 C.ar    1  UNL1        0.0433
     21 C           9.1941   73.9634   29.7882 C.2     1  UNL1        0.3381
     22 O          10.1013   74.6571   29.2561 O.2     1  UNL1       -0.2451
     23 O           9.5650   72.9418   30.6620 O.3     1  UNL1       -0.4771
     24 H           8.9002   72.2811   31.0427 H       1  UNL1        0.2954
     25 C          12.9078   83.0874   25.4078 C.2     1  UNL1        0.2839
     26 O          13.2683   82.3855   26.3908 O.2     1  UNL1       -0.2665
     27 N          11.6620   82.8184   24.7445 N.am    1  UNL1       -0.2766
     28 H          11.2472   83.5752   24.1549 H       1  UNL1        0.1553
     29 C          14.9898   87.4621   25.2932 C.ar    1  UNL1        0.0123
     30 C          15.9228   88.1130   24.4587 C.ar    1  UNL1       -0.0013
     31 C          16.4557   87.4655   23.3122 C.ar    1  UNL1       -0.0001
     32 C          16.0528   86.1437   23.0104 C.ar    1  UNL1        0.0028
     33 C          15.1400   85.5196   23.8607 C.ar    1  UNL1        0.0334
     34 C          14.5768   84.2578   23.8364 C.ar    1  UNL1        0.0202
     35 C          14.8136   83.1700   22.8323 C.3     1  UNL1        0.0345
     36 C          13.7461   84.2158   24.9608 C.ar    1  UNL1        0.1946
     37 O          13.8036   85.3657   25.6074 O.2     1  UNL1       -0.4495
     38 C          14.6303   86.1537   24.9624 C.ar    1  UNL1        0.1412
     39 C          17.4316   88.1677   22.4408 C.ar    1  UNL1       -0.0000
     40 C          17.1007   88.4902   21.1109 C.ar    1  UNL1       -0.0000
     41 C          18.0217   89.1509   20.2922 C.ar    1  UNL1       -0.0000
     42 C          19.2799   89.4973   20.7898 C.ar    1  UNL1        0.0000
     43 C          19.6201   89.1832   22.1074 C.ar    1  UNL1       -0.0000
     44 C          18.7033   88.5217   22.9304 C.ar    1  UNL1       -0.0000
     45 C          15.2815   89.3638   26.8770 C.3     1  UNL1        0.0051
     46 C          14.4555   88.1297   26.5309 C.3     1  UNL1        0.0295
@<TRIPOS>BOND
     1    45    46    1
     2    46    29    1
     3    29    30   ar
     4    30    31   ar
     5    31    39    1
     6    39    40   ar
     7    40    41   ar
     8    41    42   ar
     9    42    43   ar
    10    43    44   ar
    11    31    32   ar
    12    32    33   ar
    13    33    34   ar
    14    34    35    1
    15    34    36   ar
    16    36    25    1
    17    25    26    2
    18    25    27   am
    19    27     1    1
    20     1     2   ar
    21     2     3   ar
    22     3     4   ar
    23     4     7    1
    24     7     8    1
    25     8     9    1
    26     9    10    1
    27    10    13    1
    28    13    14    1
    29    14    15    1
    30    15    16   ar
    31    16    17   ar
    32    17    18   ar
    33    18    19   ar
    34    19    21    1
    35    21    22    2
    36    21    23    1
    37    19    20   ar
    38    10    11    1
    39    11    12    1
    40     4     5   ar
    41     5     6   ar
    42    36    37   ar
    43    37    38   ar
    44    38    29   ar
    45    44    39   ar
    46    38    33   ar
    47     6     1   ar
    48    12     7    1
    49    20    15   ar
    50    27    28    1
    51    23    24    1
@<TRIPOS>MOLECULE
*****
 46 51 0 0 0
SMALL
GASTEIGER

@<TRIPOS>ATOM
      1 C          11.2779   81.3403   25.4072 C.ar    1  UNL1        0.0702
      2 C          12.1131   81.9948   26.3188 C.ar    1  UNL1        0.0191
      3 C          13.0387   82.9402   25.8745 C.ar    1  UNL1        0.0356
      4 C          13.1424   83.2219   24.4996 C.ar    1  UNL1        0.1318
      5 N          12.3346   82.5498   23.6314 N.ar    1  UNL1       -0.2279
      6 C          11.4238   81.6284   24.0417 C.ar    1  UNL1        0.1149
      7 N          14.0825   84.2023   23.9973 N.pl3   1  UNL1       -0.2932
      8 C          15.0317   83.8533   22.9280 C.3     1  UNL1        0.0923
      9 C          14.9282   84.8442   21.7566 C.3     1  UNL1        0.0252
     10 C          14.6262   86.3018   22.2016 C.3     1  UNL1        0.0472
     11 C          14.9517   86.5206   23.6899 C.3     1  UNL1        0.0252
     12 C          14.1188   85.5655   24.5576 C.3     1  UNL1        0.0923
     13 C          15.3734   87.3217   21.3299 C.3     1  UNL1        0.2054
     14 O          14.4901   87.8539   20.3445 O.3     1  UNL1       -0.4755
     15 C          14.4454   87.4326   19.0074 C.ar    1  UNL1        0.1388
     16 C          14.2012   88.3219   17.9449 C.ar    1  UNL1        0.0369
     17 C          14.1788   87.8539   16.6301 C.ar    1  UNL1        0.0033
     18 C          14.3925   86.5004   16.3615 C.ar    1  UNL1        0.0066
     19 C          14.6243   85.5930   17.4102 C.ar    1  UNL1        0.0785
     20 C          14.6568   86.0755   18.7320 C.ar    1  UNL1        0.0433
     21 C          14.8522   84.1582   17.1107 C.2     1  UNL1        0.3381
     22 O          15.2063   83.8102   15.9527 O.2     1  UNL1       -0.2451
     23 O          14.6704   83.1680   18.0757 O.3     1  UNL1       -0.4771
     24 H          14.2883   83.3626   18.9919 H       1  UNL1        0.2954
     25 C          10.7049   79.0025   26.2150 C.2     1  UNL1        0.2839
     26 O          11.8256   78.5394   25.8711 O.2     1  UNL1       -0.2665
     27 N          10.3452   80.3522   25.8782 N.am    1  UNL1       -0.2766
     28 H           9.3320   80.6085   25.8960 H       1  UNL1        0.1553
     29 C           8.0220   77.1591   29.8052 C.ar    1  UNL1        0.0123
     30 C           7.0568   76.1363   29.9198 C.ar    1  UNL1       -0.0013
     31 C           6.6939   75.3438   28.7981 C.ar    1  UNL1       -0.0001
     32 C           7.3016   75.5928   27.5455 C.ar    1  UNL1        0.0028
     33 C           8.2418   76.6193   27.4583 C.ar    1  UNL1        0.0334
     34 C           8.9823   77.0985   26.3943 C.ar    1  UNL1        0.0202
     35 C           8.9669   76.6114   24.9766 C.3     1  UNL1        0.0345
     36 C           9.7406   78.1449   26.9294 C.ar    1  UNL1        0.1946
     37 O           9.4781   78.2799   28.2165 O.2     1  UNL1       -0.4495
     38 C           8.5866   77.3762   28.5464 C.ar    1  UNL1        0.1412
     39 C           5.6812   74.2669   28.9378 C.ar    1  UNL1       -0.0000
     40 C           4.7139   74.3225   29.9593 C.ar    1  UNL1       -0.0000
     41 C           3.7618   73.3067   30.0891 C.ar    1  UNL1       -0.0000
     42 C           3.7633   72.2271   29.2031 C.ar    1  UNL1        0.0000
     43 C           4.7174   72.1605   28.1854 C.ar    1  UNL1       -0.0000
     44 C           5.6725   73.1730   28.0515 C.ar    1  UNL1       -0.0000
     45 C           8.3396   79.5016   30.5938 C.3     1  UNL1        0.0051
     46 C           8.3779   78.0273   30.9811 C.3     1  UNL1        0.0295
@<TRIPOS>BOND
     1    45    46    1
     2    46    29    1
     3    29    30   ar
     4    30    31   ar
     5    31    39    1
     6    39    40   ar
     7    40    41   ar
     8    41    42   ar
     9    42    43   ar
    10    43    44   ar
    11    31    32   ar
    12    32    33   ar
    13    33    34   ar
    14    34    35    1
    15    34    36   ar
    16    36    25    1
    17    25    26    2
    18    25    27   am
    19    27     1    1
    20     1     2   ar
    21     2     3   ar
    22     3     4   ar
    23     4     7    1
    24     7     8    1
    25     8     9    1
    26     9    10    1
    27    10    13    1
    28    13    14    1
    29    14    15    1
    30    15    16   ar
    31    16    17   ar
    32    17    18   ar
    33    18    19   ar
    34    19    21    1
    35    21    22    2
    36    21    23    1
    37    19    20   ar
    38    10    11    1
    39    11    12    1
    40     4     5   ar
    41     5     6   ar
    42    36    37   ar
    43    37    38   ar
    44    38    29   ar
    45    44    39   ar
    46    38    33   ar
    47     6     1   ar
    48    12     7    1
    49    20    15   ar
    50    27    28    1
    51    23    24    1
@<TRIPOS>MOLECULE
*****
 46 51 0 0 0
SMALL
GASTEIGER

@<TRIPOS>ATOM
      1 C          10.6666   81.2113   24.6480 C.ar    1  UNL1        0.0702
      2 C           9.9586   80.7394   23.5375 C.ar    1  UNL1        0.0191
      3 C           9.2080   79.5661   23.6261 C.ar    1  UNL1        0.0356
      4 C           9.1791   78.8463   24.8350 C.ar    1  UNL1        0.1318
      5 N           9.8999   79.3150   25.8928 N.ar    1  UNL1       -0.2279
      6 C          10.6344   80.4568   25.8306 C.ar    1  UNL1        0.1149
      7 N           8.4058   77.6296   24.9724 N.pl3   1  UNL1       -0.2932
      8 C           7.1668   77.4364   24.2018 C.3     1  UNL1        0.0923
      9 C           7.2108   76.1171   23.4128 C.3     1  UNL1        0.0252
     10 C           7.9519   74.9728   24.1580 C.3     1  UNL1        0.0472
     11 C           8.0661   75.2574   25.6663 C.3     1  UNL1        0.0252
     12 C           8.8350   76.5663   25.8990 C.3     1  UNL1        0.0923
     13 C           7.2779   73.6147   23.9143 C.3     1  UNL1        0.2054
     14 O           7.7716   73.0404   22.7056 O.3     1  UNL1       -0.4755
     15 C           9.1293   72.9510   22.3654 C.ar    1  UNL1        0.1388
     16 C           9.8402   71.7379   22.4145 C.ar    1  UNL1        0.0369
     17 C          11.1881   71.7002   22.0540 C.ar    1  UNL1        0.0033
     18 C          11.8407   72.8660   21.6482 C.ar    1  UNL1        0.0066
     19 C          11.1519   74.0910   21.6057 C.ar    1  UNL1        0.0785
     20 C           9.7899   74.1178   21.9598 C.ar    1  UNL1        0.0433
     21 C          11.8565   75.3217   21.1706 C.2     1  UNL1        0.3381
     22 O          12.1224   76.2203   22.0127 O.2     1  UNL1       -0.2451
     23 O          12.2253   75.5265   19.8414 O.3     1  UNL1       -0.4771
     24 H          11.9529   74.8985   19.0966 H       1  UNL1        0.2954
     25 C          12.8887   82.4384   24.5988 C.2     1  UNL1        0.2839
     26 O          13.5260   81.4336   25.0147 O.2     1  UNL1       -0.2665
     27 N          11.4536   82.4095   24.5343 N.am    1  UNL1       -0.2766
     28 H          10.9466   83.3223   24.4862 H       1  UNL1        0.1553
     29 C          13.9733   87.1366   24.1120 C.ar    1  UNL1        0.0123
     30 C          15.0364   87.8726   23.5474 C.ar    1  UNL1       -0.0013
     31 C          16.1186   87.2170   22.9018 C.ar    1  UNL1       -0.0001
     32 C          16.1351   85.8043   22.8349 C.ar    1  UNL1        0.0028
     33 C          15.0782   85.1019   23.4140 C.ar    1  UNL1        0.0334
     34 C          14.8230   83.7476   23.5174 C.ar    1  UNL1        0.0202
     35 C          15.6633   82.6171   23.0045 C.3     1  UNL1        0.0345
     36 C          13.6138   83.6644   24.2155 C.ar    1  UNL1        0.1946
     37 O          13.1756   84.8761   24.5048 O.2     1  UNL1       -0.4495
     38 C          14.0382   85.7438   24.0321 C.ar    1  UNL1        0.1412
     39 C          17.2260   88.0073   22.3069 C.ar    1  UNL1       -0.0000
     40 C          18.4264   88.2033   23.0159 C.ar    1  UNL1       -0.0000
     41 C          19.4674   88.9484   22.4537 C.ar    1  UNL1       -0.0000
     42 C          19.3235   89.5046   21.1806 C.ar    1  UNL1        0.0000
     43 C          18.1377   89.3172   20.4671 C.ar    1  UNL1       -0.0000
     44 C          17.0930   88.5736   21.0247 C.ar    1  UNL1       -0.0000
     45 C          12.2417   88.9225   23.9630 C.3     1  UNL1        0.0051
     46 C          12.8471   87.8259   24.8327 C.3     1  UNL1        0.0295
@<TRIPOS>BOND
     1    45    46    1
     2    46    29    1
     3    29    30   ar
     4    30    31   ar
     5    31    39    1
     6    39    40   ar
     7    40    41   ar
     8    41    42   ar
     9    42    43   ar
    10    43    44   ar
    11    31    32   ar
    12    32    33   ar
    13    33    34   ar
    14    34    35    1
    15    34    36   ar
    16    36    25    1
    17    25    26    2
    18    25    27   am
    19    27     1    1
    20     1     2   ar
    21     2     3   ar
    22     3     4   ar
    23     4     7    1
    24     7     8    1
    25     8     9    1
    26     9    10    1
    27    10    13    1
    28    13    14    1
    29    14    15    1
    30    15    16   ar
    31    16    17   ar
    32    17    18   ar
    33    18    19   ar
    34    19    21    1
    35    21    22    2
    36    21    23    1
    37    19    20   ar
    38    10    11    1
    39    11    12    1
    40     4     5   ar
    41     5     6   ar
    42    36    37   ar
    43    37    38   ar
    44    38    29   ar
    45    44    39   ar
    46    38    33   ar
    47     6     1   ar
    48    12     7    1
    49    20    15   ar
    50    27    28    1
    51    23    24    1
@<TRIPOS>MOLECULE
*****
 46 51 0 0 0
SMALL
GASTEIGER

@<TRIPOS>ATOM
      1 C          10.6739   81.3227   24.9203 C.ar    1  UNL1        0.0702
      2 C          10.3571   80.5530   23.7958 C.ar    1  UNL1        0.0191
      3 C           9.5819   79.3998   23.9260 C.ar    1  UNL1        0.0356
      4 C           9.1324   79.0016   25.1987 C.ar    1  UNL1        0.1318
      5 N           9.4785   79.7558   26.2801 N.ar    1  UNL1       -0.2279
      6 C          10.2289   80.8842   26.1766 C.ar    1  UNL1        0.1149
      7 N           8.3182   77.8174   25.3769 N.pl3   1  UNL1       -0.2932
      8 C           7.9843   77.3318   26.7257 C.3     1  UNL1        0.0923
      9 C           6.4642   77.1665   26.8893 C.3     1  UNL1        0.0252
     10 C           5.7496   76.6851   25.5965 C.3     1  UNL1        0.0472
     11 C           6.7385   76.0476   24.6042 C.3     1  UNL1        0.0252
     12 C           7.8202   77.0646   24.2112 C.3     1  UNL1        0.0923
     13 C           4.6039   75.7138   25.9162 C.3     1  UNL1        0.2054
     14 O           3.3535   76.3934   25.8202 O.3     1  UNL1       -0.4755
     15 C           2.8524   76.9725   24.6452 C.ar    1  UNL1        0.1388
     16 C           2.2492   78.2434   24.6293 C.ar    1  UNL1        0.0369
     17 C           1.7770   78.7803   23.4305 C.ar    1  UNL1        0.0033
     18 C           1.8948   78.0579   22.2414 C.ar    1  UNL1        0.0066
     19 C           2.4818   76.7802   22.2383 C.ar    1  UNL1        0.0785
     20 C           2.9656   76.2514   23.4496 C.ar    1  UNL1        0.0433
     21 C           2.6027   76.0244   20.9677 C.2     1  UNL1        0.3381
     22 O           3.7288   75.5943   20.6013 O.2     1  UNL1       -0.2451
     23 O           1.5007   75.7844   20.1475 O.3     1  UNL1       -0.4771
     24 H           0.5901   76.1875   20.3252 H       1  UNL1        0.2954
     25 C          12.9216   82.4660   24.6265 C.2     1  UNL1        0.2839
     26 O          13.5636   81.4101   24.8750 O.2     1  UNL1       -0.2665
     27 N          11.4926   82.4957   24.7728 N.am    1  UNL1       -0.2766
     28 H          11.0282   83.4279   24.8617 H       1  UNL1        0.1553
     29 C          13.9587   87.1605   24.0168 C.ar    1  UNL1        0.0123
     30 C          15.0280   87.8927   23.4589 C.ar    1  UNL1       -0.0013
     31 C          16.1369   87.2316   22.8664 C.ar    1  UNL1       -0.0001
     32 C          16.1738   85.8178   22.8465 C.ar    1  UNL1        0.0028
     33 C          15.1098   85.1199   23.4179 C.ar    1  UNL1        0.0334
     34 C          14.8693   83.7663   23.5584 C.ar    1  UNL1        0.0202
     35 C          15.7388   82.6315   23.1072 C.3     1  UNL1        0.0345
     36 C          13.6416   83.6889   24.2241 C.ar    1  UNL1        0.1946
     37 O          13.1794   84.9031   24.4607 O.2     1  UNL1       -0.4495
     38 C          14.0440   85.7669   23.9846 C.ar    1  UNL1        0.1412
     39 C          17.2507   88.0175   22.2777 C.ar    1  UNL1       -0.0000
     40 C          18.3827   88.3429   23.0491 C.ar    1  UNL1       -0.0000
     41 C          19.4298   89.0837   22.4926 C.ar    1  UNL1       -0.0000
     42 C          19.3604   89.5066   21.1633 C.ar    1  UNL1        0.0000
     43 C          18.2430   89.1900   20.3876 C.ar    1  UNL1       -0.0000
     44 C          17.1924   88.4502   20.9392 C.ar    1  UNL1       -0.0000
     45 C          12.7808   89.3365   24.3130 C.3     1  UNL1        0.0051
     46 C          12.8031   87.8572   24.6820 C.3     1  UNL1        0.0295
@<TRIPOS>BOND
     1    45    46    1
     2    46    29    1
     3    29    30   ar
     4    30    31   ar
     5    31    39    1
     6    39    40   ar
     7    40    41   ar
     8    41    42   ar
     9    42    43   ar
    10    43    44   ar
    11    31    32   ar
    12    32    33   ar
    13    33    34   ar
    14    34    35    1
    15    34    36   ar
    16    36    25    1
    17    25    26    2
    18    25    27   am
    19    27     1    1
    20     1     2   ar
    21     2     3   ar
    22     3     4   ar
    23     4     7    1
    24     7     8    1
    25     8     9    1
    26     9    10    1
    27    10    13    1
    28    13    14    1
    29    14    15    1
    30    15    16   ar
    31    16    17   ar
    32    17    18   ar
    33    18    19   ar
    34    19    21    1
    35    21    22    2
    36    21    23    1
    37    19    20   ar
    38    10    11    1
    39    11    12    1
    40     4     5   ar
    41     5     6   ar
    42    36    37   ar
    43    37    38   ar
    44    38    29   ar
    45    44    39   ar
    46    38    33   ar
    47     6     1   ar
    48    12     7    1
    49    20    15   ar
    50    27    28    1
    51    23    24    1
