@<TRIPOS>MOLECULE
*****
 52 57 0 0 0
SMALL
GASTEIGER

@<TRIPOS>ATOM
      1 C          62.2158   87.6064   11.4626 C.ar    1  UNL1        0.0504
      2 C          61.1788   86.9558   12.1450 C.ar    1  UNL1        0.0148
      3 C          60.2724   86.1489   11.4525 C.ar    1  UNL1        0.0080
      4 C          60.3879   85.9735   10.0619 C.ar    1  UNL1        0.0808
      5 C          61.4242   86.6381    9.3761 C.ar    1  UNL1        0.1457
      6 F          61.5810   86.4884    8.0360 F       1  UNL1       -0.2040
      7 C          62.3290   87.4443   10.0735 C.ar    1  UNL1        0.0443
      8 C          63.1172   88.4314   13.6562 C.3     1  UNL1        0.1507
      9 C          63.6460   89.7560   14.2484 C.3     1  UNL1        0.1194
     10 N          64.8013   90.2633   13.4975 N.pl3   1  UNL1       -0.2893
     11 C          64.6865   90.3464   12.0396 C.3     1  UNL1        0.1136
     12 C          64.3114   88.9834   11.4705 C.3     1  UNL1        0.1126
     13 N          63.1506   88.4331   12.1820 N.pl3   1  UNL1       -0.2997
     14 C          65.9202   90.8788   14.1672 C.ar    1  UNL1        0.1318
     15 C          65.8058   91.3696   15.4777 C.ar    1  UNL1        0.0343
     16 C          66.9128   91.9555   16.0934 C.ar    1  UNL1        0.0083
     17 C          68.1372   92.0403   15.4140 C.ar    1  UNL1        0.0906
     18 C          68.2003   91.5692   14.0936 C.ar    1  UNL1        0.1041
     19 N          67.1087   91.0036   13.5142 N.ar    1  UNL1       -0.2292
     20 C          69.3256   92.7160   16.0489 C.3     1  UNL1        0.4200
     21 F          70.1738   93.2234   15.0798 F       1  UNL1       -0.1658
     22 F          68.8854   93.7527   16.8503 F       1  UNL1       -0.1658
     23 F          70.0406   91.8190   16.8236 F       1  UNL1       -0.1658
     24 C          63.1609   85.8696   14.3535 C.3     1  UNL1        0.0741
     25 C          63.8281   87.2075   14.2045 C.2     1  UNL1        0.1706
     26 O          64.9870   87.3181   14.5756 O.2     1  UNL1       -0.2943
     27 C          59.4174   85.1236    9.3306 C.2     1  UNL1        0.2483
     28 O          58.4113   85.6561    8.7867 O.2     1  UNL1       -0.2701
     29 N          59.6135   83.7028    9.2272 N.am    1  UNL1       -0.2945
     30 H          60.5415   83.3094    9.5018 H       1  UNL1        0.1501
     31 C          58.5726   82.8096    8.7015 C.3     1  UNL1        0.1535
     32 C          59.0154   81.3642    8.7659 C.2     1  UNL1        0.2443
     33 O          58.8034   80.5993    7.7859 O.2     1  UNL1       -0.2730
     34 N          59.7062   80.8827    9.9320 N.am    1  UNL1       -0.2825
     35 H          59.6507   81.4627   10.7997 H       1  UNL1        0.1549
     36 C          60.4221   79.6362   10.0133 C.ar    1  UNL1        0.0535
     37 C          61.5820   79.3906    9.2566 C.ar    1  UNL1        0.0353
     38 C          62.2620   78.1798    9.4083 C.ar    1  UNL1        0.1002
     39 N          61.8107   77.2484   10.2888 N.ar    1  UNL1       -0.2422
     40 C          60.7014   77.4625   11.0437 C.ar    1  UNL1        0.1002
     41 C          59.9940   78.6611   10.9255 C.ar    1  UNL1        0.0353
     42 C          57.2613   83.0121    9.4828 C.3     1  UNL1        0.0569
     43 C          57.4779   82.8766   10.9640 C.ar    1  UNL1       -0.0017
     44 C          57.9677   81.7536   11.6243 C.ar    1  UNL1        0.0681
     45 N          58.1594   82.0222   12.9358 N.ar    1  UNL1       -0.3523
     46 C          57.8060   83.3076   13.1073 C.ar    1  UNL1        0.0563
     47 C          57.8673   84.0497   14.2860 C.ar    1  UNL1        0.0170
     48 C          57.4781   85.4005   14.2338 C.ar    1  UNL1        0.0015
     49 C          57.0420   85.9729   13.0186 C.ar    1  UNL1        0.0001
     50 C          56.9919   85.2003   11.8443 C.ar    1  UNL1        0.0012
     51 C          57.3848   83.8640   11.9264 C.ar    1  UNL1        0.0131
     52 H          58.5317   81.3681   13.6596 H       1  UNL1        0.1660
@<TRIPOS>BOND
     1    24    25    1
     2    25    26    2
     3    25     8    1
     4     8     9    1
     5     9    10    1
     6    10    14    1
     7    14    15   ar
     8    15    16   ar
     9    16    17   ar
    10    17    20    1
    11    20    21    1
    12    20    22    1
    13    20    23    1
    14    17    18   ar
    15    18    19   ar
    16    10    11    1
    17    11    12    1
    18    12    13    1
    19    13     1    1
    20     1     2   ar
    21     2     3   ar
    22     3     4   ar
    23     4    27    1
    24    27    28    2
    25    27    29   am
    26    29    31    1
    27    31    42    1
    28    42    43    1
    29    43    44   ar
    30    44    45   ar
    31    45    46   ar
    32    46    47   ar
    33    47    48   ar
    34    48    49   ar
    35    49    50   ar
    36    50    51   ar
    37    31    32    1
    38    32    33    2
    39    32    34   am
    40    34    36    1
    41    36    37   ar
    42    37    38   ar
    43    38    39   ar
    44    39    40   ar
    45    40    41   ar
    46     4     5   ar
    47     5     6    1
    48     5     7   ar
    49    13     8    1
    50     7     1   ar
    51    19    14   ar
    52    51    43   ar
    53    41    36   ar
    54    51    46   ar
    55    29    30    1
    56    45    52    1
    57    34    35    1
@<TRIPOS>MOLECULE
*****
 52 57 0 0 0
SMALL
GASTEIGER

@<TRIPOS>ATOM
      1 C          61.5900   87.6228   13.0750 C.ar    1  UNL1        0.0504
      2 C          61.3516   87.3800   11.7154 C.ar    1  UNL1        0.0148
      3 C          60.2497   86.6203   11.3144 C.ar    1  UNL1        0.0080
      4 C          59.3608   86.0908   12.2669 C.ar    1  UNL1        0.0808
      5 C          59.6090   86.3262   13.6339 C.ar    1  UNL1        0.1457
      6 F          58.7712   85.8447   14.5873 F       1  UNL1       -0.2040
      7 C          60.7129   87.0873   14.0304 C.ar    1  UNL1        0.0443
      8 C          62.9780   88.6054   14.9224 C.3     1  UNL1        0.1507
      9 C          63.7417   89.9180   15.2031 C.3     1  UNL1        0.1194
     10 N          64.7743   90.1724   14.1907 N.pl3   1  UNL1       -0.2893
     11 C          64.3877   90.0787   12.7810 C.3     1  UNL1        0.1136
     12 C          63.7745   88.7119   12.5012 C.3     1  UNL1        0.1126
     13 N          62.7247   88.4108   13.4829 N.pl3   1  UNL1       -0.2997
     14 C          66.0578   90.7228   14.5495 C.ar    1  UNL1        0.1318
     15 C          67.1669   90.6030   13.6968 C.ar    1  UNL1        0.0343
     16 C          68.3919   91.1524   14.0780 C.ar    1  UNL1        0.0083
     17 C          68.5121   91.8341   15.2981 C.ar    1  UNL1        0.0906
     18 C          67.3889   91.9017   16.1368 C.ar    1  UNL1        0.1041
     19 N          66.2065   91.3580   15.7449 N.ar    1  UNL1       -0.2292
     20 C          69.8413   92.3876   15.7440 C.3     1  UNL1        0.4200
     21 F          70.4721   91.5073   16.6060 F       1  UNL1       -0.1658
     22 F          70.6450   92.5887   14.6374 F       1  UNL1       -0.1658
     23 F          69.6715   93.5927   16.4034 F       1  UNL1       -0.1658
     24 C          63.1163   86.6435   16.7064 C.3     1  UNL1        0.0741
     25 C          63.6554   87.3832   15.5150 C.2     1  UNL1        0.1706
     26 O          64.7069   86.9988   15.0253 O.2     1  UNL1       -0.2943
     27 C          58.1982   85.2772   11.8361 C.2     1  UNL1        0.2483
     28 O          57.0902   85.4169   12.4230 O.2     1  UNL1       -0.2701
     29 N          58.3165   84.3381   10.7535 N.am    1  UNL1       -0.2945
     30 H          59.1699   84.3799   10.1525 H       1  UNL1        0.1501
     31 C          57.2563   83.3697   10.4438 C.3     1  UNL1        0.1535
     32 C          57.4852   82.7294    9.0921 C.2     1  UNL1        0.2443
     33 O          57.5504   83.4506    8.0596 O.2     1  UNL1       -0.2730
     34 N          57.6612   81.3048    9.0001 N.am    1  UNL1       -0.2825
     35 H          57.3669   80.7280    9.8205 H       1  UNL1        0.1549
     36 C          58.1596   80.6061    7.8441 C.ar    1  UNL1        0.0535
     37 C          57.3041   80.1208    6.8387 C.ar    1  UNL1        0.0353
     38 C          57.8458   79.4892    5.7165 C.ar    1  UNL1        0.1002
     39 N          59.1921   79.3529    5.5926 N.ar    1  UNL1       -0.2422
     40 C          60.0445   79.8238    6.5403 C.ar    1  UNL1        0.1002
     41 C          59.5446   80.4648    7.6761 C.ar    1  UNL1        0.0353
     42 C          57.1827   82.2987   11.5476 C.3     1  UNL1        0.0569
     43 C          58.5426   81.7430   11.8655 C.ar    1  UNL1       -0.0017
     44 C          59.5822   82.4219   12.4943 C.ar    1  UNL1        0.0681
     45 N          60.6141   81.5833   12.7404 N.ar    1  UNL1       -0.3523
     46 C          60.2311   80.3787   12.2832 C.ar    1  UNL1        0.0563
     47 C          60.9473   79.1844   12.3489 C.ar    1  UNL1        0.0170
     48 C          60.3394   78.0238   11.8366 C.ar    1  UNL1        0.0015
     49 C          59.0440   78.0823   11.2772 C.ar    1  UNL1        0.0001
     50 C          58.3441   79.3013   11.2257 C.ar    1  UNL1        0.0012
     51 C          58.9720   80.4352   11.7422 C.ar    1  UNL1        0.0131
     52 H          61.5138   81.8217   13.2139 H       1  UNL1        0.1660
@<TRIPOS>BOND
     1    24    25    1
     2    25    26    2
     3    25     8    1
     4     8     9    1
     5     9    10    1
     6    10    14    1
     7    14    15   ar
     8    15    16   ar
     9    16    17   ar
    10    17    20    1
    11    20    21    1
    12    20    22    1
    13    20    23    1
    14    17    18   ar
    15    18    19   ar
    16    10    11    1
    17    11    12    1
    18    12    13    1
    19    13     1    1
    20     1     2   ar
    21     2     3   ar
    22     3     4   ar
    23     4    27    1
    24    27    28    2
    25    27    29   am
    26    29    31    1
    27    31    42    1
    28    42    43    1
    29    43    44   ar
    30    44    45   ar
    31    45    46   ar
    32    46    47   ar
    33    47    48   ar
    34    48    49   ar
    35    49    50   ar
    36    50    51   ar
    37    31    32    1
    38    32    33    2
    39    32    34   am
    40    34    36    1
    41    36    37   ar
    42    37    38   ar
    43    38    39   ar
    44    39    40   ar
    45    40    41   ar
    46     4     5   ar
    47     5     6    1
    48     5     7   ar
    49    13     8    1
    50     7     1   ar
    51    19    14   ar
    52    51    43   ar
    53    41    36   ar
    54    51    46   ar
    55    29    30    1
    56    45    52    1
    57    34    35    1
@<TRIPOS>MOLECULE
*****
 52 57 0 0 0
SMALL
GASTEIGER

@<TRIPOS>ATOM
      1 C          61.5795   86.4588   13.4873 C.ar    1  UNL1        0.0504
      2 C          61.9466   85.1374   13.1981 C.ar    1  UNL1        0.0148
      3 C          60.9740   84.1854   12.8825 C.ar    1  UNL1        0.0080
      4 C          59.6130   84.5376   12.8461 C.ar    1  UNL1        0.0808
      5 C          59.2452   85.8639   13.1488 C.ar    1  UNL1        0.1457
      6 F          57.9447   86.2515   13.1144 F       1  UNL1       -0.2040
      7 C          60.2221   86.8133   13.4639 C.ar    1  UNL1        0.0443
      8 C          62.7212   87.8931   15.2032 C.3     1  UNL1        0.1507
      9 C          63.3084   89.3187   15.2925 C.3     1  UNL1        0.1194
     10 N          64.3686   89.5324   14.2994 N.pl3   1  UNL1       -0.2893
     11 C          64.0883   89.1639   12.9097 C.3     1  UNL1        0.1136
     12 C          63.6565   87.7042   12.8372 C.3     1  UNL1        0.1126
     13 N          62.5866   87.4377   13.8071 N.pl3   1  UNL1       -0.2997
     14 C          65.5539   90.2893   14.6178 C.ar    1  UNL1        0.1318
     15 C          66.6338   90.3637   13.7235 C.ar    1  UNL1        0.0343
     16 C          67.7624   91.1097   14.0664 C.ar    1  UNL1        0.0083
     17 C          67.8127   91.7942   15.2899 C.ar    1  UNL1        0.0906
     18 C          66.7271   91.6659   16.1700 C.ar    1  UNL1        0.1041
     19 N          65.6391   90.9329   15.8149 N.ar    1  UNL1       -0.2292
     20 C          69.0458   92.5614   15.6936 C.3     1  UNL1        0.4200
     21 F          69.7047   91.9174   16.7266 F       1  UNL1       -0.1658
     22 F          69.8963   92.6599   14.6084 F       1  UNL1       -0.1658
     23 F          68.7102   93.8344   16.1210 F       1  UNL1       -0.1658
     24 C          64.6206   86.0557   15.4616 C.3     1  UNL1        0.0741
     25 C          63.4951   86.8772   16.0235 C.2     1  UNL1        0.1706
     26 O          63.1695   86.6900   17.1862 O.2     1  UNL1       -0.2943
     27 C          58.5841   83.5207   12.5199 C.2     1  UNL1        0.2483
     28 O          57.3624   83.8258   12.5967 O.2     1  UNL1       -0.2701
     29 N          58.9621   82.1953   12.1098 N.am    1  UNL1       -0.2945
     30 H          59.9605   82.0207   11.8568 H       1  UNL1        0.1501
     31 C          57.9811   81.1087   11.9884 C.3     1  UNL1        0.1535
     32 C          58.0758   80.4418   10.6336 C.2     1  UNL1        0.2443
     33 O          57.5173   79.3272   10.4429 O.2     1  UNL1       -0.2730
     34 N          58.7737   81.1015    9.5627 N.am    1  UNL1       -0.2825
     35 H          59.4139   81.8878    9.8161 H       1  UNL1        0.1549
     36 C          58.7019   80.7270    8.1744 C.ar    1  UNL1        0.0535
     37 C          57.5246   80.2160    7.5989 C.ar    1  UNL1        0.0353
     38 C          57.4983   79.9109    6.2359 C.ar    1  UNL1        0.1002
     39 N          58.6010   80.1153    5.4686 N.ar    1  UNL1       -0.2422
     40 C          59.7482   80.6206    5.9929 C.ar    1  UNL1        0.1002
     41 C          59.8158   80.9425    7.3504 C.ar    1  UNL1        0.0353
     42 C          58.1910   80.0815   13.1162 C.3     1  UNL1        0.0569
     43 C          59.5975   79.5514   13.1217 C.ar    1  UNL1       -0.0017
     44 C          60.0491   78.4108   12.4644 C.ar    1  UNL1        0.0681
     45 N          61.3926   78.3024   12.5743 N.ar    1  UNL1       -0.3523
     46 C          61.7946   79.3701   13.2851 C.ar    1  UNL1        0.0563
     47 C          63.1023   79.7145   13.6243 C.ar    1  UNL1        0.0170
     48 C          63.3025   80.9032   14.3493 C.ar    1  UNL1        0.0015
     49 C          62.2038   81.7121   14.7142 C.ar    1  UNL1        0.0001
     50 C          60.8952   81.3404   14.3570 C.ar    1  UNL1        0.0012
     51 C          60.7277   80.1569   13.6374 C.ar    1  UNL1        0.0131
     52 H          61.9946   77.5535   12.1656 H       1  UNL1        0.1660
@<TRIPOS>BOND
     1    24    25    1
     2    25    26    2
     3    25     8    1
     4     8     9    1
     5     9    10    1
     6    10    14    1
     7    14    15   ar
     8    15    16   ar
     9    16    17   ar
    10    17    20    1
    11    20    21    1
    12    20    22    1
    13    20    23    1
    14    17    18   ar
    15    18    19   ar
    16    10    11    1
    17    11    12    1
    18    12    13    1
    19    13     1    1
    20     1     2   ar
    21     2     3   ar
    22     3     4   ar
    23     4    27    1
    24    27    28    2
    25    27    29   am
    26    29    31    1
    27    31    42    1
    28    42    43    1
    29    43    44   ar
    30    44    45   ar
    31    45    46   ar
    32    46    47   ar
    33    47    48   ar
    34    48    49   ar
    35    49    50   ar
    36    50    51   ar
    37    31    32    1
    38    32    33    2
    39    32    34   am
    40    34    36    1
    41    36    37   ar
    42    37    38   ar
    43    38    39   ar
    44    39    40   ar
    45    40    41   ar
    46     4     5   ar
    47     5     6    1
    48     5     7   ar
    49    13     8    1
    50     7     1   ar
    51    19    14   ar
    52    51    43   ar
    53    41    36   ar
    54    51    46   ar
    55    29    30    1
    56    45    52    1
    57    34    35    1
@<TRIPOS>MOLECULE
*****
 52 57 0 0 0
SMALL
GASTEIGER

@<TRIPOS>ATOM
      1 C          59.9172   86.1382    8.3695 C.ar    1  UNL1        0.0504
      2 C          60.9850   87.0433    8.4404 C.ar    1  UNL1        0.0148
      3 C          60.9831   88.2031    7.6614 C.ar    1  UNL1        0.0080
      4 C          59.9093   88.4829    6.7973 C.ar    1  UNL1        0.0808
      5 C          58.8424   87.5657    6.7188 C.ar    1  UNL1        0.1457
      6 F          57.7797   87.8007    5.9075 F       1  UNL1       -0.2040
      7 C          58.8486   86.4065    7.5006 C.ar    1  UNL1        0.0443
      8 C          60.2489   85.0583   10.6120 C.3     1  UNL1        0.1507
      9 C          60.8480   83.7499   11.1724 C.3     1  UNL1        0.1194
     10 N          60.1803   82.5657   10.6174 N.pl3   1  UNL1       -0.2893
     11 C          60.0177   82.4908    9.1636 C.3     1  UNL1        0.1136
     12 C          59.2862   83.7288    8.6591 C.3     1  UNL1        0.1126
     13 N          59.9217   84.9465    9.1785 N.pl3   1  UNL1       -0.2997
     14 C          59.9025   81.4094   11.4329 C.ar    1  UNL1        0.1318
     15 C          60.7865   80.3195   11.4781 C.ar    1  UNL1        0.0343
     16 C          60.4842   79.2198   12.2825 C.ar    1  UNL1        0.0083
     17 C          59.3125   79.2087   13.0538 C.ar    1  UNL1        0.0906
     18 C          58.4388   80.3024   12.9537 C.ar    1  UNL1        0.1041
     19 N          58.7537   81.3617   12.1626 N.ar    1  UNL1       -0.2292
     20 C          58.9496   78.0062   13.8871 C.3     1  UNL1        0.4200
     21 F          60.0894   77.3570   14.3291 F       1  UNL1       -0.1658
     22 F          58.2115   78.4166   14.9814 F       1  UNL1       -0.1658
     23 F          58.1992   77.1086   13.1474 F       1  UNL1       -0.1658
     24 C          59.1335   86.6100   12.4555 C.3     1  UNL1        0.0741
     25 C          59.0454   85.5472   11.3973 C.2     1  UNL1        0.1706
     26 O          57.9577   85.0317   11.1872 O.2     1  UNL1       -0.2943
     27 C          59.9170   89.7107    5.9657 C.2     1  UNL1        0.2483
     28 O          59.0702   90.6186    6.1898 O.2     1  UNL1       -0.2701
     29 N          60.8822   89.8820    4.9135 N.am    1  UNL1       -0.2945
     30 H          61.6931   89.2247    4.8732 H       1  UNL1        0.1501
     31 C          60.7850   90.9767    3.9389 C.3     1  UNL1        0.1535
     32 C          62.0203   91.0377    3.0673 C.2     1  UNL1        0.2443
     33 O          62.9635   90.2226    3.2586 O.2     1  UNL1       -0.2730
     34 N          62.0943   92.0036    2.0040 N.am    1  UNL1       -0.2825
     35 H          61.4188   92.8008    2.0282 H       1  UNL1        0.1549
     36 C          63.0630   91.9885    0.9390 C.ar    1  UNL1        0.0535
     37 C          64.4125   92.3222    1.1524 C.ar    1  UNL1        0.0353
     38 C          65.3185   92.2473    0.0916 C.ar    1  UNL1        0.1002
     39 N          64.9002   91.8453   -1.1371 N.ar    1  UNL1       -0.2422
     40 C          63.6061   91.5030   -1.3706 C.ar    1  UNL1        0.1002
     41 C          62.6686   91.5604   -0.3368 C.ar    1  UNL1        0.0353
     42 C          59.5200   90.8046    3.0781 C.3     1  UNL1        0.0569
     43 C          59.4205   91.8749    2.0275 C.ar    1  UNL1       -0.0017
     44 C          59.8377   93.1963    2.1575 C.ar    1  UNL1        0.0681
     45 N          59.7208   93.8473    0.9779 N.ar    1  UNL1       -0.3523
     46 C          59.2444   92.9461    0.1017 C.ar    1  UNL1        0.0563
     47 C          58.9943   93.1397   -1.2561 C.ar    1  UNL1        0.0170
     48 C          58.5267   92.0423   -2.0017 C.ar    1  UNL1        0.0015
     49 C          58.3226   90.7904   -1.3808 C.ar    1  UNL1        0.0001
     50 C          58.5850   90.6239   -0.0090 C.ar    1  UNL1        0.0012
     51 C          59.0486   91.7296    0.7044 C.ar    1  UNL1        0.0131
     52 H          59.9751   94.8415    0.7851 H       1  UNL1        0.1660
@<TRIPOS>BOND
     1    24    25    1
     2    25    26    2
     3    25     8    1
     4     8     9    1
     5     9    10    1
     6    10    14    1
     7    14    15   ar
     8    15    16   ar
     9    16    17   ar
    10    17    20    1
    11    20    21    1
    12    20    22    1
    13    20    23    1
    14    17    18   ar
    15    18    19   ar
    16    10    11    1
    17    11    12    1
    18    12    13    1
    19    13     1    1
    20     1     2   ar
    21     2     3   ar
    22     3     4   ar
    23     4    27    1
    24    27    28    2
    25    27    29   am
    26    29    31    1
    27    31    42    1
    28    42    43    1
    29    43    44   ar
    30    44    45   ar
    31    45    46   ar
    32    46    47   ar
    33    47    48   ar
    34    48    49   ar
    35    49    50   ar
    36    50    51   ar
    37    31    32    1
    38    32    33    2
    39    32    34   am
    40    34    36    1
    41    36    37   ar
    42    37    38   ar
    43    38    39   ar
    44    39    40   ar
    45    40    41   ar
    46     4     5   ar
    47     5     6    1
    48     5     7   ar
    49    13     8    1
    50     7     1   ar
    51    19    14   ar
    52    51    43   ar
    53    41    36   ar
    54    51    46   ar
    55    29    30    1
    56    45    52    1
    57    34    35    1
