@<TRIPOS>MOLECULE
*****
 49 54 0 0 0
SMALL
GASTEIGER

@<TRIPOS>ATOM
      1 O         -59.6115  -45.9640  -24.7486 O.2     1  UNL1       -0.2701
      2 C         -60.5964  -45.1780  -24.7868 C.2     1  UNL1        0.2483
      3 N         -61.1755  -44.7987  -26.0485 N.am    1  UNL1       -0.2945
      4 H         -61.9651  -44.1145  -26.0477 H       1  UNL1        0.1501
      5 C         -61.0955  -44.5903  -23.5281 C.ar    1  UNL1        0.0808
      6 C         -60.4315  -43.4857  -22.9771 C.ar    1  UNL1        0.0080
      7 C         -60.9448  -42.8399  -21.8522 C.ar    1  UNL1        0.0148
      8 C         -62.1329  -43.2909  -21.2464 C.ar    1  UNL1        0.0502
      9 C         -62.7533  -44.4444  -21.7560 C.ar    1  UNL1        0.0443
     10 C         -62.2460  -45.0870  -22.8901 C.ar    1  UNL1        0.1457
     11 F         -62.8717  -46.1996  -23.3512 F       1  UNL1       -0.2040
     12 N         -62.7616  -42.5352  -20.1842 N.pl3   1  UNL1       -0.3040
     13 C         -62.3185  -41.1727  -19.8570 C.3     1  UNL1        0.1122
     14 C         -63.2283  -40.1455  -20.5640 C.3     1  UNL1        0.1123
     15 N         -64.4593  -40.7949  -21.0471 N.pl3   1  UNL1       -0.3034
     16 C         -65.1102  -41.7439  -20.1330 C.3     1  UNL1        0.1123
     17 C         -64.1308  -42.8776  -19.7572 C.3     1  UNL1        0.1122
     18 C         -64.7258  -40.8470  -22.4648 C.ar    1  UNL1        0.0592
     19 C         -63.7713  -41.3917  -23.3423 C.ar    1  UNL1        0.0221
     20 C         -63.9646  -41.3558  -24.7259 C.ar    1  UNL1        0.0334
     21 S         -62.6788  -42.0081  -25.7950 S.3     1  UNL1       -0.1405
     22 C         -65.1429  -40.8007  -25.2502 C.ar    1  UNL1        0.0640
     23 CL        -65.4299  -40.7316  -26.9846 Cl      1  UNL1       -0.0817
     24 C         -66.1143  -40.2897  -24.3826 C.ar    1  UNL1        0.0245
     25 C         -65.9129  -40.3072  -22.9973 C.ar    1  UNL1        0.0718
     26 CL        -67.1833  -39.6840  -21.9524 Cl      1  UNL1       -0.0809
     27 H         -62.0380  -40.7581  -25.8858 H       1  UNL1        0.1072
     28 C         -60.6096  -45.1542  -27.3542 C.3     1  UNL1        0.1535
     29 C         -61.3337  -46.3487  -27.9290 C.2     1  UNL1        0.2443
     30 O         -60.7818  -47.4831  -27.9306 O.2     1  UNL1       -0.2730
     31 N         -62.6078  -46.1629  -28.5651 N.am    1  UNL1       -0.2825
     32 H         -62.8894  -45.1871  -28.8128 H       1  UNL1        0.1549
     33 C         -63.4588  -47.2405  -28.9912 C.ar    1  UNL1        0.0535
     34 C         -63.4362  -48.4551  -28.2921 C.ar    1  UNL1        0.0353
     35 C         -64.2512  -49.5094  -28.7102 C.ar    1  UNL1        0.1002
     36 N         -65.0472  -49.3640  -29.8023 N.ar    1  UNL1       -0.2422
     37 C         -65.0739  -48.2067  -30.5146 C.ar    1  UNL1        0.1002
     38 C         -64.2762  -47.1264  -30.1288 C.ar    1  UNL1        0.0353
     39 C         -60.5871  -43.9343  -28.2977 C.3     1  UNL1        0.0569
     40 C         -60.0268  -44.2940  -29.6445 C.ar    1  UNL1       -0.0017
     41 C         -58.8406  -44.9778  -29.8957 C.ar    1  UNL1        0.0681
     42 N         -58.6140  -45.0569  -31.2268 N.ar    1  UNL1       -0.3523
     43 C         -59.6410  -44.4211  -31.8171 C.ar    1  UNL1        0.0563
     44 C         -59.8404  -44.2240  -33.1828 C.ar    1  UNL1        0.0170
     45 C         -60.9835  -43.5083  -33.5839 C.ar    1  UNL1        0.0015
     46 C         -61.8894  -43.0086  -32.6217 C.ar    1  UNL1        0.0001
     47 C         -61.6613  -43.2210  -31.2499 C.ar    1  UNL1        0.0012
     48 C         -60.5219  -43.9379  -30.8836 C.ar    1  UNL1        0.0131
     49 H         -57.7980  -45.5090  -31.6960 H       1  UNL1        0.1660
@<TRIPOS>BOND
     1     1     2    2
     2     2     3   am
     3     3    28    1
     4    28    39    1
     5    39    40    1
     6    40    41   ar
     7    41    42   ar
     8    42    43   ar
     9    43    44   ar
    10    44    45   ar
    11    45    46   ar
    12    46    47   ar
    13    47    48   ar
    14    28    29    1
    15    29    30    2
    16    29    31   am
    17    31    33    1
    18    33    34   ar
    19    34    35   ar
    20    35    36   ar
    21    36    37   ar
    22    37    38   ar
    23     2     5    1
    24     5     6   ar
    25     6     7   ar
    26     7     8   ar
    27     8    12    1
    28    12    13    1
    29    13    14    1
    30    14    15    1
    31    15    18    1
    32    18    19   ar
    33    19    20   ar
    34    20    21    1
    35    20    22   ar
    36    22    23    1
    37    22    24   ar
    38    24    25   ar
    39    25    26    1
    40    15    16    1
    41    16    17    1
    42     8     9   ar
    43     9    10   ar
    44    10    11    1
    45    48    40   ar
    46    38    33   ar
    47    10     5   ar
    48    48    43   ar
    49    17    12    1
    50    25    18   ar
    51     3     4    1
    52    42    49    1
    53    31    32    1
    54    21    27    1
@<TRIPOS>MOLECULE
*****
 49 54 0 0 0
SMALL
GASTEIGER

@<TRIPOS>ATOM
      1 O         -64.3396  -41.1198  -26.8746 O.2     1  UNL1       -0.2701
      2 C         -63.2365  -41.7127  -27.0188 C.2     1  UNL1        0.2483
      3 N         -62.7896  -42.1084  -28.3284 N.am    1  UNL1       -0.2945
      4 H         -61.8898  -42.6334  -28.4093 H       1  UNL1        0.1501
      5 C         -62.4490  -42.0661  -25.8214 C.ar    1  UNL1        0.0808
      6 C         -63.1134  -42.3049  -24.6105 C.ar    1  UNL1        0.0080
      7 C         -62.4084  -42.7501  -23.4921 C.ar    1  UNL1        0.0148
      8 C         -61.0177  -42.9593  -23.5577 C.ar    1  UNL1        0.0502
      9 C         -60.3447  -42.6456  -24.7510 C.ar    1  UNL1        0.0443
     10 C         -61.0513  -42.2092  -25.8765 C.ar    1  UNL1        0.1457
     11 F         -60.3658  -41.9140  -27.0101 F       1  UNL1       -0.2040
     12 N         -60.3037  -43.5744  -22.4594 N.pl3   1  UNL1       -0.3040
     13 C         -61.0211  -44.2750  -21.3850 C.3     1  UNL1        0.1122
     14 C         -61.0430  -45.7908  -21.6759 C.3     1  UNL1        0.1123
     15 N         -60.0563  -46.1293  -22.7164 N.pl3   1  UNL1       -0.3034
     16 C         -58.7374  -45.4896  -22.6119 C.3     1  UNL1        0.1123
     17 C         -58.8887  -43.9526  -22.6300 C.3     1  UNL1        0.1122
     18 C         -60.5093  -46.6668  -23.9771 C.ar    1  UNL1        0.0592
     19 C         -60.4380  -45.8846  -25.1437 C.ar    1  UNL1        0.0221
     20 C         -60.9673  -46.3466  -26.3517 C.ar    1  UNL1        0.0334
     21 S         -60.9040  -45.2736  -27.7892 S.3     1  UNL1       -0.1405
     22 C         -61.5478  -47.6235  -26.4145 C.ar    1  UNL1        0.0640
     23 CL        -62.2287  -48.2474  -27.9120 Cl      1  UNL1       -0.0817
     24 C         -61.5900  -48.4231  -25.2671 C.ar    1  UNL1        0.0245
     25 C         -61.0780  -47.9533  -24.0518 C.ar    1  UNL1        0.0718
     26 CL        -61.1251  -49.0150  -22.6500 Cl      1  UNL1       -0.0809
     27 H         -62.1585  -44.7071  -27.4950 H       1  UNL1        0.1072
     28 C         -63.6031  -41.9991  -29.5439 C.3     1  UNL1        0.1535
     29 C         -62.8324  -42.5156  -30.7359 C.2     1  UNL1        0.2443
     30 O         -63.2387  -42.2743  -31.9056 O.2     1  UNL1       -0.2730
     31 N         -61.6959  -43.3682  -30.5259 N.am    1  UNL1       -0.2825
     32 H         -61.5724  -43.7882  -29.5767 H       1  UNL1        0.1549
     33 C         -60.7930  -43.7758  -31.5678 C.ar    1  UNL1        0.0535
     34 C         -59.6363  -44.4946  -31.2361 C.ar    1  UNL1        0.0353
     35 C         -58.7493  -44.8814  -32.2432 C.ar    1  UNL1        0.1002
     36 N         -58.9972  -44.5442  -33.5364 N.ar    1  UNL1       -0.2422
     37 C         -60.0980  -43.8280  -33.8867 C.ar    1  UNL1        0.1002
     38 C         -61.0123  -43.4236  -32.9106 C.ar    1  UNL1        0.0353
     39 C         -64.9744  -42.6791  -29.3546 C.3     1  UNL1        0.0569
     40 C         -64.8469  -44.1760  -29.3462 C.ar    1  UNL1       -0.0017
     41 C         -64.3720  -44.9640  -28.3016 C.ar    1  UNL1        0.0681
     42 N         -64.3259  -46.2635  -28.6737 N.ar    1  UNL1       -0.3523
     43 C         -64.7582  -46.3014  -29.9461 C.ar    1  UNL1        0.0563
     44 C         -64.8710  -47.4224  -30.7674 C.ar    1  UNL1        0.0170
     45 C         -65.3317  -47.2300  -32.0829 C.ar    1  UNL1        0.0015
     46 C         -65.6623  -45.9360  -32.5435 C.ar    1  UNL1        0.0001
     47 C         -65.5366  -44.8227  -31.6928 C.ar    1  UNL1        0.0012
     48 C         -65.0816  -45.0458  -30.3930 C.ar    1  UNL1        0.0131
     49 H         -64.0054  -47.0692  -28.0918 H       1  UNL1        0.1660
@<TRIPOS>BOND
     1     1     2    2
     2     2     3   am
     3     3    28    1
     4    28    39    1
     5    39    40    1
     6    40    41   ar
     7    41    42   ar
     8    42    43   ar
     9    43    44   ar
    10    44    45   ar
    11    45    46   ar
    12    46    47   ar
    13    47    48   ar
    14    28    29    1
    15    29    30    2
    16    29    31   am
    17    31    33    1
    18    33    34   ar
    19    34    35   ar
    20    35    36   ar
    21    36    37   ar
    22    37    38   ar
    23     2     5    1
    24     5     6   ar
    25     6     7   ar
    26     7     8   ar
    27     8    12    1
    28    12    13    1
    29    13    14    1
    30    14    15    1
    31    15    18    1
    32    18    19   ar
    33    19    20   ar
    34    20    21    1
    35    20    22   ar
    36    22    23    1
    37    22    24   ar
    38    24    25   ar
    39    25    26    1
    40    15    16    1
    41    16    17    1
    42     8     9   ar
    43     9    10   ar
    44    10    11    1
    45    48    40   ar
    46    38    33   ar
    47    10     5   ar
    48    48    43   ar
    49    17    12    1
    50    25    18   ar
    51     3     4    1
    52    42    49    1
    53    31    32    1
    54    21    27    1
@<TRIPOS>MOLECULE
*****
 49 54 0 0 0
SMALL
GASTEIGER

@<TRIPOS>ATOM
      1 O         -65.5059  -40.8676  -27.7263 O.2     1  UNL1       -0.2701
      2 C         -64.3435  -41.3283  -27.5662 C.2     1  UNL1        0.2483
      3 N         -63.5892  -41.8071  -28.6945 N.am    1  UNL1       -0.2945
      4 H         -62.6448  -42.2194  -28.5226 H       1  UNL1        0.1501
      5 C         -63.7987  -41.4440  -26.1991 C.ar    1  UNL1        0.0808
      6 C         -64.3654  -40.6809  -25.1690 C.ar    1  UNL1        0.0080
      7 C         -63.9478  -40.8524  -23.8490 C.ar    1  UNL1        0.0148
      8 C         -62.9452  -41.7878  -23.5301 C.ar    1  UNL1        0.0502
      9 C         -62.3266  -42.4953  -24.5751 C.ar    1  UNL1        0.0443
     10 C         -62.7513  -42.3324  -25.8979 C.ar    1  UNL1        0.1457
     11 F         -62.1278  -43.0316  -26.8799 F       1  UNL1       -0.2040
     12 N         -62.6199  -42.0916  -22.1530 N.pl3   1  UNL1       -0.3040
     13 C         -63.5553  -42.8364  -21.2985 C.3     1  UNL1        0.1122
     14 C         -63.1709  -44.3313  -21.2854 C.3     1  UNL1        0.1123
     15 N         -61.8088  -44.5171  -21.8152 N.pl3   1  UNL1       -0.3034
     16 C         -60.7867  -43.5621  -21.3644 C.3     1  UNL1        0.1123
     17 C         -61.2088  -42.1210  -21.7262 C.3     1  UNL1        0.1122
     18 C         -61.6155  -45.2749  -23.0284 C.ar    1  UNL1        0.0592
     19 C         -62.5921  -46.1959  -23.4479 C.ar    1  UNL1        0.0221
     20 C         -62.3771  -47.0140  -24.5603 C.ar    1  UNL1        0.0334
     21 S         -63.6344  -48.2152  -25.0051 S.3     1  UNL1       -0.1405
     22 C         -61.1857  -46.8936  -25.2934 C.ar    1  UNL1        0.0640
     23 CL        -60.8695  -47.9026  -26.6995 Cl      1  UNL1       -0.0817
     24 C         -60.2244  -45.9542  -24.9046 C.ar    1  UNL1        0.0245
     25 C         -60.4301  -45.1480  -23.7787 C.ar    1  UNL1        0.0718
     26 CL        -59.2039  -43.9593  -23.3572 Cl      1  UNL1       -0.0809
     27 H         -63.0504  -49.2121  -24.2011 H       1  UNL1        0.1072
     28 C         -64.1308  -41.9373  -30.0514 C.3     1  UNL1        0.1535
     29 C         -63.0824  -42.5039  -30.9795 C.2     1  UNL1        0.2443
     30 O         -63.1251  -42.2485  -32.2142 O.2     1  UNL1       -0.2730
     31 N         -62.1012  -43.4165  -30.4628 N.am    1  UNL1       -0.2825
     32 H         -62.2762  -43.8361  -29.5215 H       1  UNL1        0.1549
     33 C         -60.9630  -43.8806  -31.2085 C.ar    1  UNL1        0.0535
     34 C         -59.9389  -44.5708  -30.5456 C.ar    1  UNL1        0.0353
     35 C         -58.8249  -45.0121  -31.2632 C.ar    1  UNL1        0.1002
     36 N         -58.7256  -44.7550  -32.5941 N.ar    1  UNL1       -0.2422
     37 C         -59.6910  -44.0681  -33.2602 C.ar    1  UNL1        0.1002
     38 C         -60.8232  -43.6113  -32.5807 C.ar    1  UNL1        0.0353
     39 C         -65.4481  -42.7394  -30.0464 C.3     1  UNL1        0.0569
     40 C         -65.2266  -44.1591  -30.4853 C.ar    1  UNL1       -0.0017
     41 C         -65.6071  -44.7225  -31.7000 C.ar    1  UNL1        0.0681
     42 N         -65.3149  -46.0430  -31.7201 N.ar    1  UNL1       -0.3523
     43 C         -64.7626  -46.3196  -30.5260 C.ar    1  UNL1        0.0563
     44 C         -64.3137  -47.5579  -30.0690 C.ar    1  UNL1        0.0170
     45 C         -63.7828  -47.6255  -28.7677 C.ar    1  UNL1        0.0015
     46 C         -63.7164  -46.4678  -27.9607 C.ar    1  UNL1        0.0001
     47 C         -64.1789  -45.2317  -28.4478 C.ar    1  UNL1        0.0012
     48 C         -64.6956  -45.1956  -29.7431 C.ar    1  UNL1        0.0131
     49 H         -65.4963  -46.7113  -32.5016 H       1  UNL1        0.1660
@<TRIPOS>BOND
     1     1     2    2
     2     2     3   am
     3     3    28    1
     4    28    39    1
     5    39    40    1
     6    40    41   ar
     7    41    42   ar
     8    42    43   ar
     9    43    44   ar
    10    44    45   ar
    11    45    46   ar
    12    46    47   ar
    13    47    48   ar
    14    28    29    1
    15    29    30    2
    16    29    31   am
    17    31    33    1
    18    33    34   ar
    19    34    35   ar
    20    35    36   ar
    21    36    37   ar
    22    37    38   ar
    23     2     5    1
    24     5     6   ar
    25     6     7   ar
    26     7     8   ar
    27     8    12    1
    28    12    13    1
    29    13    14    1
    30    14    15    1
    31    15    18    1
    32    18    19   ar
    33    19    20   ar
    34    20    21    1
    35    20    22   ar
    36    22    23    1
    37    22    24   ar
    38    24    25   ar
    39    25    26    1
    40    15    16    1
    41    16    17    1
    42     8     9   ar
    43     9    10   ar
    44    10    11    1
    45    48    40   ar
    46    38    33   ar
    47    10     5   ar
    48    48    43   ar
    49    17    12    1
    50    25    18   ar
    51     3     4    1
    52    42    49    1
    53    31    32    1
    54    21    27    1
@<TRIPOS>MOLECULE
*****
 49 54 0 0 0
SMALL
GASTEIGER

@<TRIPOS>ATOM
      1 O         -59.8019  -44.5933  -24.3126 O.2     1  UNL1       -0.2701
      2 C         -61.0321  -44.3501  -24.1833 C.2     1  UNL1        0.2483
      3 N         -61.9371  -44.5762  -25.2792 N.am    1  UNL1       -0.2945
      4 H         -62.9438  -44.3268  -25.1525 H       1  UNL1        0.1501
      5 C         -61.5181  -43.7560  -22.9225 C.ar    1  UNL1        0.0808
      6 C         -61.0441  -42.4963  -22.5312 C.ar    1  UNL1        0.0080
      7 C         -61.5687  -41.8609  -21.4055 C.ar    1  UNL1        0.0148
      8 C         -62.5762  -42.4767  -20.6390 C.ar    1  UNL1        0.0502
      9 C         -62.9939  -43.7717  -20.9907 C.ar    1  UNL1        0.0443
     10 C         -62.4767  -44.4060  -22.1250 C.ar    1  UNL1        0.1457
     11 F         -62.9032  -45.6576  -22.4309 F       1  UNL1       -0.2040
     12 N         -63.2416  -41.7623  -19.5705 N.pl3   1  UNL1       -0.3040
     13 C         -62.9420  -40.3491  -19.3006 C.3     1  UNL1        0.1122
     14 C         -63.9906  -39.4531  -19.9936 C.3     1  UNL1        0.1123
     15 N         -65.1594  -40.2511  -20.4032 N.pl3   1  UNL1       -0.3034
     16 C         -65.6604  -41.2371  -19.4355 C.3     1  UNL1        0.1123
     17 C         -64.5444  -42.2417  -19.0734 C.3     1  UNL1        0.1122
     18 C         -65.4770  -40.3779  -21.8056 C.ar    1  UNL1        0.0592
     19 C         -64.5146  -40.8709  -22.7049 C.ar    1  UNL1        0.0221
     20 C         -64.7656  -40.9026  -24.0793 C.ar    1  UNL1        0.0334
     21 S         -63.4719  -41.4816  -25.1806 S.3     1  UNL1       -0.1405
     22 C         -66.0078  -40.4700  -24.5704 C.ar    1  UNL1        0.0640
     23 CL        -66.3690  -40.4895  -26.2922 Cl      1  UNL1       -0.0817
     24 C         -66.9844  -40.0123  -23.6792 C.ar    1  UNL1        0.0245
     25 C         -66.7269  -39.9614  -22.3041 C.ar    1  UNL1        0.0718
     26 CL        -68.0038  -39.4111  -21.2266 Cl      1  UNL1       -0.0809
     27 H         -62.9464  -40.1856  -25.3404 H       1  UNL1        0.1072
     28 C         -61.5138  -44.9509  -26.6326 C.3     1  UNL1        0.1535
     29 C         -62.6472  -45.6300  -27.3647 C.2     1  UNL1        0.2443
     30 O         -63.7650  -45.0555  -27.4735 O.2     1  UNL1       -0.2730
     31 N         -62.4741  -46.9730  -27.8432 N.am    1  UNL1       -0.2825
     32 H         -61.6613  -47.5185  -27.4763 H       1  UNL1        0.1549
     33 C         -63.4136  -47.6507  -28.6947 C.ar    1  UNL1        0.0535
     34 C         -63.7223  -48.9956  -28.4484 C.ar    1  UNL1        0.0353
     35 C         -64.6243  -49.6621  -29.2807 C.ar    1  UNL1        0.1002
     36 N         -65.1841  -49.0146  -30.3365 N.ar    1  UNL1       -0.2422
     37 C         -64.8870  -47.7177  -30.6149 C.ar    1  UNL1        0.1002
     38 C         -63.9918  -47.0134  -29.8058 C.ar    1  UNL1        0.0353
     39 C         -60.9327  -43.7372  -27.3863 C.3     1  UNL1        0.0569
     40 C         -60.4165  -44.1298  -28.7415 C.ar    1  UNL1       -0.0017
     41 C         -59.2542  -44.8462  -29.0127 C.ar    1  UNL1        0.0681
     42 N         -59.0642  -44.9499  -30.3478 N.ar    1  UNL1       -0.3523
     43 C         -60.0905  -44.2975  -30.9210 C.ar    1  UNL1        0.0563
     44 C         -60.3204  -44.1153  -32.2840 C.ar    1  UNL1        0.0170
     45 C         -61.4558  -43.3774  -32.6663 C.ar    1  UNL1        0.0015
     46 C         -62.3240  -42.8418  -31.6889 C.ar    1  UNL1        0.0001
     47 C         -62.0656  -43.0400  -30.3203 C.ar    1  UNL1        0.0012
     48 C         -60.9348  -43.7795  -29.9727 C.ar    1  UNL1        0.0131
     49 H         -58.2719  -45.4287  -30.8310 H       1  UNL1        0.1660
@<TRIPOS>BOND
     1     1     2    2
     2     2     3   am
     3     3    28    1
     4    28    39    1
     5    39    40    1
     6    40    41   ar
     7    41    42   ar
     8    42    43   ar
     9    43    44   ar
    10    44    45   ar
    11    45    46   ar
    12    46    47   ar
    13    47    48   ar
    14    28    29    1
    15    29    30    2
    16    29    31   am
    17    31    33    1
    18    33    34   ar
    19    34    35   ar
    20    35    36   ar
    21    36    37   ar
    22    37    38   ar
    23     2     5    1
    24     5     6   ar
    25     6     7   ar
    26     7     8   ar
    27     8    12    1
    28    12    13    1
    29    13    14    1
    30    14    15    1
    31    15    18    1
    32    18    19   ar
    33    19    20   ar
    34    20    21    1
    35    20    22   ar
    36    22    23    1
    37    22    24   ar
    38    24    25   ar
    39    25    26    1
    40    15    16    1
    41    16    17    1
    42     8     9   ar
    43     9    10   ar
    44    10    11    1
    45    48    40   ar
    46    38    33   ar
    47    10     5   ar
    48    48    43   ar
    49    17    12    1
    50    25    18   ar
    51     3     4    1
    52    42    49    1
    53    31    32    1
    54    21    27    1
@<TRIPOS>MOLECULE
*****
 49 54 0 0 0
SMALL
GASTEIGER

@<TRIPOS>ATOM
      1 O         -61.4791  -41.4986  -28.6834 O.2     1  UNL1       -0.2701
      2 C         -62.2454  -42.2237  -27.9933 C.2     1  UNL1        0.2483
      3 N         -63.4588  -42.7475  -28.5629 N.am    1  UNL1       -0.2945
      4 H         -64.0916  -43.3119  -27.9524 H       1  UNL1        0.1501
      5 C         -61.9226  -42.4615  -26.5727 C.ar    1  UNL1        0.0808
      6 C         -62.8891  -43.0391  -25.7380 C.ar    1  UNL1        0.0080
      7 C         -62.5759  -43.3792  -24.4218 C.ar    1  UNL1        0.0148
      8 C         -61.2874  -43.1408  -23.9071 C.ar    1  UNL1        0.0502
      9 C         -60.3451  -42.4920  -24.7233 C.ar    1  UNL1        0.0443
     10 C         -60.6540  -42.1598  -26.0465 C.ar    1  UNL1        0.1457
     11 F         -59.7183  -41.5318  -26.8029 F       1  UNL1       -0.2040
     12 N         -60.9023  -43.6359  -22.6028 N.pl3   1  UNL1       -0.3040
     13 C         -60.2729  -42.7527  -21.6110 C.3     1  UNL1        0.1122
     14 C         -61.3433  -42.2198  -20.6348 C.3     1  UNL1        0.1123
     15 N         -62.5810  -43.0112  -20.7462 N.pl3   1  UNL1       -0.3034
     16 C         -62.4286  -44.4701  -20.8365 C.3     1  UNL1        0.1123
     17 C         -61.5567  -44.8393  -22.0570 C.3     1  UNL1        0.1122
     18 C         -63.7931  -42.3740  -21.2027 C.ar    1  UNL1        0.0592
     19 C         -63.8017  -41.6616  -22.4152 C.ar    1  UNL1        0.0221
     20 C         -64.9339  -40.9506  -22.8223 C.ar    1  UNL1        0.0334
     21 S         -64.8593  -40.0074  -24.3477 S.3     1  UNL1       -0.1405
     22 C         -66.0929  -40.9739  -22.0303 C.ar    1  UNL1        0.0640
     23 CL        -67.5416  -40.0933  -22.5006 Cl      1  UNL1       -0.0817
     24 C         -66.1049  -41.7103  -20.8406 C.ar    1  UNL1        0.0245
     25 C         -64.9650  -42.4065  -20.4218 C.ar    1  UNL1        0.0718
     26 CL        -65.0481  -43.3448  -18.9362 Cl      1  UNL1       -0.0809
     27 H         -64.4145  -38.8508  -23.6799 H       1  UNL1        0.1072
     28 C         -63.9702  -42.3834  -29.8885 C.3     1  UNL1        0.1535
     29 C         -62.9478  -42.7121  -30.9506 C.2     1  UNL1        0.2443
     30 O         -63.0275  -42.1811  -32.0922 O.2     1  UNL1       -0.2730
     31 N         -61.9490  -43.7092  -30.6844 N.am    1  UNL1       -0.2825
     32 H         -62.0950  -44.3349  -29.8598 H       1  UNL1        0.1549
     33 C         -60.8317  -43.9790  -31.5480 C.ar    1  UNL1        0.0535
     34 C         -59.6715  -44.5570  -31.0148 C.ar    1  UNL1        0.0353
     35 C         -58.5785  -44.8088  -31.8470 C.ar    1  UNL1        0.1002
     36 N         -58.6332  -44.4759  -33.1636 N.ar    1  UNL1       -0.2422
     37 C         -59.7353  -43.8931  -33.7052 C.ar    1  UNL1        0.1002
     38 C         -60.8516  -43.6264  -32.9083 C.ar    1  UNL1        0.0353
     39 C         -65.3509  -43.0221  -30.1431 C.3     1  UNL1        0.0569
     40 C         -65.2189  -44.4442  -30.6094 C.ar    1  UNL1       -0.0017
     41 C         -65.6435  -44.9615  -31.8299 C.ar    1  UNL1        0.0681
     42 N         -65.4312  -46.2965  -31.8764 N.ar    1  UNL1       -0.3523
     43 C         -64.8856  -46.6275  -30.6931 C.ar    1  UNL1        0.0563
     44 C         -64.5076  -47.8986  -30.2627 C.ar    1  UNL1        0.0170
     45 C         -63.9699  -48.0215  -28.9682 C.ar    1  UNL1        0.0015
     46 C         -63.8268  -46.8848  -28.1416 C.ar    1  UNL1        0.0001
     47 C         -64.2188  -45.6147  -28.6019 C.ar    1  UNL1        0.0012
     48 C         -64.7442  -45.5240  -29.8911 C.ar    1  UNL1        0.0131
     49 H         -65.6595  -46.9385  -32.6677 H       1  UNL1        0.1660
@<TRIPOS>BOND
     1     1     2    2
     2     2     3   am
     3     3    28    1
     4    28    39    1
     5    39    40    1
     6    40    41   ar
     7    41    42   ar
     8    42    43   ar
     9    43    44   ar
    10    44    45   ar
    11    45    46   ar
    12    46    47   ar
    13    47    48   ar
    14    28    29    1
    15    29    30    2
    16    29    31   am
    17    31    33    1
    18    33    34   ar
    19    34    35   ar
    20    35    36   ar
    21    36    37   ar
    22    37    38   ar
    23     2     5    1
    24     5     6   ar
    25     6     7   ar
    26     7     8   ar
    27     8    12    1
    28    12    13    1
    29    13    14    1
    30    14    15    1
    31    15    18    1
    32    18    19   ar
    33    19    20   ar
    34    20    21    1
    35    20    22   ar
    36    22    23    1
    37    22    24   ar
    38    24    25   ar
    39    25    26    1
    40    15    16    1
    41    16    17    1
    42     8     9   ar
    43     9    10   ar
    44    10    11    1
    45    48    40   ar
    46    38    33   ar
    47    10     5   ar
    48    48    43   ar
    49    17    12    1
    50    25    18   ar
    51     3     4    1
    52    42    49    1
    53    31    32    1
    54    21    27    1
@<TRIPOS>MOLECULE
*****
 49 54 0 0 0
SMALL
GASTEIGER

@<TRIPOS>ATOM
      1 O         -59.9281  -45.9441  -25.5402 O.2     1  UNL1       -0.2701
      2 C         -60.9232  -45.1831  -25.3997 C.2     1  UNL1        0.2483
      3 N         -61.7092  -44.7956  -26.5413 N.am    1  UNL1       -0.2945
      4 H         -62.5031  -44.1321  -26.3966 H       1  UNL1        0.1501
      5 C         -61.2229  -44.6318  -24.0636 C.ar    1  UNL1        0.0808
      6 C         -60.5012  -43.5221  -23.6027 C.ar    1  UNL1        0.0080
      7 C         -60.8379  -42.9105  -22.3950 C.ar    1  UNL1        0.0148
      8 C         -61.9019  -43.4017  -21.6148 C.ar    1  UNL1        0.0502
      9 C         -62.5728  -44.5600  -22.0431 C.ar    1  UNL1        0.0443
     10 C         -62.2436  -45.1684  -23.2589 C.ar    1  UNL1        0.1457
     11 F         -62.9127  -46.2868  -23.6374 F       1  UNL1       -0.2040
     12 N         -62.3649  -42.6819  -20.4477 N.pl3   1  UNL1       -0.3040
     13 C         -61.8506  -41.3427  -20.1283 C.3     1  UNL1        0.1122
     14 C         -62.8230  -40.2702  -20.6638 C.3     1  UNL1        0.1123
     15 N         -64.1223  -40.8766  -21.0024 N.pl3   1  UNL1       -0.3034
     16 C         -64.6666  -41.8527  -20.0481 C.3     1  UNL1        0.1123
     17 C         -63.6720  -43.0185  -19.8541 C.3     1  UNL1        0.1122
     18 C         -64.5776  -40.8626  -22.3721 C.ar    1  UNL1        0.0592
     19 C         -63.7572  -41.3744  -23.3933 C.ar    1  UNL1        0.0221
     20 C         -64.1342  -41.2746  -24.7352 C.ar    1  UNL1        0.0334
     21 S         -63.0128  -41.8879  -25.9955 S.3     1  UNL1       -0.1405
     22 C         -65.3645  -40.6874  -25.0711 C.ar    1  UNL1        0.0640
     23 CL        -65.8811  -40.5378  -26.7462 Cl      1  UNL1       -0.0817
     24 C         -66.2035  -40.2087  -24.0589 C.ar    1  UNL1        0.0245
     25 C         -65.8180  -40.2901  -22.7156 C.ar    1  UNL1        0.0718
     26 CL        -66.9278  -39.7050  -21.4826 Cl      1  UNL1       -0.0809
     27 H         -62.3730  -40.6400  -26.1172 H       1  UNL1        0.1072
     28 C         -61.3565  -45.1122  -27.9294 C.3     1  UNL1        0.1535
     29 C         -62.6058  -45.2439  -28.7682 C.2     1  UNL1        0.2443
     30 O         -63.1947  -46.3561  -28.8567 O.2     1  UNL1       -0.2730
     31 N         -63.0565  -44.1225  -29.5441 N.am    1  UNL1       -0.2825
     32 H         -62.3899  -43.3297  -29.6845 H       1  UNL1        0.1549
     33 C         -64.3147  -44.0785  -30.2382 C.ar    1  UNL1        0.0535
     34 C         -64.4975  -44.8629  -31.3853 C.ar    1  UNL1        0.0353
     35 C         -65.7134  -44.8137  -32.0707 C.ar    1  UNL1        0.1002
     36 N         -66.7070  -43.9932  -31.6383 N.ar    1  UNL1       -0.2422
     37 C         -66.5517  -43.2034  -30.5430 C.ar    1  UNL1        0.1002
     38 C         -65.3522  -43.2244  -29.8268 C.ar    1  UNL1        0.0353
     39 C         -60.3430  -44.0930  -28.4888 C.3     1  UNL1        0.0569
     40 C         -59.7854  -44.5433  -29.8091 C.ar    1  UNL1       -0.0017
     41 C         -58.7199  -45.4170  -30.0069 C.ar    1  UNL1        0.0681
     42 N         -58.4444  -45.5346  -31.3259 N.ar    1  UNL1       -0.3523
     43 C         -59.3198  -44.7361  -31.9611 C.ar    1  UNL1        0.0563
     44 C         -59.4157  -44.5100  -33.3335 C.ar    1  UNL1        0.0170
     45 C         -60.4013  -43.6129  -33.7848 C.ar    1  UNL1        0.0015
     46 C         -61.2567  -42.9670  -32.8645 C.ar    1  UNL1        0.0001
     47 C         -61.1355  -43.2130  -31.4848 C.ar    1  UNL1        0.0012
     48 C         -60.1520  -44.1107  -31.0684 C.ar    1  UNL1        0.0131
     49 H         -57.6937  -46.1179  -31.7579 H       1  UNL1        0.1660
@<TRIPOS>BOND
     1     1     2    2
     2     2     3   am
     3     3    28    1
     4    28    39    1
     5    39    40    1
     6    40    41   ar
     7    41    42   ar
     8    42    43   ar
     9    43    44   ar
    10    44    45   ar
    11    45    46   ar
    12    46    47   ar
    13    47    48   ar
    14    28    29    1
    15    29    30    2
    16    29    31   am
    17    31    33    1
    18    33    34   ar
    19    34    35   ar
    20    35    36   ar
    21    36    37   ar
    22    37    38   ar
    23     2     5    1
    24     5     6   ar
    25     6     7   ar
    26     7     8   ar
    27     8    12    1
    28    12    13    1
    29    13    14    1
    30    14    15    1
    31    15    18    1
    32    18    19   ar
    33    19    20   ar
    34    20    21    1
    35    20    22   ar
    36    22    23    1
    37    22    24   ar
    38    24    25   ar
    39    25    26    1
    40    15    16    1
    41    16    17    1
    42     8     9   ar
    43     9    10   ar
    44    10    11    1
    45    48    40   ar
    46    38    33   ar
    47    10     5   ar
    48    48    43   ar
    49    17    12    1
    50    25    18   ar
    51     3     4    1
    52    42    49    1
    53    31    32    1
    54    21    27    1
@<TRIPOS>MOLECULE
*****
 49 54 0 0 0
SMALL
GASTEIGER

@<TRIPOS>ATOM
      1 O         -65.4921  -40.5751  -27.5636 O.2     1  UNL1       -0.2701
      2 C         -64.6182  -41.1772  -26.8832 C.2     1  UNL1        0.2483
      3 N         -63.6916  -42.0751  -27.5206 N.am    1  UNL1       -0.2945
      4 H         -63.0058  -42.5889  -26.9229 H       1  UNL1        0.1501
      5 C         -64.6098  -41.0112  -25.4165 C.ar    1  UNL1        0.0808
      6 C         -65.5921  -40.2152  -24.8114 C.ar    1  UNL1        0.0080
      7 C         -65.6779  -40.1309  -23.4216 C.ar    1  UNL1        0.0148
      8 C         -64.7751  -40.8364  -22.6035 C.ar    1  UNL1        0.0502
      9 C         -63.7450  -41.5716  -23.2147 C.ar    1  UNL1        0.0443
     10 C         -63.6638  -41.6659  -24.6079 C.ar    1  UNL1        0.1457
     11 F         -62.6534  -42.3835  -25.1610 F       1  UNL1       -0.2040
     12 N         -64.9539  -40.8885  -21.1683 N.pl3   1  UNL1       -0.3040
     13 C         -65.6215  -42.0301  -20.5274 C.3     1  UNL1        0.1122
     14 C         -64.5641  -43.0316  -20.0159 C.3     1  UNL1        0.1123
     15 N         -63.2317  -42.4034  -19.9874 N.pl3   1  UNL1       -0.3034
     16 C         -63.1572  -41.0313  -19.4663 C.3     1  UNL1        0.1123
     17 C         -64.0682  -40.0978  -20.2938 C.3     1  UNL1        0.1122
     18 C         -62.1843  -42.9202  -20.8356 C.ar    1  UNL1        0.0592
     19 C         -62.2298  -44.2539  -21.2794 C.ar    1  UNL1        0.0221
     20 C         -61.1746  -44.8031  -22.0129 C.ar    1  UNL1        0.0334
     21 S         -61.2635  -46.5304  -22.4932 S.3     1  UNL1       -0.1405
     22 C         -60.0674  -44.0058  -22.3439 C.ar    1  UNL1        0.0640
     23 CL        -58.7147  -44.6532  -23.2639 Cl      1  UNL1       -0.0817
     24 C         -60.0308  -42.6673  -21.9378 C.ar    1  UNL1        0.0245
     25 C         -61.0780  -42.1217  -21.1860 C.ar    1  UNL1        0.0718
     26 CL        -60.9959  -40.4238  -20.7333 Cl      1  UNL1       -0.0809
     27 H         -60.6196  -46.9523  -21.3147 H       1  UNL1        0.1072
     28 C         -63.7669  -42.4713  -28.9308 C.3     1  UNL1        0.1535
     29 C         -62.4030  -42.8865  -29.4298 C.2     1  UNL1        0.2443
     30 O         -61.4115  -42.8705  -28.6499 O.2     1  UNL1       -0.2730
     31 N         -62.2250  -43.1984  -30.8204 N.am    1  UNL1       -0.2825
     32 H         -62.9811  -42.9122  -31.4831 H       1  UNL1        0.1549
     33 C         -61.0235  -43.7650  -31.3701 C.ar    1  UNL1        0.0535
     34 C         -60.7163  -43.5531  -32.7211 C.ar    1  UNL1        0.0353
     35 C         -59.5570  -44.1126  -33.2631 C.ar    1  UNL1        0.1002
     36 N         -58.7417  -44.8757  -32.4883 N.ar    1  UNL1       -0.2422
     37 C         -59.0246  -45.1184  -31.1812 C.ar    1  UNL1        0.1002
     38 C         -60.1728  -44.5755  -30.5989 C.ar    1  UNL1        0.0353
     39 C         -64.8549  -43.5429  -29.1469 C.3     1  UNL1        0.0569
     40 C         -64.2678  -44.9258  -29.1536 C.ar    1  UNL1       -0.0017
     41 C         -64.3248  -45.8480  -30.1948 C.ar    1  UNL1        0.0681
     42 N         -63.7560  -47.0171  -29.8217 N.ar    1  UNL1       -0.3523
     43 C         -63.3496  -46.8441  -28.5520 C.ar    1  UNL1        0.0563
     44 C         -62.7215  -47.7795  -27.7308 C.ar    1  UNL1        0.0170
     45 C         -62.3974  -47.3897  -26.4182 C.ar    1  UNL1        0.0015
     46 C         -62.7076  -46.0896  -25.9604 C.ar    1  UNL1        0.0001
     47 C         -63.3437  -45.1672  -26.8110 C.ar    1  UNL1        0.0012
     48 C         -63.6484  -45.5815  -28.1078 C.ar    1  UNL1        0.0131
     49 H         -63.6657  -47.8810  -30.4012 H       1  UNL1        0.1660
@<TRIPOS>BOND
     1     1     2    2
     2     2     3   am
     3     3    28    1
     4    28    39    1
     5    39    40    1
     6    40    41   ar
     7    41    42   ar
     8    42    43   ar
     9    43    44   ar
    10    44    45   ar
    11    45    46   ar
    12    46    47   ar
    13    47    48   ar
    14    28    29    1
    15    29    30    2
    16    29    31   am
    17    31    33    1
    18    33    34   ar
    19    34    35   ar
    20    35    36   ar
    21    36    37   ar
    22    37    38   ar
    23     2     5    1
    24     5     6   ar
    25     6     7   ar
    26     7     8   ar
    27     8    12    1
    28    12    13    1
    29    13    14    1
    30    14    15    1
    31    15    18    1
    32    18    19   ar
    33    19    20   ar
    34    20    21    1
    35    20    22   ar
    36    22    23    1
    37    22    24   ar
    38    24    25   ar
    39    25    26    1
    40    15    16    1
    41    16    17    1
    42     8     9   ar
    43     9    10   ar
    44    10    11    1
    45    48    40   ar
    46    38    33   ar
    47    10     5   ar
    48    48    43   ar
    49    17    12    1
    50    25    18   ar
    51     3     4    1
    52    42    49    1
    53    31    32    1
    54    21    27    1
@<TRIPOS>MOLECULE
*****
 49 54 0 0 0
SMALL
GASTEIGER

@<TRIPOS>ATOM
      1 O         -59.9907  -46.3602  -25.1047 O.2     1  UNL1       -0.2701
      2 C         -61.1641  -45.9516  -24.8917 C.2     1  UNL1        0.2483
      3 N         -61.7383  -46.0435  -23.5752 N.am    1  UNL1       -0.2945
      4 H         -62.7267  -45.7330  -23.4409 H       1  UNL1        0.1501
      5 C         -61.9678  -45.4528  -26.0249 C.ar    1  UNL1        0.0808
      6 C         -62.6104  -46.3717  -26.8659 C.ar    1  UNL1        0.0080
      7 C         -63.4667  -45.9295  -27.8745 C.ar    1  UNL1        0.0148
      8 C         -63.6935  -44.5539  -28.0705 C.ar    1  UNL1        0.0502
      9 C         -62.9882  -43.6347  -27.2750 C.ar    1  UNL1        0.0443
     10 C         -62.1374  -44.0763  -26.2564 C.ar    1  UNL1        0.1457
     11 F         -61.4719  -43.1581  -25.5107 F       1  UNL1       -0.2040
     12 N         -64.7003  -44.0894  -29.0007 N.pl3   1  UNL1       -0.3040
     13 C         -64.8724  -42.6569  -29.2801 C.3     1  UNL1        0.1122
     14 C         -64.1047  -42.2813  -30.5655 C.3     1  UNL1        0.1123
     15 N         -63.7390  -43.4933  -31.3192 N.pl3   1  UNL1       -0.3034
     16 C         -64.7685  -44.5353  -31.4382 C.3     1  UNL1        0.1123
     17 C         -65.2146  -45.0048  -30.0359 C.3     1  UNL1        0.1122
     18 C         -62.3455  -43.8186  -31.5088 C.ar    1  UNL1        0.0592
     19 C         -61.5916  -44.3402  -30.4423 C.ar    1  UNL1        0.0221
     20 C         -60.2183  -44.5626  -30.5748 C.ar    1  UNL1        0.0334
     21 S         -59.3004  -45.1675  -29.1559 S.3     1  UNL1       -0.1405
     22 C         -59.5847  -44.2961  -31.7991 C.ar    1  UNL1        0.0640
     23 CL        -57.8582  -44.5585  -32.0130 Cl      1  UNL1       -0.0817
     24 C         -60.3342  -43.8116  -32.8767 C.ar    1  UNL1        0.0245
     25 C         -61.7061  -43.5696  -32.7391 C.ar    1  UNL1        0.0718
     26 CL        -62.6056  -42.9946  -34.1372 Cl      1  UNL1       -0.0809
     27 H         -59.0123  -43.8633  -28.7119 H       1  UNL1        0.1072
     28 C         -61.0996  -46.7249  -22.4442 C.3     1  UNL1        0.1535
     29 C         -60.7077  -48.1303  -22.8355 C.2     1  UNL1        0.2443
     30 O         -59.5015  -48.4060  -23.0816 O.2     1  UNL1       -0.2730
     31 N         -61.7299  -49.1211  -23.0254 N.am    1  UNL1       -0.2825
     32 H         -62.7177  -48.7899  -23.1103 H       1  UNL1        0.1549
     33 C         -61.4663  -50.5198  -23.2285 C.ar    1  UNL1        0.0535
     34 C         -62.3845  -51.4698  -22.7609 C.ar    1  UNL1        0.0353
     35 C         -62.1266  -52.8301  -22.9441 C.ar    1  UNL1        0.1002
     36 N         -60.9804  -53.2304  -23.5551 N.ar    1  UNL1       -0.2422
     37 C         -60.0599  -52.3341  -23.9987 C.ar    1  UNL1        0.1002
     38 C         -60.2802  -50.9638  -23.8379 C.ar    1  UNL1        0.0353
     39 C         -59.9284  -45.8911  -21.8860 C.3     1  UNL1        0.0569
     40 C         -60.0884  -44.4337  -22.2140 C.ar    1  UNL1       -0.0017
     41 C         -59.2313  -43.6570  -22.9884 C.ar    1  UNL1        0.0681
     42 N         -59.6478  -42.3703  -23.0076 N.ar    1  UNL1       -0.3523
     43 C         -60.7540  -42.3263  -22.2448 C.ar    1  UNL1        0.0563
     44 C         -61.5320  -41.2081  -21.9479 C.ar    1  UNL1        0.0170
     45 C         -62.6454  -41.3864  -21.1063 C.ar    1  UNL1        0.0015
     46 C         -62.9507  -42.6631  -20.5839 C.ar    1  UNL1        0.0001
     47 C         -62.1463  -43.7733  -20.8991 C.ar    1  UNL1        0.0012
     48 C         -61.0522  -43.5658  -21.7393 C.ar    1  UNL1        0.0131
     49 H         -59.1915  -41.5730  -23.5041 H       1  UNL1        0.1660
@<TRIPOS>BOND
     1     1     2    2
     2     2     3   am
     3     3    28    1
     4    28    39    1
     5    39    40    1
     6    40    41   ar
     7    41    42   ar
     8    42    43   ar
     9    43    44   ar
    10    44    45   ar
    11    45    46   ar
    12    46    47   ar
    13    47    48   ar
    14    28    29    1
    15    29    30    2
    16    29    31   am
    17    31    33    1
    18    33    34   ar
    19    34    35   ar
    20    35    36   ar
    21    36    37   ar
    22    37    38   ar
    23     2     5    1
    24     5     6   ar
    25     6     7   ar
    26     7     8   ar
    27     8    12    1
    28    12    13    1
    29    13    14    1
    30    14    15    1
    31    15    18    1
    32    18    19   ar
    33    19    20   ar
    34    20    21    1
    35    20    22   ar
    36    22    23    1
    37    22    24   ar
    38    24    25   ar
    39    25    26    1
    40    15    16    1
    41    16    17    1
    42     8     9   ar
    43     9    10   ar
    44    10    11    1
    45    48    40   ar
    46    38    33   ar
    47    10     5   ar
    48    48    43   ar
    49    17    12    1
    50    25    18   ar
    51     3     4    1
    52    42    49    1
    53    31    32    1
    54    21    27    1
@<TRIPOS>MOLECULE
*****
 49 54 0 0 0
SMALL
GASTEIGER

@<TRIPOS>ATOM
      1 O         -59.5595  -45.1790  -23.5702 O.2     1  UNL1       -0.2701
      2 C         -60.7851  -45.2876  -23.2954 C.2     1  UNL1        0.2483
      3 N         -61.6295  -46.1582  -24.0701 N.am    1  UNL1       -0.2945
      4 H         -62.6484  -46.1951  -23.8420 H       1  UNL1        0.1501
      5 C         -61.3575  -44.4510  -22.2224 C.ar    1  UNL1        0.0808
      6 C         -60.6543  -43.3193  -21.7871 C.ar    1  UNL1        0.0080
      7 C         -61.2210  -42.4483  -20.8565 C.ar    1  UNL1        0.0148
      8 C         -62.5043  -42.6949  -20.3326 C.ar    1  UNL1        0.0502
      9 C         -63.1734  -43.8705  -20.7140 C.ar    1  UNL1        0.0443
     10 C         -62.6113  -44.7395  -21.6550 C.ar    1  UNL1        0.1457
     11 F         -63.2869  -45.8660  -21.9963 F       1  UNL1       -0.2040
     12 N         -63.1681  -41.7185  -19.4956 N.pl3   1  UNL1       -0.3040
     13 C         -62.6684  -40.3400  -19.3947 C.3     1  UNL1        0.1122
     14 C         -63.4520  -39.4299  -20.3645 C.3     1  UNL1        0.1123
     15 N         -64.6783  -40.1040  -20.8254 N.pl3   1  UNL1       -0.3034
     16 C         -65.4590  -40.8255  -19.8107 C.3     1  UNL1        0.1123
     17 C         -64.5860  -41.9078  -19.1381 C.3     1  UNL1        0.1122
     18 C         -64.8322  -40.4195  -22.2256 C.ar    1  UNL1        0.0592
     19 C         -63.8094  -41.0979  -22.9123 C.ar    1  UNL1        0.0221
     20 C         -63.8934  -41.3192  -24.2895 C.ar    1  UNL1        0.0334
     21 S         -62.5249  -42.1325  -25.1188 S.3     1  UNL1       -0.1405
     22 C         -65.0289  -40.8911  -24.9957 C.ar    1  UNL1        0.0640
     23 CL        -65.1789  -41.1456  -26.7300 Cl      1  UNL1       -0.0817
     24 C         -66.0676  -40.2479  -24.3138 C.ar    1  UNL1        0.0245
     25 C         -65.9758  -40.0079  -22.9376 C.ar    1  UNL1        0.0718
     26 CL        -67.3269  -39.2275  -22.1255 Cl      1  UNL1       -0.0809
     27 H         -61.8839  -40.9086  -25.3884 H       1  UNL1        0.1072
     28 C         -61.1986  -46.8541  -25.2872 C.3     1  UNL1        0.1535
     29 C         -61.3223  -48.3485  -25.1055 C.2     1  UNL1        0.2443
     30 O         -61.3839  -49.1060  -26.1124 O.2     1  UNL1       -0.2730
     31 N         -61.4733  -48.8886  -23.7833 N.am    1  UNL1       -0.2825
     32 H         -61.7203  -48.2262  -23.0132 H       1  UNL1        0.1549
     33 C         -61.4281  -50.2928  -23.4781 C.ar    1  UNL1        0.0535
     34 C         -62.6152  -51.0380  -23.4812 C.ar    1  UNL1        0.0353
     35 C         -62.5783  -52.3996  -23.1725 C.ar    1  UNL1        0.1002
     36 N         -61.3991  -52.9939  -22.8508 N.ar    1  UNL1       -0.2422
     37 C         -60.2349  -52.2932  -22.8165 C.ar    1  UNL1        0.1002
     38 C         -60.2271  -50.9296  -23.1214 C.ar    1  UNL1        0.0353
     39 C         -61.9481  -46.3195  -26.5247 C.3     1  UNL1        0.0569
     40 C         -61.0020  -46.0298  -27.6552 C.ar    1  UNL1       -0.0017
     41 C         -59.6392  -46.3116  -27.6915 C.ar    1  UNL1        0.0681
     42 N         -59.0904  -45.8424  -28.8353 N.ar    1  UNL1       -0.3523
     43 C         -60.0922  -45.2590  -29.5161 C.ar    1  UNL1        0.0563
     44 C         -60.0126  -44.6147  -30.7500 C.ar    1  UNL1        0.0170
     45 C         -61.1907  -44.0531  -31.2757 C.ar    1  UNL1        0.0015
     46 C         -62.4071  -44.1443  -30.5630 C.ar    1  UNL1        0.0001
     47 C         -62.4570  -44.7989  -29.3188 C.ar    1  UNL1        0.0012
     48 C         -61.2737  -45.3494  -28.8259 C.ar    1  UNL1        0.0131
     49 H         -58.0883  -45.9096  -29.1210 H       1  UNL1        0.1660
@<TRIPOS>BOND
     1     1     2    2
     2     2     3   am
     3     3    28    1
     4    28    39    1
     5    39    40    1
     6    40    41   ar
     7    41    42   ar
     8    42    43   ar
     9    43    44   ar
    10    44    45   ar
    11    45    46   ar
    12    46    47   ar
    13    47    48   ar
    14    28    29    1
    15    29    30    2
    16    29    31   am
    17    31    33    1
    18    33    34   ar
    19    34    35   ar
    20    35    36   ar
    21    36    37   ar
    22    37    38   ar
    23     2     5    1
    24     5     6   ar
    25     6     7   ar
    26     7     8   ar
    27     8    12    1
    28    12    13    1
    29    13    14    1
    30    14    15    1
    31    15    18    1
    32    18    19   ar
    33    19    20   ar
    34    20    21    1
    35    20    22   ar
    36    22    23    1
    37    22    24   ar
    38    24    25   ar
    39    25    26    1
    40    15    16    1
    41    16    17    1
    42     8     9   ar
    43     9    10   ar
    44    10    11    1
    45    48    40   ar
    46    38    33   ar
    47    10     5   ar
    48    48    43   ar
    49    17    12    1
    50    25    18   ar
    51     3     4    1
    52    42    49    1
    53    31    32    1
    54    21    27    1
