@<TRIPOS>MOLECULE
*****
 52 57 0 0 0
SMALL
GASTEIGER

@<TRIPOS>ATOM
      1 O          14.9845   81.9115   24.4860 O.2     1  UNL1       -0.2701
      2 C          13.7646   82.1709   24.2981 C.2     1  UNL1        0.2483
      3 N          13.3866   83.3799   23.6180 N.am    1  UNL1       -0.2945
      4 H          12.3850   83.5200   23.3617 H       1  UNL1        0.1501
      5 C          12.7404   81.2715   24.8713 C.ar    1  UNL1        0.0808
      6 C          11.5223   81.8171   25.3089 C.ar    1  UNL1        0.0080
      7 C          10.4943   80.9874   25.7604 C.ar    1  UNL1        0.0148
      8 C          10.6695   79.5975   25.7937 C.ar    1  UNL1        0.0502
      9 C          11.8986   79.0509   25.3960 C.ar    1  UNL1        0.0443
     10 C          12.9312   79.8783   24.9442 C.ar    1  UNL1        0.1457
     11 F          14.1200   79.3148   24.6121 F       1  UNL1       -0.2040
     12 N           9.5922   78.7399   26.2059 N.pl3   1  UNL1       -0.3040
     13 C           8.8596   77.9725   25.1906 C.3     1  UNL1        0.1123
     14 C           7.6275   77.2537   25.7655 C.3     1  UNL1        0.1136
     15 N           7.8731   76.6240   27.0795 N.pl3   1  UNL1       -0.2890
     16 C           8.9853   77.0949   27.9317 C.3     1  UNL1        0.1230
     17 C           9.2890   78.5686   27.6294 C.3     1  UNL1        0.1131
     18 C           6.9186   75.6712   27.6189 C.ar    1  UNL1        0.1318
     19 C           6.6951   74.4184   27.0140 C.ar    1  UNL1        0.0343
     20 C           5.7615   73.5388   27.5645 C.ar    1  UNL1        0.0083
     21 C           5.0272   73.9049   28.7008 C.ar    1  UNL1        0.0906
     22 C           5.2868   75.1520   29.2859 C.ar    1  UNL1        0.1041
     23 N           6.2021   75.9906   28.7339 N.ar    1  UNL1       -0.2292
     24 C           4.0531   72.9435   29.3328 C.3     1  UNL1        0.4200
     25 F           2.7642   73.3215   29.0067 F       1  UNL1       -0.1658
     26 F           4.1892   72.9461   30.7103 F       1  UNL1       -0.1658
     27 F           4.2741   71.6549   28.8783 F       1  UNL1       -0.1658
     28 C          10.2388   76.2188   27.7428 C.3     1  UNL1        0.1585
     29 O          11.3976   76.9630   27.9933 O.3     1  UNL1       -0.3802
     30 H          12.1599   76.3421   27.8575 H       1  UNL1        0.2105
     31 C          14.2434   84.5701   23.6229 C.3     1  UNL1        0.1535
     32 C          14.8363   84.7766   22.2536 C.2     1  UNL1        0.2443
     33 O          15.9227   85.4081   22.1467 O.2     1  UNL1       -0.2730
     34 N          14.2096   84.2113   21.0889 N.am    1  UNL1       -0.2825
     35 H          13.5067   83.4507   21.2266 H       1  UNL1        0.1549
     36 C          14.5643   84.5552   19.7387 C.ar    1  UNL1        0.0535
     37 C          15.5107   83.8108   19.0142 C.ar    1  UNL1        0.0353
     38 C          15.8430   84.1987   17.7136 C.ar    1  UNL1        0.1002
     39 N          15.2646   85.2972   17.1600 N.ar    1  UNL1       -0.2422
     40 C          14.3603   86.0465   17.8441 C.ar    1  UNL1        0.1002
     41 C          14.0010   85.6943   19.1473 C.ar    1  UNL1        0.0353
     42 C          13.4416   85.8088   24.0669 C.3     1  UNL1        0.0569
     43 C          13.8035   87.0169   23.2494 C.ar    1  UNL1       -0.0017
     44 C          14.7991   87.9435   23.5435 C.ar    1  UNL1        0.0681
     45 N          14.7639   88.9706   22.6642 N.ar    1  UNL1       -0.3523
     46 C          13.7462   88.7086   21.8258 C.ar    1  UNL1        0.0563
     47 C          13.2895   89.5065   20.7774 C.ar    1  UNL1        0.0170
     48 C          12.1685   89.0626   20.0526 C.ar    1  UNL1        0.0015
     49 C          11.5320   87.8486   20.3919 C.ar    1  UNL1        0.0001
     50 C          12.0151   87.0633   21.4544 C.ar    1  UNL1        0.0012
     51 C          13.1327   87.5259   22.1519 C.ar    1  UNL1        0.0131
     52 H          15.3843   89.8104   22.6596 H       1  UNL1        0.1660
@<TRIPOS>BOND
     1     1     2    2
     2     2     3   am
     3     3    31    1
     4    31    42    1
     5    42    43    1
     6    43    44   ar
     7    44    45   ar
     8    45    46   ar
     9    46    47   ar
    10    47    48   ar
    11    48    49   ar
    12    49    50   ar
    13    50    51   ar
    14    31    32    1
    15    32    33    2
    16    32    34   am
    17    34    36    1
    18    36    37   ar
    19    37    38   ar
    20    38    39   ar
    21    39    40   ar
    22    40    41   ar
    23     2     5    1
    24     5     6   ar
    25     6     7   ar
    26     7     8   ar
    27     8    12    1
    28    12    13    1
    29    13    14    1
    30    14    15    1
    31    15    18    1
    32    18    19   ar
    33    19    20   ar
    34    20    21   ar
    35    21    24    1
    36    24    25    1
    37    24    26    1
    38    24    27    1
    39    21    22   ar
    40    22    23   ar
    41    15    16    1
    42    16    28    1
    43    28    29    1
    44    16    17    1
    45     8     9   ar
    46     9    10   ar
    47    10    11    1
    48    51    43   ar
    49    41    36   ar
    50    10     5   ar
    51    51    46   ar
    52    17    12    1
    53    23    18   ar
    54     3     4    1
    55    45    52    1
    56    34    35    1
    57    29    30    1
@<TRIPOS>MOLECULE
*****
 52 57 0 0 0
SMALL
GASTEIGER

@<TRIPOS>ATOM
      1 O          12.7288   75.9856   23.1489 O.2     1  UNL1       -0.2701
      2 C          11.8154   76.8554   23.1445 C.2     1  UNL1        0.2483
      3 N          11.9827   78.0726   23.8912 N.am    1  UNL1       -0.2945
      4 H          11.2761   78.8320   23.7790 H       1  UNL1        0.1501
      5 C          10.5440   76.5609   22.4494 C.ar    1  UNL1        0.0808
      6 C          10.2709   75.2396   22.0590 C.ar    1  UNL1        0.0080
      7 C           9.0388   74.9068   21.4931 C.ar    1  UNL1        0.0148
      8 C           8.0613   75.8914   21.2962 C.ar    1  UNL1        0.0502
      9 C           8.3445   77.2196   21.6471 C.ar    1  UNL1        0.0443
     10 C           9.5776   77.5575   22.2132 C.ar    1  UNL1        0.1457
     11 F           9.8298   78.8602   22.4962 F       1  UNL1       -0.2040
     12 N           6.7730   75.5390   20.7650 N.pl3   1  UNL1       -0.3040
     13 C           6.3908   74.1229   20.6946 C.3     1  UNL1        0.1123
     14 C           5.0709   73.9022   19.9366 C.3     1  UNL1        0.1136
     15 N           4.0281   74.8951   20.2686 N.pl3   1  UNL1       -0.2890
     16 C           4.4061   76.2063   20.8367 C.3     1  UNL1        0.1230
     17 C           5.8218   76.5858   20.3815 C.3     1  UNL1        0.1131
     18 C           2.6505   74.6633   19.8708 C.ar    1  UNL1        0.1318
     19 C           1.9324   75.5967   19.0973 C.ar    1  UNL1        0.0343
     20 C           0.6074   75.3335   18.7459 C.ar    1  UNL1        0.0083
     21 C          -0.0204   74.1577   19.1793 C.ar    1  UNL1        0.0906
     22 C           0.7288   73.2440   19.9335 C.ar    1  UNL1        0.1041
     23 N           2.0179   73.5205   20.2612 N.ar    1  UNL1       -0.2292
     24 C          -1.4343   73.8398   18.7640 C.3     1  UNL1        0.4200
     25 F          -1.5060   72.5172   18.3688 F       1  UNL1       -0.1658
     26 F          -1.8267   74.6475   17.7106 F       1  UNL1       -0.1658
     27 F          -2.3102   74.0445   19.8161 F       1  UNL1       -0.1658
     28 C           4.3003   76.1967   22.3740 C.3     1  UNL1        0.1585
     29 O           2.9644   76.0664   22.7712 O.3     1  UNL1       -0.3802
     30 H           2.9698   76.0643   23.7637 H       1  UNL1        0.2105
     31 C          12.8516   78.1431   25.0706 C.3     1  UNL1        0.1535
     32 C          13.5006   79.5005   25.1447 C.2     1  UNL1        0.2443
     33 O          14.7510   79.5729   25.2919 O.2     1  UNL1       -0.2730
     34 N          12.7191   80.6979   24.9887 N.am    1  UNL1       -0.2825
     35 H          11.7670   80.6145   24.5665 H       1  UNL1        0.1549
     36 C          13.2052   82.0187   25.2822 C.ar    1  UNL1        0.0535
     37 C          13.6410   82.3730   26.5704 C.ar    1  UNL1        0.0353
     38 C          14.0805   83.6766   26.8147 C.ar    1  UNL1        0.1002
     39 N          14.0723   84.5983   25.8156 N.ar    1  UNL1       -0.2422
     40 C          13.6387   84.2887   24.5653 C.ar    1  UNL1        0.1002
     41 C          13.1898   82.9973   24.2788 C.ar    1  UNL1        0.0353
     42 C          12.0462   77.8485   26.3507 C.3     1  UNL1        0.0569
     43 C          10.5875   78.1580   26.1630 C.ar    1  UNL1       -0.0017
     44 C           9.9723   79.3888   26.3705 C.ar    1  UNL1        0.0681
     45 N           8.6315   79.2765   26.2326 N.ar    1  UNL1       -0.3523
     46 C           8.3926   77.9832   25.9539 C.ar    1  UNL1        0.0563
     47 C           7.1514   77.3738   25.7742 C.ar    1  UNL1        0.0170
     48 C           7.1269   75.9870   25.5393 C.ar    1  UNL1        0.0015
     49 C           8.3290   75.2474   25.4964 C.ar    1  UNL1        0.0001
     50 C           9.5675   75.8889   25.6803 C.ar    1  UNL1        0.0012
     51 C           9.5612   77.2668   25.9057 C.ar    1  UNL1        0.0131
     52 H           7.9257   80.0370   26.3499 H       1  UNL1        0.1660
@<TRIPOS>BOND
     1     1     2    2
     2     2     3   am
     3     3    31    1
     4    31    42    1
     5    42    43    1
     6    43    44   ar
     7    44    45   ar
     8    45    46   ar
     9    46    47   ar
    10    47    48   ar
    11    48    49   ar
    12    49    50   ar
    13    50    51   ar
    14    31    32    1
    15    32    33    2
    16    32    34   am
    17    34    36    1
    18    36    37   ar
    19    37    38   ar
    20    38    39   ar
    21    39    40   ar
    22    40    41   ar
    23     2     5    1
    24     5     6   ar
    25     6     7   ar
    26     7     8   ar
    27     8    12    1
    28    12    13    1
    29    13    14    1
    30    14    15    1
    31    15    18    1
    32    18    19   ar
    33    19    20   ar
    34    20    21   ar
    35    21    24    1
    36    24    25    1
    37    24    26    1
    38    24    27    1
    39    21    22   ar
    40    22    23   ar
    41    15    16    1
    42    16    28    1
    43    28    29    1
    44    16    17    1
    45     8     9   ar
    46     9    10   ar
    47    10    11    1
    48    51    43   ar
    49    41    36   ar
    50    10     5   ar
    51    51    46   ar
    52    17    12    1
    53    23    18   ar
    54     3     4    1
    55    45    52    1
    56    34    35    1
    57    29    30    1
@<TRIPOS>MOLECULE
*****
 52 57 0 0 0
SMALL
GASTEIGER

@<TRIPOS>ATOM
      1 O          10.9384   76.3298   25.9136 O.2     1  UNL1       -0.2701
      2 C           9.8502   76.9637   25.8433 C.2     1  UNL1        0.2483
      3 N           9.5629   78.0000   26.7977 N.am    1  UNL1       -0.2945
      4 H           8.7189   78.5961   26.6531 H       1  UNL1        0.1501
      5 C           8.8447   76.5591   24.8375 C.ar    1  UNL1        0.0808
      6 C           8.2667   75.2821   24.9273 C.ar    1  UNL1        0.0080
      7 C           7.2418   74.9041   24.0579 C.ar    1  UNL1        0.0148
      8 C           6.7839   75.7918   23.0751 C.ar    1  UNL1        0.0502
      9 C           7.3857   77.0532   22.9554 C.ar    1  UNL1        0.0443
     10 C           8.4132   77.4355   23.8233 C.ar    1  UNL1        0.1457
     11 F           9.0002   78.6456   23.6454 F       1  UNL1       -0.2040
     12 N           5.6917   75.4235   22.2165 N.pl3   1  UNL1       -0.3040
     13 C           5.3238   74.0070   22.0939 C.3     1  UNL1        0.1123
     14 C           4.2669   73.7613   21.0041 C.3     1  UNL1        0.1136
     15 N           3.1875   74.7704   20.9924 N.pl3   1  UNL1       -0.2890
     16 C           3.4100   76.1018   21.5949 C.3     1  UNL1        0.1230
     17 C           4.9020   76.4577   21.5423 C.3     1  UNL1        0.1131
     18 C           1.9739   74.5282   20.2320 C.ar    1  UNL1        0.1318
     19 C           1.3880   75.5259   19.4279 C.ar    1  UNL1        0.0343
     20 C           0.2165   75.2484   18.7214 C.ar    1  UNL1        0.0083
     21 C          -0.3938   73.9912   18.8272 C.ar    1  UNL1        0.0906
     22 C           0.2251   73.0174   19.6233 C.ar    1  UNL1        0.1041
     23 N           1.3665   73.3094   20.2997 N.ar    1  UNL1       -0.2292
     24 C          -1.6308   73.6645   18.0300 C.3     1  UNL1        0.4200
     25 F          -1.5140   74.2093   16.7650 F       1  UNL1       -0.1658
     26 F          -2.7578   74.1843   18.6429 F       1  UNL1       -0.1658
     27 F          -1.7920   72.2943   17.9180 F       1  UNL1       -0.1658
     28 C           2.8765   76.1536   23.0395 C.3     1  UNL1        0.1585
     29 O           1.7833   77.0236   23.1260 O.3     1  UNL1       -0.3802
     30 H           1.4905   77.0066   24.0742 H       1  UNL1        0.2105
     31 C          10.1547   78.0012   28.1395 C.3     1  UNL1        0.1535
     32 C           9.5969   79.1481   28.9412 C.2     1  UNL1        0.2443
     33 O           8.5686   79.7448   28.5205 O.2     1  UNL1       -0.2730
     34 N          10.1873   79.5211   30.1986 N.am    1  UNL1       -0.2825
     35 H          10.8222   78.8371   30.6681 H       1  UNL1        0.1549
     36 C           9.8781   80.7360   30.9025 C.ar    1  UNL1        0.0535
     37 C           9.1908   80.7217   32.1282 C.ar    1  UNL1        0.0353
     38 C           8.8892   81.9294   32.7629 C.ar    1  UNL1        0.1002
     39 N           9.2459   83.1094   32.1902 N.ar    1  UNL1       -0.2422
     40 C           9.8946   83.1538   30.9967 C.ar    1  UNL1        0.1002
     41 C          10.2141   81.9697   30.3281 C.ar    1  UNL1        0.0353
     42 C           9.8902   76.6574   28.8456 C.3     1  UNL1        0.0569
     43 C           8.4624   76.5510   29.3027 C.ar    1  UNL1       -0.0017
     44 C           7.8642   77.2915   30.3177 C.ar    1  UNL1        0.0681
     45 N           6.6080   76.8471   30.5497 N.ar    1  UNL1       -0.3523
     46 C           6.4120   75.8235   29.7004 C.ar    1  UNL1        0.0563
     47 C           5.2804   75.0150   29.6000 C.ar    1  UNL1        0.0170
     48 C           5.3062   73.9596   28.6702 C.ar    1  UNL1        0.0015
     49 C           6.4513   73.7342   27.8753 C.ar    1  UNL1        0.0001
     50 C           7.5787   74.5667   27.9974 C.ar    1  UNL1        0.0012
     51 C           7.5223   75.6096   28.9240 C.ar    1  UNL1        0.0131
     52 H           5.9397   77.2091   31.2657 H       1  UNL1        0.1660
@<TRIPOS>BOND
     1     1     2    2
     2     2     3   am
     3     3    31    1
     4    31    42    1
     5    42    43    1
     6    43    44   ar
     7    44    45   ar
     8    45    46   ar
     9    46    47   ar
    10    47    48   ar
    11    48    49   ar
    12    49    50   ar
    13    50    51   ar
    14    31    32    1
    15    32    33    2
    16    32    34   am
    17    34    36    1
    18    36    37   ar
    19    37    38   ar
    20    38    39   ar
    21    39    40   ar
    22    40    41   ar
    23     2     5    1
    24     5     6   ar
    25     6     7   ar
    26     7     8   ar
    27     8    12    1
    28    12    13    1
    29    13    14    1
    30    14    15    1
    31    15    18    1
    32    18    19   ar
    33    19    20   ar
    34    20    21   ar
    35    21    24    1
    36    24    25    1
    37    24    26    1
    38    24    27    1
    39    21    22   ar
    40    22    23   ar
    41    15    16    1
    42    16    28    1
    43    28    29    1
    44    16    17    1
    45     8     9   ar
    46     9    10   ar
    47    10    11    1
    48    51    43   ar
    49    41    36   ar
    50    10     5   ar
    51    51    46   ar
    52    17    12    1
    53    23    18   ar
    54     3     4    1
    55    45    52    1
    56    34    35    1
    57    29    30    1
@<TRIPOS>MOLECULE
*****
 52 57 0 0 0
SMALL
GASTEIGER

@<TRIPOS>ATOM
      1 O          14.6137   82.1058   24.5434 O.2     1  UNL1       -0.2701
      2 C          13.3799   82.3556   24.4644 C.2     1  UNL1        0.2483
      3 N          12.9386   83.6396   23.9913 N.am    1  UNL1       -0.2945
      4 H          11.9210   83.7874   23.8151 H       1  UNL1        0.1501
      5 C          12.4094   81.3542   24.9562 C.ar    1  UNL1        0.0808
      6 C          11.1679   81.7918   25.4462 C.ar    1  UNL1        0.0080
      7 C          10.1888   80.8707   25.8232 C.ar    1  UNL1        0.0148
      8 C          10.4375   79.4949   25.7282 C.ar    1  UNL1        0.0502
      9 C          11.6903   79.0533   25.2778 C.ar    1  UNL1        0.0443
     10 C          12.6741   79.9723   24.9003 C.ar    1  UNL1        0.1457
     11 F          13.8881   79.5058   24.5139 F       1  UNL1       -0.2040
     12 N           9.4104   78.5470   26.0637 N.pl3   1  UNL1       -0.3040
     13 C           9.2271   77.3608   25.2176 C.3     1  UNL1        0.1123
     14 C           7.9780   76.5484   25.5983 C.3     1  UNL1        0.1136
     15 N           7.7904   76.4059   27.0570 N.pl3   1  UNL1       -0.2890
     16 C           8.4230   77.3679   27.9840 C.3     1  UNL1        0.1230
     17 C           8.6170   78.7197   27.2837 C.3     1  UNL1        0.1131
     18 C           6.8405   75.4377   27.5768 C.ar    1  UNL1        0.1318
     19 C           6.6405   74.1866   26.9602 C.ar    1  UNL1        0.0343
     20 C           5.7104   73.2918   27.4919 C.ar    1  UNL1        0.0083
     21 C           4.9564   73.6409   28.6206 C.ar    1  UNL1        0.0906
     22 C           5.1928   74.8869   29.2179 C.ar    1  UNL1        0.1041
     23 N           6.1051   75.7404   28.6842 N.ar    1  UNL1       -0.2292
     24 C           3.9858   72.6632   29.2327 C.3     1  UNL1        0.4200
     25 F           4.0737   72.7366   30.6101 F       1  UNL1       -0.1658
     26 F           4.2759   71.3710   28.8302 F       1  UNL1       -0.1658
     27 F           2.6891   72.9560   28.8470 F       1  UNL1       -0.1658
     28 C           9.7603   76.8234   28.5218 C.3     1  UNL1        0.1585
     29 O          10.5365   77.8637   29.0460 O.3     1  UNL1       -0.3802
     30 H          11.3745   77.4454   29.3744 H       1  UNL1        0.2105
     31 C          13.7710   84.8399   24.1225 C.3     1  UNL1        0.1535
     32 C          13.1344   85.9850   23.3791 C.2     1  UNL1        0.2443
     33 O          12.0736   86.4940   23.8329 O.2     1  UNL1       -0.2730
     34 N          13.7558   86.5335   22.2035 N.am    1  UNL1       -0.2825
     35 H          14.7621   86.3139   22.0289 H       1  UNL1        0.1549
     36 C          13.1077   87.4504   21.3056 C.ar    1  UNL1        0.0535
     37 C          11.8468   87.1707   20.7517 C.ar    1  UNL1        0.0353
     38 C          11.2678   88.0802   19.8629 C.ar    1  UNL1        0.1002
     39 N          11.9273   89.2200   19.5263 N.ar    1  UNL1       -0.2422
     40 C          13.1557   89.5073   20.0320 C.ar    1  UNL1        0.1002
     41 C          13.7709   88.6245   20.9228 C.ar    1  UNL1        0.0353
     42 C          13.9737   85.1945   25.6083 C.3     1  UNL1        0.0569
     43 C          14.6853   86.5090   25.7651 C.ar    1  UNL1       -0.0017
     44 C          15.6229   87.0486   24.8899 C.ar    1  UNL1        0.0681
     45 N          16.1541   88.1808   25.4052 N.ar    1  UNL1       -0.3523
     46 C          15.5710   88.3538   26.6041 C.ar    1  UNL1        0.0563
     47 C          15.8314   89.3618   27.5317 C.ar    1  UNL1        0.0170
     48 C          15.1382   89.3253   28.7553 C.ar    1  UNL1        0.0015
     49 C          14.2156   88.2906   29.0242 C.ar    1  UNL1        0.0001
     50 C          13.9720   87.2869   28.0691 C.ar    1  UNL1        0.0012
     51 C          14.6701   87.3521   26.8617 C.ar    1  UNL1        0.0131
     52 H          16.8902   88.7798   24.9697 H       1  UNL1        0.1660
@<TRIPOS>BOND
     1     1     2    2
     2     2     3   am
     3     3    31    1
     4    31    42    1
     5    42    43    1
     6    43    44   ar
     7    44    45   ar
     8    45    46   ar
     9    46    47   ar
    10    47    48   ar
    11    48    49   ar
    12    49    50   ar
    13    50    51   ar
    14    31    32    1
    15    32    33    2
    16    32    34   am
    17    34    36    1
    18    36    37   ar
    19    37    38   ar
    20    38    39   ar
    21    39    40   ar
    22    40    41   ar
    23     2     5    1
    24     5     6   ar
    25     6     7   ar
    26     7     8   ar
    27     8    12    1
    28    12    13    1
    29    13    14    1
    30    14    15    1
    31    15    18    1
    32    18    19   ar
    33    19    20   ar
    34    20    21   ar
    35    21    24    1
    36    24    25    1
    37    24    26    1
    38    24    27    1
    39    21    22   ar
    40    22    23   ar
    41    15    16    1
    42    16    28    1
    43    28    29    1
    44    16    17    1
    45     8     9   ar
    46     9    10   ar
    47    10    11    1
    48    51    43   ar
    49    41    36   ar
    50    10     5   ar
    51    51    46   ar
    52    17    12    1
    53    23    18   ar
    54     3     4    1
    55    45    52    1
    56    34    35    1
    57    29    30    1
@<TRIPOS>MOLECULE
*****
 52 57 0 0 0
SMALL
GASTEIGER

@<TRIPOS>ATOM
      1 O          14.3206   82.9709   25.9302 O.2     1  UNL1       -0.2701
      2 C          13.7217   82.5184   24.9166 C.2     1  UNL1        0.2483
      3 N          13.9407   83.1189   23.6287 N.am    1  UNL1       -0.2945
      4 H          13.5364   82.6584   22.7843 H       1  UNL1        0.1501
      5 C          12.7263   81.4389   25.0904 C.ar    1  UNL1        0.0808
      6 C          13.1720   80.1106   25.1904 C.ar    1  UNL1        0.0080
      7 C          12.2712   79.0778   25.4568 C.ar    1  UNL1        0.0148
      8 C          10.9065   79.3525   25.6165 C.ar    1  UNL1        0.0502
      9 C          10.4510   80.6719   25.4774 C.ar    1  UNL1        0.0443
     10 C          11.3495   81.7092   25.2096 C.ar    1  UNL1        0.1457
     11 F          10.8636   82.9641   25.0368 F       1  UNL1       -0.2040
     12 N           9.9874   78.2975   25.9455 N.pl3   1  UNL1       -0.3040
     13 C          10.5143   77.0110   26.4189 C.3     1  UNL1        0.1123
     14 C           9.4230   75.9352   26.5488 C.3     1  UNL1        0.1136
     15 N           8.1664   76.4397   27.1406 N.pl3   1  UNL1       -0.2890
     16 C           7.8547   77.8841   27.1002 C.3     1  UNL1        0.1230
     17 C           8.5422   78.5346   25.8921 C.3     1  UNL1        0.1131
     18 C           7.1518   75.5061   27.5977 C.ar    1  UNL1        0.1318
     19 C           6.7976   74.3666   26.8485 C.ar    1  UNL1        0.0343
     20 C           5.8107   73.5022   27.3251 C.ar    1  UNL1        0.0083
     21 C           5.1525   73.7748   28.5321 C.ar    1  UNL1        0.0906
     22 C           5.5415   74.9084   29.2593 C.ar    1  UNL1        0.1041
     23 N           6.5066   75.7340   28.7769 N.ar    1  UNL1       -0.2292
     24 C           4.1210   72.8222   29.0808 C.3     1  UNL1        0.4200
     25 F           4.0563   72.9633   30.4543 F       1  UNL1       -0.1658
     26 F           4.4547   71.5137   28.7768 F       1  UNL1       -0.1658
     27 F           2.8746   73.0878   28.5406 F       1  UNL1       -0.1658
     28 C           8.2652   78.5776   28.4135 C.3     1  UNL1        0.1585
     29 O           8.3635   79.9613   28.2258 O.3     1  UNL1       -0.3802
     30 H           8.6260   80.3417   29.1040 H       1  UNL1        0.2105
     31 C          14.3511   84.5199   23.4885 C.3     1  UNL1        0.1535
     32 C          14.8552   84.7655   22.0904 C.2     1  UNL1        0.2443
     33 O          15.9268   85.4112   21.9316 O.2     1  UNL1       -0.2730
     34 N          14.1622   84.2213   20.9535 N.am    1  UNL1       -0.2825
     35 H          13.4766   83.4500   21.1159 H       1  UNL1        0.1549
     36 C          14.4286   84.6013   19.5927 C.ar    1  UNL1        0.0535
     37 C          15.3382   83.8875   18.7939 C.ar    1  UNL1        0.0353
     38 C          15.5847   84.3100   17.4851 C.ar    1  UNL1        0.1002
     39 N          14.9590   85.4124   16.9943 N.ar    1  UNL1       -0.2422
     40 C          14.0888   86.1325   17.7502 C.ar    1  UNL1        0.1002
     41 C          13.8150   85.7454   19.0641 C.ar    1  UNL1        0.0353
     42 C          13.1773   85.4605   23.8224 C.3     1  UNL1        0.0569
     43 C          13.6630   86.8393   24.1718 C.ar    1  UNL1       -0.0017
     44 C          13.8121   87.9082   23.2934 C.ar    1  UNL1        0.0681
     45 N          14.3929   88.9571   23.9194 N.ar    1  UNL1       -0.3523
     46 C          14.6251   88.5559   25.1813 C.ar    1  UNL1        0.0563
     47 C          15.2541   89.2785   26.1945 C.ar    1  UNL1        0.0170
     48 C          15.4411   88.6445   27.4363 C.ar    1  UNL1        0.0015
     49 C          15.0063   87.3156   27.6337 C.ar    1  UNL1        0.0001
     50 C          14.3736   86.6107   26.5936 C.ar    1  UNL1        0.0012
     51 C          14.1963   87.2674   25.3742 C.ar    1  UNL1        0.0131
     52 H          14.6374   89.8798   23.4961 H       1  UNL1        0.1660
@<TRIPOS>BOND
     1     1     2    2
     2     2     3   am
     3     3    31    1
     4    31    42    1
     5    42    43    1
     6    43    44   ar
     7    44    45   ar
     8    45    46   ar
     9    46    47   ar
    10    47    48   ar
    11    48    49   ar
    12    49    50   ar
    13    50    51   ar
    14    31    32    1
    15    32    33    2
    16    32    34   am
    17    34    36    1
    18    36    37   ar
    19    37    38   ar
    20    38    39   ar
    21    39    40   ar
    22    40    41   ar
    23     2     5    1
    24     5     6   ar
    25     6     7   ar
    26     7     8   ar
    27     8    12    1
    28    12    13    1
    29    13    14    1
    30    14    15    1
    31    15    18    1
    32    18    19   ar
    33    19    20   ar
    34    20    21   ar
    35    21    24    1
    36    24    25    1
    37    24    26    1
    38    24    27    1
    39    21    22   ar
    40    22    23   ar
    41    15    16    1
    42    16    28    1
    43    28    29    1
    44    16    17    1
    45     8     9   ar
    46     9    10   ar
    47    10    11    1
    48    51    43   ar
    49    41    36   ar
    50    10     5   ar
    51    51    46   ar
    52    17    12    1
    53    23    18   ar
    54     3     4    1
    55    45    52    1
    56    34    35    1
    57    29    30    1
@<TRIPOS>MOLECULE
*****
 52 57 0 0 0
SMALL
GASTEIGER

@<TRIPOS>ATOM
      1 O          11.3607   75.4704   24.3599 O.2     1  UNL1       -0.2701
      2 C          10.3167   76.0952   24.6924 C.2     1  UNL1        0.2483
      3 N          10.3650   77.0479   25.7681 N.am    1  UNL1       -0.2945
      4 H           9.5280   77.6438   25.9493 H       1  UNL1        0.1501
      5 C           9.0365   75.7611   24.0322 C.ar    1  UNL1        0.0808
      6 C           8.0247   75.1397   24.7826 C.ar    1  UNL1        0.0080
      7 C           6.7686   74.9023   24.2212 C.ar    1  UNL1        0.0148
      8 C           6.5048   75.2713   22.8954 C.ar    1  UNL1        0.0502
      9 C           7.5246   75.8552   22.1295 C.ar    1  UNL1        0.0443
     10 C           8.7843   76.0937   22.6874 C.ar    1  UNL1        0.1457
     11 F           9.7572   76.6179   21.9003 F       1  UNL1       -0.2040
     12 N           5.1955   75.0775   22.3350 N.pl3   1  UNL1       -0.3040
     13 C           4.2444   76.1965   22.3343 C.3     1  UNL1        0.1123
     14 C           2.8378   75.7786   21.8740 C.3     1  UNL1        0.1136
     15 N           2.8456   74.8633   20.7140 N.pl3   1  UNL1       -0.2890
     16 C           4.0499   74.0622   20.4090 C.3     1  UNL1        0.1230
     17 C           4.8478   73.8060   21.6947 C.3     1  UNL1        0.1131
     18 C           1.6179   74.6084   19.9807 C.ar    1  UNL1        0.1318
     19 C           0.9585   75.6226   19.2583 C.ar    1  UNL1        0.0343
     20 C          -0.2235   75.3314   18.5752 C.ar    1  UNL1        0.0083
     21 C          -0.7713   74.0423   18.6246 C.ar    1  UNL1        0.0906
     22 C          -0.0803   73.0540   19.3394 C.ar    1  UNL1        0.1041
     23 N           1.0699   73.3601   19.9943 N.ar    1  UNL1       -0.2292
     24 C          -2.0197   73.7043   17.8502 C.3     1  UNL1        0.4200
     25 F          -3.0595   74.4999   18.2932 F       1  UNL1       -0.1658
     26 F          -2.3605   72.3748   18.0301 F       1  UNL1       -0.1658
     27 F          -1.8291   73.9230   16.4967 F       1  UNL1       -0.1658
     28 C           4.9210   74.7536   19.3424 C.3     1  UNL1        0.1585
     29 O           6.0606   73.9875   19.0704 O.3     1  UNL1       -0.3802
     30 H           6.5702   74.4853   18.3794 H       1  UNL1        0.2105
     31 C          11.3548   76.9481   26.8456 C.3     1  UNL1        0.1535
     32 C          12.6998   77.4066   26.3457 C.2     1  UNL1        0.2443
     33 O          13.6696   77.4476   27.1508 O.2     1  UNL1       -0.2730
     34 N          12.8953   77.7345   24.9590 N.am    1  UNL1       -0.2825
     35 H          12.1849   77.4031   24.2684 H       1  UNL1        0.1549
     36 C          14.0614   78.4024   24.4479 C.ar    1  UNL1        0.0535
     37 C          14.9161   77.7838   23.5196 C.ar    1  UNL1        0.0353
     38 C          16.0524   78.4621   23.0710 C.ar    1  UNL1        0.1002
     39 N          16.3352   79.7057   23.5412 N.ar    1  UNL1       -0.2422
     40 C          15.5367   80.3204   24.4531 C.ar    1  UNL1        0.1002
     41 C          14.3916   79.6770   24.9288 C.ar    1  UNL1        0.0353
     42 C          10.9092   77.7789   28.0644 C.3     1  UNL1        0.0569
     43 C           9.5230   77.4021   28.5064 C.ar    1  UNL1       -0.0017
     44 C           8.4458   78.2677   28.6696 C.ar    1  UNL1        0.0681
     45 N           7.3890   77.6124   29.2019 N.ar    1  UNL1       -0.3523
     46 C           7.7933   76.3441   29.3896 C.ar    1  UNL1        0.0563
     47 C           7.0642   75.3016   29.9607 C.ar    1  UNL1        0.0170
     48 C           7.7020   74.0566   30.1091 C.ar    1  UNL1        0.0015
     49 C           9.0408   73.8846   29.6942 C.ar    1  UNL1        0.0001
     50 C           9.7520   74.9540   29.1202 C.ar    1  UNL1        0.0012
     51 C           9.0915   76.1762   28.9801 C.ar    1  UNL1        0.0131
     52 H           6.4590   78.0202   29.4445 H       1  UNL1        0.1660
@<TRIPOS>BOND
     1     1     2    2
     2     2     3   am
     3     3    31    1
     4    31    42    1
     5    42    43    1
     6    43    44   ar
     7    44    45   ar
     8    45    46   ar
     9    46    47   ar
    10    47    48   ar
    11    48    49   ar
    12    49    50   ar
    13    50    51   ar
    14    31    32    1
    15    32    33    2
    16    32    34   am
    17    34    36    1
    18    36    37   ar
    19    37    38   ar
    20    38    39   ar
    21    39    40   ar
    22    40    41   ar
    23     2     5    1
    24     5     6   ar
    25     6     7   ar
    26     7     8   ar
    27     8    12    1
    28    12    13    1
    29    13    14    1
    30    14    15    1
    31    15    18    1
    32    18    19   ar
    33    19    20   ar
    34    20    21   ar
    35    21    24    1
    36    24    25    1
    37    24    26    1
    38    24    27    1
    39    21    22   ar
    40    22    23   ar
    41    15    16    1
    42    16    28    1
    43    28    29    1
    44    16    17    1
    45     8     9   ar
    46     9    10   ar
    47    10    11    1
    48    51    43   ar
    49    41    36   ar
    50    10     5   ar
    51    51    46   ar
    52    17    12    1
    53    23    18   ar
    54     3     4    1
    55    45    52    1
    56    34    35    1
    57    29    30    1
@<TRIPOS>MOLECULE
*****
 52 57 0 0 0
SMALL
GASTEIGER

@<TRIPOS>ATOM
      1 O          14.3812   83.5750   25.4922 O.2     1  UNL1       -0.2701
      2 C          13.6617   83.0077   24.6255 C.2     1  UNL1        0.2483
      3 N          13.6836   83.4690   23.2639 N.am    1  UNL1       -0.2945
      4 H          13.1803   82.9145   22.5374 H       1  UNL1        0.1501
      5 C          12.7313   81.9393   25.0491 C.ar    1  UNL1        0.0808
      6 C          11.4279   82.2865   25.4408 C.ar    1  UNL1        0.0080
      7 C          10.4920   81.2974   25.7488 C.ar    1  UNL1        0.0148
      8 C          10.8456   79.9431   25.6822 C.ar    1  UNL1        0.0502
      9 C          12.1576   79.5927   25.3309 C.ar    1  UNL1        0.0443
     10 C          13.0984   80.5801   25.0227 C.ar    1  UNL1        0.1457
     11 F          14.3687   80.2021   24.7324 F       1  UNL1       -0.2040
     12 N           9.8670   78.9237   25.9453 N.pl3   1  UNL1       -0.3040
     13 C          10.1077   77.5583   25.4612 C.3     1  UNL1        0.1123
     14 C           8.8927   76.6365   25.6588 C.3     1  UNL1        0.1136
     15 N           8.2283   76.8104   26.9671 N.pl3   1  UNL1       -0.2890
     16 C           8.4015   78.0670   27.7261 C.3     1  UNL1        0.1230
     17 C           8.6880   79.2260   26.7616 C.3     1  UNL1        0.1131
     18 C           7.2601   75.8301   27.4270 C.ar    1  UNL1        0.1318
     19 C           6.8789   74.7311   26.6318 C.ar    1  UNL1        0.0343
     20 C           5.9383   73.8192   27.1136 C.ar    1  UNL1        0.0083
     21 C           5.3525   74.0043   28.3733 C.ar    1  UNL1        0.0906
     22 C           5.7672   75.0994   29.1441 C.ar    1  UNL1        0.1041
     23 N           6.6861   75.9724   28.6554 N.ar    1  UNL1       -0.2292
     24 C           4.3735   72.9991   28.9242 C.3     1  UNL1        0.4200
     25 F           4.3804   73.0666   30.3048 F       1  UNL1       -0.1658
     26 F           4.7188   71.7169   28.5334 F       1  UNL1       -0.1658
     27 F           3.0940   73.2615   28.4660 F       1  UNL1       -0.1658
     28 C           9.5185   77.9304   28.7786 C.3     1  UNL1        0.1585
     29 O           9.1317   77.0429   29.7896 O.3     1  UNL1       -0.3802
     30 H           9.8920   77.0002   30.4262 H       1  UNL1        0.2105
     31 C          14.0301   84.8523   22.9217 C.3     1  UNL1        0.1535
     32 C          13.6417   85.7692   24.0520 C.2     1  UNL1        0.2443
     33 O          12.4516   86.1802   24.1243 O.2     1  UNL1       -0.2730
     34 N          14.5936   86.1239   25.0703 N.am    1  UNL1       -0.2825
     35 H          15.4557   85.5414   25.1647 H       1  UNL1        0.1549
     36 C          14.3856   87.1686   26.0359 C.ar    1  UNL1        0.0535
     37 C          14.4299   88.5256   25.6731 C.ar    1  UNL1        0.0353
     38 C          14.2479   89.5065   26.6513 C.ar    1  UNL1        0.1002
     39 N          14.0440   89.1492   27.9468 N.ar    1  UNL1       -0.2422
     40 C          14.0149   87.8453   28.3293 C.ar    1  UNL1        0.1002
     41 C          14.1937   86.8332   27.3833 C.ar    1  UNL1        0.0353
     42 C          15.5349   84.9694   22.6116 C.3     1  UNL1        0.0569
     43 C          15.8811   86.3347   22.0874 C.ar    1  UNL1       -0.0017
     44 C          15.5194   86.8591   20.8502 C.ar    1  UNL1        0.0681
     45 N          16.1084   88.0611   20.6556 N.ar    1  UNL1       -0.3523
     46 C          16.8501   88.2944   21.7523 C.ar    1  UNL1        0.0563
     47 C          17.6790   89.3895   21.9934 C.ar    1  UNL1        0.0170
     48 C          18.4103   89.4094   23.1950 C.ar    1  UNL1        0.0015
     49 C          18.3032   88.3439   24.1154 C.ar    1  UNL1        0.0001
     50 C          17.4581   87.2519   23.8464 C.ar    1  UNL1        0.0012
     51 C          16.7403   87.2622   22.6488 C.ar    1  UNL1        0.0131
     52 H          16.0251   88.6678   19.8100 H       1  UNL1        0.1660
@<TRIPOS>BOND
     1     1     2    2
     2     2     3   am
     3     3    31    1
     4    31    42    1
     5    42    43    1
     6    43    44   ar
     7    44    45   ar
     8    45    46   ar
     9    46    47   ar
    10    47    48   ar
    11    48    49   ar
    12    49    50   ar
    13    50    51   ar
    14    31    32    1
    15    32    33    2
    16    32    34   am
    17    34    36    1
    18    36    37   ar
    19    37    38   ar
    20    38    39   ar
    21    39    40   ar
    22    40    41   ar
    23     2     5    1
    24     5     6   ar
    25     6     7   ar
    26     7     8   ar
    27     8    12    1
    28    12    13    1
    29    13    14    1
    30    14    15    1
    31    15    18    1
    32    18    19   ar
    33    19    20   ar
    34    20    21   ar
    35    21    24    1
    36    24    25    1
    37    24    26    1
    38    24    27    1
    39    21    22   ar
    40    22    23   ar
    41    15    16    1
    42    16    28    1
    43    28    29    1
    44    16    17    1
    45     8     9   ar
    46     9    10   ar
    47    10    11    1
    48    51    43   ar
    49    41    36   ar
    50    10     5   ar
    51    51    46   ar
    52    17    12    1
    53    23    18   ar
    54     3     4    1
    55    45    52    1
    56    34    35    1
    57    29    30    1
@<TRIPOS>MOLECULE
*****
 52 57 0 0 0
SMALL
GASTEIGER

@<TRIPOS>ATOM
      1 O          11.3563   77.2512   24.3854 O.2     1  UNL1       -0.2701
      2 C          10.1549   77.4327   24.7241 C.2     1  UNL1        0.2483
      3 N           9.8514   77.9844   26.0167 N.am    1  UNL1       -0.2945
      4 H           8.8641   78.2427   26.2334 H       1  UNL1        0.1501
      5 C           9.0756   76.9798   23.8206 C.ar    1  UNL1        0.0808
      6 C           8.6036   75.6614   23.9300 C.ar    1  UNL1        0.0080
      7 C           7.5183   75.2301   23.1650 C.ar    1  UNL1        0.0148
      8 C           6.8923   76.1058   22.2678 C.ar    1  UNL1        0.0502
      9 C           7.3857   77.4111   22.1255 C.ar    1  UNL1        0.0443
     10 C           8.4731   77.8468   22.8888 C.ar    1  UNL1        0.1457
     11 F           8.9491   79.1015   22.6886 F       1  UNL1       -0.2040
     12 N           5.7407   75.6789   21.5211 N.pl3   1  UNL1       -0.3040
     13 C           5.3786   74.2557   21.5155 C.3     1  UNL1        0.1123
     14 C           4.2432   73.9369   20.5284 C.3     1  UNL1        0.1136
     15 N           3.1562   74.9378   20.5380 N.pl3   1  UNL1       -0.2890
     16 C           3.4112   76.3054   21.0377 C.3     1  UNL1        0.1230
     17 C           4.8911   76.6649   20.8475 C.3     1  UNL1        0.1131
     18 C           1.8899   74.6423   19.8907 C.ar    1  UNL1        0.1318
     19 C           1.2113   75.6000   19.1113 C.ar    1  UNL1        0.0343
     20 C          -0.0074   75.2720   18.5150 C.ar    1  UNL1        0.0083
     21 C          -0.5720   74.0038   18.7079 C.ar    1  UNL1        0.0906
     22 C           0.1381   73.0705   19.4759 C.ar    1  UNL1        0.1041
     23 N           1.3240   73.4115   20.0443 N.ar    1  UNL1       -0.2292
     24 C          -1.8623   73.6222   18.0282 C.3     1  UNL1        0.4200
     25 F          -2.9235   74.1622   18.7302 F       1  UNL1       -0.1658
     26 F          -2.0030   72.2458   17.9860 F       1  UNL1       -0.1658
     27 F          -1.8903   74.1003   16.7296 F       1  UNL1       -0.1658
     28 C           2.9904   76.4448   22.5135 C.3     1  UNL1        0.1585
     29 O           1.6282   76.7532   22.6063 O.3     1  UNL1       -0.3802
     30 H           1.4261   76.8249   23.5754 H       1  UNL1        0.2105
     31 C          10.7637   77.8342   27.1551 C.3     1  UNL1        0.1535
     32 C          10.0401   78.1637   28.4346 C.2     1  UNL1        0.2443
     33 O          10.7112   78.5099   29.4446 O.2     1  UNL1       -0.2730
     34 N           8.6030   78.1455   28.4914 N.am    1  UNL1       -0.2825
     35 H           8.0730   78.1637   27.5912 H       1  UNL1        0.1549
     36 C           7.8462   78.2077   29.7122 C.ar    1  UNL1        0.0535
     37 C           7.9036   79.3291   30.5572 C.ar    1  UNL1        0.0353
     38 C           7.1709   79.3335   31.7469 C.ar    1  UNL1        0.1002
     39 N           6.4197   78.2538   32.0900 N.ar    1  UNL1       -0.2422
     40 C           6.3603   77.1485   31.3013 C.ar    1  UNL1        0.1002
     41 C           7.0785   77.1023   30.1041 C.ar    1  UNL1        0.0353
     42 C          11.3367   76.4046   27.2006 C.3     1  UNL1        0.0569
     43 C          10.5651   75.5356   28.1537 C.ar    1  UNL1       -0.0017
     44 C          11.0798   74.8638   29.2582 C.ar    1  UNL1        0.0681
     45 N          10.1334   74.0737   29.8144 N.ar    1  UNL1       -0.3523
     46 C           9.0295   74.2293   29.0631 C.ar    1  UNL1        0.0563
     47 C           7.8053   73.5796   29.2169 C.ar    1  UNL1        0.0170
     48 C           6.7919   73.8551   28.2809 C.ar    1  UNL1        0.0015
     49 C           7.0238   74.7582   27.2204 C.ar    1  UNL1        0.0001
     50 C           8.2688   75.4001   27.0903 C.ar    1  UNL1        0.0012
     51 C           9.2535   75.1118   28.0372 C.ar    1  UNL1        0.0131
     52 H          10.2497   73.4477   30.6420 H       1  UNL1        0.1660
@<TRIPOS>BOND
     1     1     2    2
     2     2     3   am
     3     3    31    1
     4    31    42    1
     5    42    43    1
     6    43    44   ar
     7    44    45   ar
     8    45    46   ar
     9    46    47   ar
    10    47    48   ar
    11    48    49   ar
    12    49    50   ar
    13    50    51   ar
    14    31    32    1
    15    32    33    2
    16    32    34   am
    17    34    36    1
    18    36    37   ar
    19    37    38   ar
    20    38    39   ar
    21    39    40   ar
    22    40    41   ar
    23     2     5    1
    24     5     6   ar
    25     6     7   ar
    26     7     8   ar
    27     8    12    1
    28    12    13    1
    29    13    14    1
    30    14    15    1
    31    15    18    1
    32    18    19   ar
    33    19    20   ar
    34    20    21   ar
    35    21    24    1
    36    24    25    1
    37    24    26    1
    38    24    27    1
    39    21    22   ar
    40    22    23   ar
    41    15    16    1
    42    16    28    1
    43    28    29    1
    44    16    17    1
    45     8     9   ar
    46     9    10   ar
    47    10    11    1
    48    51    43   ar
    49    41    36   ar
    50    10     5   ar
    51    51    46   ar
    52    17    12    1
    53    23    18   ar
    54     3     4    1
    55    45    52    1
    56    34    35    1
    57    29    30    1
@<TRIPOS>MOLECULE
*****
 52 57 0 0 0
SMALL
GASTEIGER

@<TRIPOS>ATOM
      1 O           7.5911   74.3778   21.3771 O.2     1  UNL1       -0.2701
      2 C           6.9073   74.4246   22.4359 C.2     1  UNL1        0.2483
      3 N           5.6079   73.8105   22.4764 N.am    1  UNL1       -0.2945
      4 H           5.1091   73.7500   23.3907 H       1  UNL1        0.1501
      5 C           7.4160   75.1993   23.5881 C.ar    1  UNL1        0.0808
      6 C           7.9801   76.4657   23.3621 C.ar    1  UNL1        0.0080
      7 C           8.3770   77.2676   24.4338 C.ar    1  UNL1        0.0148
      8 C           8.2280   76.8132   25.7509 C.ar    1  UNL1        0.0502
      9 C           7.7028   75.5329   25.9801 C.ar    1  UNL1        0.0443
     10 C           7.3050   74.7261   24.9096 C.ar    1  UNL1        0.1457
     11 F           6.8448   73.4767   25.1709 F       1  UNL1       -0.2040
     12 N           8.5851   77.6605   26.8557 N.pl3   1  UNL1       -0.3040
     13 C           9.2003   78.9665   26.5865 C.3     1  UNL1        0.1123
     14 C           9.6897   79.6661   27.8656 C.3     1  UNL1        0.1136
     15 N           8.7446   79.5551   28.9960 N.pl3   1  UNL1       -0.2890
     16 C           7.7417   78.4694   29.0207 C.3     1  UNL1        0.1230
     17 C           8.2581   77.2613   28.2274 C.3     1  UNL1        0.1131
     18 C           8.9134   80.3935   30.1700 C.ar    1  UNL1        0.1318
     19 C           9.3929   81.7152   30.0777 C.ar    1  UNL1        0.0343
     20 C           9.5460   82.4802   31.2352 C.ar    1  UNL1        0.0083
     21 C           9.2494   81.9326   32.4908 C.ar    1  UNL1        0.0906
     22 C           8.7593   80.6203   32.5441 C.ar    1  UNL1        0.1041
     23 N           8.6160   79.8957   31.4039 N.ar    1  UNL1       -0.2292
     24 C           9.3633   82.7654   33.7422 C.3     1  UNL1        0.4200
     25 F          10.3059   83.7569   33.5448 F       1  UNL1       -0.1658
     26 F           9.7501   81.9823   34.8160 F       1  UNL1       -0.1658
     27 F           8.1483   83.3528   34.0502 F       1  UNL1       -0.1658
     28 C           6.3849   78.9544   28.4746 C.3     1  UNL1        0.1585
     29 O           5.5318   77.8676   28.2495 O.3     1  UNL1       -0.3802
     30 H           4.6829   78.2490   27.9045 H       1  UNL1        0.2105
     31 C           4.7998   73.6305   21.2659 C.3     1  UNL1        0.1535
     32 C           3.5545   74.4735   21.3548 C.2     1  UNL1        0.2443
     33 O           2.5016   74.0699   20.7900 O.2     1  UNL1       -0.2730
     34 N           3.5442   75.6899   22.1222 N.am    1  UNL1       -0.2825
     35 H           4.3081   75.8407   22.8187 H       1  UNL1        0.1549
     36 C           2.4909   76.6668   22.0656 C.ar    1  UNL1        0.0535
     37 C           1.6458   76.7738   20.9478 C.ar    1  UNL1        0.0353
     38 C           0.6526   77.7563   20.9267 C.ar    1  UNL1        0.1002
     39 N           0.5155   78.6111   21.9747 N.ar    1  UNL1       -0.2422
     40 C           1.3305   78.5428   23.0602 C.ar    1  UNL1        0.1002
     41 C           2.3371   77.5762   23.1211 C.ar    1  UNL1        0.0353
     42 C           5.6199   73.9923   20.0125 C.3     1  UNL1        0.0569
     43 C           5.0277   75.1712   19.2925 C.ar    1  UNL1       -0.0017
     44 C           4.1032   75.1235   18.2536 C.ar    1  UNL1        0.0681
     45 N           3.8869   76.3625   17.7559 N.ar    1  UNL1       -0.3523
     46 C           4.6769   77.1905   18.4613 C.ar    1  UNL1        0.0563
     47 C           4.8354   78.5640   18.2802 C.ar    1  UNL1        0.0170
     48 C           5.7596   79.2339   19.1025 C.ar    1  UNL1        0.0015
     49 C           6.5010   78.5236   20.0719 C.ar    1  UNL1        0.0001
     50 C           6.3197   77.1379   20.2333 C.ar    1  UNL1        0.0012
     51 C           5.3916   76.5008   19.4073 C.ar    1  UNL1        0.0131
     52 H           3.2558   76.6159   16.9636 H       1  UNL1        0.1660
@<TRIPOS>BOND
     1     1     2    2
     2     2     3   am
     3     3    31    1
     4    31    42    1
     5    42    43    1
     6    43    44   ar
     7    44    45   ar
     8    45    46   ar
     9    46    47   ar
    10    47    48   ar
    11    48    49   ar
    12    49    50   ar
    13    50    51   ar
    14    31    32    1
    15    32    33    2
    16    32    34   am
    17    34    36    1
    18    36    37   ar
    19    37    38   ar
    20    38    39   ar
    21    39    40   ar
    22    40    41   ar
    23     2     5    1
    24     5     6   ar
    25     6     7   ar
    26     7     8   ar
    27     8    12    1
    28    12    13    1
    29    13    14    1
    30    14    15    1
    31    15    18    1
    32    18    19   ar
    33    19    20   ar
    34    20    21   ar
    35    21    24    1
    36    24    25    1
    37    24    26    1
    38    24    27    1
    39    21    22   ar
    40    22    23   ar
    41    15    16    1
    42    16    28    1
    43    28    29    1
    44    16    17    1
    45     8     9   ar
    46     9    10   ar
    47    10    11    1
    48    51    43   ar
    49    41    36   ar
    50    10     5   ar
    51    51    46   ar
    52    17    12    1
    53    23    18   ar
    54     3     4    1
    55    45    52    1
    56    34    35    1
    57    29    30    1
