@<TRIPOS>MOLECULE
*****
 79 81 0 0 0
SMALL
GASTEIGER

@<TRIPOS>ATOM
      1 C         -27.1032   51.2923  -11.2023 C.ar    1  UNL1        0.1694
      2 C         -28.5081   51.4435  -11.1173 C.ar    1  UNL1        0.1811
      3 C         -29.1534   51.1741   -9.9070 C.ar    1  UNL1        0.1358
      4 C         -28.4623   50.6500   -8.8242 C.ar    1  UNL1        0.2879
      5 O         -29.1521   50.3597   -7.7324 O.3     1  UNL1       -0.5464
      6 C         -28.6215   49.8304   -6.6397 C.ar    1  UNL1        0.2866
      7 C         -29.4432   49.6025   -5.5177 C.ar    1  UNL1        0.0989
      8 C         -28.8408   49.1732   -4.3152 C.ar    1  UNL1        0.1425
      9 C         -27.5300   48.6423   -4.3315 C.ar    1  UNL1        0.0501
     10 C         -26.7086   48.8821   -5.4607 C.ar    1  UNL1        0.1441
     11 O         -25.3552   48.5235   -5.4528 O.3     1  UNL1       -0.5053
     12 C         -27.2497   49.5085   -6.6111 C.ar    1  UNL1        0.1597
     13 C         -26.4744   49.7991   -7.7621 C.2     1  UNL1        0.2146
     14 O         -25.2609   49.4680   -7.7858 O.2     1  UNL1       -0.2859
     15 C         -27.0720   50.4251   -8.8903 C.ar    1  UNL1        0.1263
     16 C         -26.3686   50.8261  -10.0754 C.ar    1  UNL1        0.0304
     17 H         -24.8516   48.2142   -4.6340 H       1  UNL1        0.2922
     18 H         -30.0717   50.5395   -7.7323 H       1  UNL1        0.5634
     19 C         -30.9650   49.7243   -5.6615 C.3     1  UNL1        0.0337
     20 C         -31.5189   48.9769   -6.8784 C.3     1  UNL1        0.0051
     21 C         -31.4277   51.1888   -5.6407 C.3     1  UNL1        0.0051
     22 C         -26.8358   51.4559  -13.7226 C.3     1  UNL1        0.2526
     23 O         -26.3832   51.5861  -12.3796 O.3     1  UNL1       -0.4687
     24 O         -29.5449   49.2536   -3.1082 O.3     1  UNL1       -0.4659
     25 C         -28.9771   48.8360   -1.8652 C.3     1  UNL1        0.2893
     26 C         -29.9222   47.9801   -1.0800 C.2     1  UNL1        0.2673
     27 O         -31.0969   47.8024   -1.5012 O.2     1  UNL1       -0.2711
     28 N         -29.4855   47.3690    0.1429 N.am    1  UNL1       -0.2953
     29 H         -28.4582   47.3362    0.3348 H       1  UNL1        0.1499
     30 C         -30.4167   46.7972    1.1242 C.3     1  UNL1        0.1485
     31 C         -30.9270   45.4525    0.6659 C.2     1  UNL1        0.2372
     32 N         -31.0107   45.1572   -0.7285 N.am    1  UNL1       -0.3275
     33 O         -31.2404   44.5655    1.5053 O.2     1  UNL1       -0.2736
     34 H         -31.3484   44.2230   -1.0497 H       1  UNL1        0.1450
     35 H         -30.7292   45.8658   -1.4418 H       1  UNL1        0.1450
     36 C         -31.5756   47.7676    1.4211 C.3     1  UNL1        0.0325
     37 C         -31.1164   49.1917    1.7759 C.3     1  UNL1        0.0450
     38 C         -30.4430   49.2206    3.1522 C.3     1  UNL1        0.1740
     39 N         -31.2039   50.0465    4.0902 N.pl3   1  UNL1       -0.2625
     40 H         -32.0200   49.6306    4.5957 H       1  UNL1        0.2587
     41 C         -30.9113   51.4348    4.3103 C.cat   1  UNL1        0.3769
     42 N         -31.1624   52.2886    3.3697 N.pl3   1  UNL1       -0.1298
     43 N         -30.3473   51.8866    5.5482 N.pl3   1  UNL1       -0.2892
     44 H         -30.9656   53.3080    3.4835 H       1  UNL1        0.3062
     45 H         -30.1529   51.2306    6.3354 H       1  UNL1        0.2546
     46 H         -30.1273   52.8972    5.6923 H       1  UNL1        0.2546
     47 C         -27.0051   47.8179   -3.1602 C.3     1  UNL1        0.0578
     48 C         -26.3809   46.4993   -3.5605 C.2     1  UNL1       -0.0297
     49 C         -27.0782   45.3682   -3.8080 C.2     1  UNL1       -0.0475
     50 C         -26.3169   44.1191   -4.1675 C.3     1  UNL1        0.0260
     51 C         -28.5863   45.3274   -3.7368 C.3     1  UNL1        0.0260
     52 O         -29.2468   51.8465  -12.2437 O.3     1  UNL1       -0.4623
     53 C         -30.6733   51.8876  -12.3329 C.3     1  UNL1        0.2895
     54 C         -31.2160   50.5620  -12.7823 C.2     1  UNL1        0.2673
     55 O         -31.5839   49.7171  -11.9221 O.2     1  UNL1       -0.2711
     56 N         -31.3104   50.2595  -14.1814 N.am    1  UNL1       -0.2953
     57 H         -31.1457   51.0384  -14.8595 H       1  UNL1        0.1499
     58 C         -31.2888   48.8809  -14.6784 C.3     1  UNL1        0.1485
     59 C         -31.1294   48.8886  -16.1788 C.2     1  UNL1        0.2372
     60 N         -30.5899   50.0305  -16.8453 N.am    1  UNL1       -0.3275
     61 O         -31.4731   47.8811  -16.8545 O.2     1  UNL1       -0.2736
     62 H         -30.4827   50.0305  -17.8838 H       1  UNL1        0.1450
     63 H         -30.2997   50.8782  -16.3093 H       1  UNL1        0.1450
     64 C         -30.1459   48.1066  -13.9917 C.3     1  UNL1        0.0325
     65 C         -30.5317   46.6586  -13.6477 C.3     1  UNL1        0.0450
     66 C         -29.6171   46.0620  -12.5684 C.3     1  UNL1        0.1740
     67 N         -30.3422   45.8264  -11.3174 N.pl3   1  UNL1       -0.2625
     68 H         -31.0108   45.0269  -11.2418 H       1  UNL1        0.2587
     69 C         -30.1914   46.6854  -10.1799 C.cat   1  UNL1        0.3769
     70 N         -30.1958   46.1905   -8.9826 N.pl3   1  UNL1       -0.1298
     71 N         -30.0280   48.0927  -10.3721 N.pl3   1  UNL1       -0.2892
     72 H         -30.0829   46.7950   -8.1386 H       1  UNL1        0.3062
     73 H         -30.0354   48.4990  -11.3337 H       1  UNL1        0.2546
     74 H         -29.9245   48.7370   -9.5567 H       1  UNL1        0.2546
     75 C         -24.8440   50.8151  -10.1661 C.3     1  UNL1        0.0552
     76 C         -24.2897   52.1101  -10.7184 C.2     1  UNL1       -0.0298
     77 C         -23.1039   52.6580  -10.3735 C.2     1  UNL1       -0.0475
     78 C         -22.7084   53.9651  -11.0116 C.3     1  UNL1        0.0260
     79 C         -22.1800   52.0116   -9.3708 C.3     1  UNL1        0.0260
@<TRIPOS>BOND
     1    22    23    1
     2    23     1    1
     3     1     2   ar
     4     2    52    1
     5    52    53    1
     6    53    54    1
     7    54    55    2
     8    54    56   am
     9    56    58    1
    10    58    64    1
    11    64    65    1
    12    65    66    1
    13    66    67    1
    14    67    69    1
    15    69    70    2
    16    69    71    1
    17    58    59    1
    18    59    60   am
    19    59    61    2
    20     2     3   ar
    21     3     4   ar
    22     4     5    1
    23     5     6    1
    24     6     7   ar
    25     7    19    1
    26    19    20    1
    27    19    21    1
    28     7     8   ar
    29     8    24    1
    30    24    25    1
    31    25    26    1
    32    26    27    2
    33    26    28   am
    34    28    30    1
    35    30    36    1
    36    36    37    1
    37    37    38    1
    38    38    39    1
    39    39    41    1
    40    41    42    2
    41    41    43    1
    42    30    31    1
    43    31    32   am
    44    31    33    2
    45     8     9   ar
    46     9    47    1
    47    47    48    1
    48    48    49    2
    49    49    50    1
    50    49    51    1
    51     9    10   ar
    52    10    11    1
    53    10    12   ar
    54    12    13    1
    55    13    14    2
    56    13    15    1
    57    15    16   ar
    58    16    75    1
    59    75    76    1
    60    76    77    2
    61    77    78    1
    62    77    79    1
    63    16     1   ar
    64    15     4   ar
    65    12     6   ar
    66    56    57    1
    67    67    68    1
    68    70    72    1
    69    71    73    1
    70    71    74    1
    71    60    62    1
    72    60    63    1
    73    28    29    1
    74    39    40    1
    75    42    44    1
    76    43    45    1
    77    43    46    1
    78    32    34    1
    79    32    35    1
    80    11    17    1
    81     5    18    1
@<TRIPOS>MOLECULE
*****
 79 81 0 0 0
SMALL
GASTEIGER

@<TRIPOS>ATOM
      1 C         -21.6365   51.9039   -9.2999 C.ar    1  UNL1        0.1694
      2 C         -21.7885   51.8298   -7.8944 C.ar    1  UNL1        0.1811
      3 C         -23.0090   51.4082   -7.3595 C.ar    1  UNL1        0.1358
      4 C         -24.1087   51.1745   -8.1725 C.ar    1  UNL1        0.2879
      5 O         -25.2489   50.8404   -7.5891 O.3     1  UNL1       -0.5464
      6 C         -26.3786   50.6166   -8.2443 C.ar    1  UNL1        0.2866
      7 C         -27.5245   50.2234   -7.5242 C.ar    1  UNL1        0.0989
      8 C         -28.6798   49.8502   -8.2446 C.ar    1  UNL1        0.1425
      9 C         -28.8075   50.2031   -9.6082 C.ar    1  UNL1        0.0501
     10 C         -27.6492   50.5907  -10.3260 C.ar    1  UNL1        0.1441
     11 O         -27.6954   50.7857  -11.7117 O.3     1  UNL1       -0.5053
     12 C         -26.4191   50.7684   -9.6449 C.ar    1  UNL1        0.1597
     13 C         -25.2200   51.1299  -10.3095 C.2     1  UNL1        0.2146
     14 O         -25.2415   51.3302  -11.5513 O.2     1  UNL1       -0.2859
     15 C         -24.0150   51.2994   -9.5737 C.ar    1  UNL1        0.1263
     16 C         -22.7347   51.5947  -10.1514 C.ar    1  UNL1        0.0304
     17 H         -28.4806   50.5390  -12.2969 H       1  UNL1        0.2922
     18 H         -25.2577   50.7572   -6.6558 H       1  UNL1        0.5634
     19 C         -27.5189   50.3115   -5.9934 C.3     1  UNL1        0.0337
     20 C         -27.1042   51.6895   -5.4687 C.3     1  UNL1        0.0051
     21 C         -26.6826   49.1910   -5.3574 C.3     1  UNL1        0.0051
     22 C         -19.3626   51.4261  -10.3256 C.3     1  UNL1        0.2526
     23 O         -20.4205   52.2817   -9.9078 O.3     1  UNL1       -0.4687
     24 O         -29.7092   49.1477   -7.6075 O.3     1  UNL1       -0.4659
     25 C         -29.7292   47.7205   -7.5387 C.3     1  UNL1        0.2893
     26 C         -30.2108   47.2331   -6.2072 C.2     1  UNL1        0.2673
     27 O         -31.4477   47.0997   -6.0038 O.2     1  UNL1       -0.2711
     28 N         -29.2640   46.9214   -5.1748 N.am    1  UNL1       -0.2953
     29 H         -28.2606   46.8111   -5.4471 H       1  UNL1        0.1499
     30 C         -29.6470   46.7562   -3.7665 C.3     1  UNL1        0.1485
     31 C         -29.2965   47.9850   -2.9630 C.2     1  UNL1        0.2372
     32 N         -30.0744   49.1744   -3.1000 N.am    1  UNL1       -0.3275
     33 O         -28.3465   47.9600   -2.1345 O.2     1  UNL1       -0.2736
     34 H         -29.8451   50.0218   -2.5348 H       1  UNL1        0.1450
     35 H         -30.8839   49.2096   -3.7585 H       1  UNL1        0.1450
     36 C         -29.0116   45.4892   -3.1633 C.3     1  UNL1        0.0325
     37 C         -27.7911   44.9752   -3.9449 C.3     1  UNL1        0.0450
     38 C         -26.6371   44.6385   -2.9946 C.3     1  UNL1        0.1740
     39 N         -26.3291   45.7722   -2.1224 N.pl3   1  UNL1       -0.2625
     40 H         -26.9337   45.9583   -1.2892 H       1  UNL1        0.2587
     41 C         -25.2539   46.6846   -2.3921 C.cat   1  UNL1        0.3769
     42 N         -25.4928   47.9573   -2.3946 N.pl3   1  UNL1       -0.1298
     43 N         -23.9278   46.2101   -2.6583 N.pl3   1  UNL1       -0.2892
     44 H         -24.7431   48.6586   -2.5864 H       1  UNL1        0.3062
     45 H         -23.6943   45.1937   -2.6425 H       1  UNL1        0.2546
     46 H         -23.1562   46.8827   -2.8653 H       1  UNL1        0.2546
     47 C         -30.1674   50.1770  -10.2991 C.3     1  UNL1        0.0578
     48 C         -30.6196   51.5201  -10.8286 C.2     1  UNL1       -0.0297
     49 C         -30.9845   51.7525  -12.1092 C.2     1  UNL1       -0.0475
     50 C         -31.3833   53.1516  -12.4998 C.3     1  UNL1        0.0260
     51 C         -31.0050   50.6546  -13.1460 C.3     1  UNL1        0.0260
     52 O         -20.7264   52.1909   -7.0469 O.3     1  UNL1       -0.4623
     53 C         -19.3357   52.0748   -7.3586 C.3     1  UNL1        0.2895
     54 C         -18.7757   53.3989   -7.7908 C.2     1  UNL1        0.2673
     55 O         -17.5405   53.6204   -7.6708 O.2     1  UNL1       -0.2711
     56 N         -19.6427   54.4053   -8.3324 N.am    1  UNL1       -0.2953
     57 H         -20.6251   54.1289   -8.5612 H       1  UNL1        0.1499
     58 C         -19.3155   55.8318   -8.2559 C.3     1  UNL1        0.1485
     59 C         -20.3034   56.6203   -9.0800 C.2     1  UNL1        0.2372
     60 N         -20.0093   57.9592   -9.4800 N.am    1  UNL1       -0.3275
     61 O         -21.3986   56.0974   -9.4216 O.2     1  UNL1       -0.2736
     62 H         -20.6971   58.5003  -10.0495 H       1  UNL1        0.1450
     63 H         -19.1107   58.4160   -9.2085 H       1  UNL1        0.1450
     64 C         -19.3231   56.2807   -6.7808 C.3     1  UNL1        0.0325
     65 C         -18.1108   57.1545   -6.4192 C.3     1  UNL1        0.0450
     66 C         -18.4368   58.6523   -6.5055 C.3     1  UNL1        0.1740
     67 N         -19.7536   58.9509   -5.9371 N.pl3   1  UNL1       -0.2625
     68 H         -20.5487   58.2881   -6.0804 H       1  UNL1        0.2587
     69 C         -20.0079   60.1561   -5.2040 C.cat   1  UNL1        0.3769
     70 N         -19.4931   61.2790   -5.5945 N.pl3   1  UNL1       -0.1298
     71 N         -20.8400   60.1158   -4.0421 N.pl3   1  UNL1       -0.2892
     72 H         -19.6675   62.1709   -5.0802 H       1  UNL1        0.3062
     73 H         -21.2482   59.2121   -3.7156 H       1  UNL1        0.2546
     74 H         -21.0315   60.9809   -3.4893 H       1  UNL1        0.2546
     75 C         -22.4856   51.5488  -11.6576 C.3     1  UNL1        0.0552
     76 C         -21.4038   52.5130  -12.0928 C.2     1  UNL1       -0.0298
     77 C         -21.5116   53.8596  -12.0805 C.2     1  UNL1       -0.0475
     78 C         -20.3388   54.6747  -12.5625 C.3     1  UNL1        0.0260
     79 C         -22.7627   54.5626  -11.6139 C.3     1  UNL1        0.0260
@<TRIPOS>BOND
     1    22    23    1
     2    23     1    1
     3     1     2   ar
     4     2    52    1
     5    52    53    1
     6    53    54    1
     7    54    55    2
     8    54    56   am
     9    56    58    1
    10    58    64    1
    11    64    65    1
    12    65    66    1
    13    66    67    1
    14    67    69    1
    15    69    70    2
    16    69    71    1
    17    58    59    1
    18    59    60   am
    19    59    61    2
    20     2     3   ar
    21     3     4   ar
    22     4     5    1
    23     5     6    1
    24     6     7   ar
    25     7    19    1
    26    19    20    1
    27    19    21    1
    28     7     8   ar
    29     8    24    1
    30    24    25    1
    31    25    26    1
    32    26    27    2
    33    26    28   am
    34    28    30    1
    35    30    36    1
    36    36    37    1
    37    37    38    1
    38    38    39    1
    39    39    41    1
    40    41    42    2
    41    41    43    1
    42    30    31    1
    43    31    32   am
    44    31    33    2
    45     8     9   ar
    46     9    47    1
    47    47    48    1
    48    48    49    2
    49    49    50    1
    50    49    51    1
    51     9    10   ar
    52    10    11    1
    53    10    12   ar
    54    12    13    1
    55    13    14    2
    56    13    15    1
    57    15    16   ar
    58    16    75    1
    59    75    76    1
    60    76    77    2
    61    77    78    1
    62    77    79    1
    63    16     1   ar
    64    15     4   ar
    65    12     6   ar
    66    56    57    1
    67    67    68    1
    68    70    72    1
    69    71    73    1
    70    71    74    1
    71    60    62    1
    72    60    63    1
    73    28    29    1
    74    39    40    1
    75    42    44    1
    76    43    45    1
    77    43    46    1
    78    32    34    1
    79    32    35    1
    80    11    17    1
    81     5    18    1
@<TRIPOS>MOLECULE
*****
 79 81 0 0 0
SMALL
GASTEIGER

@<TRIPOS>ATOM
      1 C         -23.3476   51.7567  -10.0858 C.ar    1  UNL1        0.1694
      2 C         -22.9598   51.6875   -8.7261 C.ar    1  UNL1        0.1811
      3 C         -23.7753   51.0095   -7.8157 C.ar    1  UNL1        0.1358
      4 C         -25.0116   50.5057   -8.1934 C.ar    1  UNL1        0.2879
      5 O         -25.7566   49.9327   -7.2614 O.3     1  UNL1       -0.5464
      6 C         -26.9652   49.4359   -7.4808 C.ar    1  UNL1        0.2866
      7 C         -27.6525   48.8078   -6.4228 C.ar    1  UNL1        0.0989
      8 C         -28.8742   48.1580   -6.7026 C.ar    1  UNL1        0.1425
      9 C         -29.5627   48.4348   -7.9066 C.ar    1  UNL1        0.0501
     10 C         -28.8619   49.0603   -8.9672 C.ar    1  UNL1        0.1441
     11 O         -29.4492   49.2018  -10.2303 O.3     1  UNL1       -0.5053
     12 C         -27.5429   49.5362   -8.7623 C.ar    1  UNL1        0.1597
     13 C         -26.7801   50.1474   -9.7895 C.2     1  UNL1        0.2146
     14 O         -27.2940   50.3035  -10.9271 O.2     1  UNL1       -0.2859
     15 C         -25.4621   50.6109   -9.5253 C.ar    1  UNL1        0.1263
     16 C         -24.5795   51.1788  -10.5044 C.ar    1  UNL1        0.0304
     17 H         -30.3157   48.7643  -10.5091 H       1  UNL1        0.2922
     18 H         -25.4080   49.8749   -6.3935 H       1  UNL1        0.5634
     19 C         -27.1134   48.9362   -4.9931 C.3     1  UNL1        0.0337
     20 C         -26.8377   50.3848   -4.5788 C.3     1  UNL1        0.0051
     21 C         -25.8878   48.0400   -4.7596 C.3     1  UNL1        0.0051
     22 C         -22.5956   53.7557  -11.4603 C.3     1  UNL1        0.2526
     23 O         -22.5528   52.3891  -11.0652 O.3     1  UNL1       -0.4687
     24 O         -29.4165   47.2538   -5.7820 O.3     1  UNL1       -0.4659
     25 C         -29.1295   45.8547   -5.8281 C.3     1  UNL1        0.2893
     26 C         -28.6048   45.3498   -4.5196 C.2     1  UNL1        0.2673
     27 O         -28.6683   44.1185   -4.2573 O.2     1  UNL1       -0.2711
     28 N         -28.0342   46.2681   -3.5758 N.am    1  UNL1       -0.2953
     29 H         -27.7790   47.2237   -3.9148 H       1  UNL1        0.1499
     30 C         -27.8006   45.9207   -2.1680 C.3     1  UNL1        0.1485
     31 C         -26.6216   44.9883   -2.0296 C.2     1  UNL1        0.2372
     32 N         -25.9148   44.5524   -3.1910 N.am    1  UNL1       -0.3275
     33 O         -26.2235   44.6227   -0.8905 O.2     1  UNL1       -0.2736
     34 H         -25.0893   43.9199   -3.0988 H       1  UNL1        0.1450
     35 H         -26.2083   44.8653   -4.1429 H       1  UNL1        0.1450
     36 C         -29.0676   45.3252   -1.5254 C.3     1  UNL1        0.0325
     37 C         -30.0484   46.3830   -0.9927 C.3     1  UNL1        0.0450
     38 C         -30.2703   46.2114    0.5139 C.3     1  UNL1        0.1740
     39 N         -30.9291   47.3871    1.0835 N.pl3   1  UNL1       -0.2625
     40 H         -31.9479   47.3423    1.3171 H       1  UNL1        0.2587
     41 C         -30.2450   48.6327    1.2882 C.cat   1  UNL1        0.3769
     42 N         -28.9501   48.6473    1.2925 N.pl3   1  UNL1       -0.1298
     43 N         -30.9700   49.8529    1.4880 N.pl3   1  UNL1       -0.2892
     44 H         -28.4092   49.5286    1.4384 H       1  UNL1        0.3062
     45 H         -32.0123   49.8823    1.4686 H       1  UNL1        0.2546
     46 H         -30.4615   50.7509    1.6481 H       1  UNL1        0.2546
     47 C         -31.0369   48.0760   -8.0651 C.3     1  UNL1        0.0578
     48 C         -31.3965   47.5182   -9.4246 C.2     1  UNL1       -0.0297
     49 C         -31.1126   46.2617   -9.8339 C.2     1  UNL1       -0.0475
     50 C         -31.5055   45.8550  -11.2301 C.3     1  UNL1        0.0260
     51 C         -30.4210   45.2652   -8.9341 C.3     1  UNL1        0.0260
     52 O         -21.7737   52.3074   -8.2952 O.3     1  UNL1       -0.4623
     53 C         -20.4724   52.0894   -8.8463 C.3     1  UNL1        0.2895
     54 C         -19.8093   53.3953   -9.1756 C.2     1  UNL1        0.2673
     55 O         -18.6953   53.3954   -9.7657 O.2     1  UNL1       -0.2711
     56 N         -20.4389   54.6333   -8.8167 N.am    1  UNL1       -0.2953
     57 H         -21.4263   54.5953   -8.4743 H       1  UNL1        0.1499
     58 C         -19.6662   55.8586   -8.5938 C.3     1  UNL1        0.1485
     59 C         -20.3225   57.0072   -9.3195 C.2     1  UNL1        0.2372
     60 N         -21.7276   56.9969   -9.5738 N.am    1  UNL1       -0.3275
     61 O         -19.6295   57.9870   -9.7062 O.2     1  UNL1       -0.2736
     62 H         -22.1762   57.7940  -10.0773 H       1  UNL1        0.1450
     63 H         -22.3235   56.1967   -9.2661 H       1  UNL1        0.1450
     64 C         -19.5628   56.1307   -7.0797 C.3     1  UNL1        0.0325
     65 C         -18.2980   56.9194   -6.7025 C.3     1  UNL1        0.0450
     66 C         -18.5359   58.4358   -6.7360 C.3     1  UNL1        0.1740
     67 N         -19.8668   58.7837   -6.2319 N.pl3   1  UNL1       -0.2625
     68 H         -20.6888   58.1814   -6.4633 H       1  UNL1        0.2587
     69 C         -20.0962   59.9588   -5.4438 C.cat   1  UNL1        0.3769
     70 N         -20.9304   60.8638   -5.8482 N.pl3   1  UNL1       -0.1298
     71 N         -19.4054   60.1253   -4.2032 N.pl3   1  UNL1       -0.2892
     72 H         -21.1179   61.7260   -5.2897 H       1  UNL1        0.3062
     73 H         -18.7232   59.4053   -3.8775 H       1  UNL1        0.2546
     74 H         -19.5522   60.9776   -3.6177 H       1  UNL1        0.2546
     75 C         -24.8888   51.1511  -11.9998 C.3     1  UNL1        0.0552
     76 C         -26.3672   51.2992  -12.2857 C.2     1  UNL1       -0.0298
     77 C         -26.9017   51.5694  -13.4968 C.2     1  UNL1       -0.0475
     78 C         -28.3996   51.6982  -13.6039 C.3     1  UNL1        0.0260
     79 C         -26.0504   51.7550  -14.7288 C.3     1  UNL1        0.0260
@<TRIPOS>BOND
     1    22    23    1
     2    23     1    1
     3     1     2   ar
     4     2    52    1
     5    52    53    1
     6    53    54    1
     7    54    55    2
     8    54    56   am
     9    56    58    1
    10    58    64    1
    11    64    65    1
    12    65    66    1
    13    66    67    1
    14    67    69    1
    15    69    70    2
    16    69    71    1
    17    58    59    1
    18    59    60   am
    19    59    61    2
    20     2     3   ar
    21     3     4   ar
    22     4     5    1
    23     5     6    1
    24     6     7   ar
    25     7    19    1
    26    19    20    1
    27    19    21    1
    28     7     8   ar
    29     8    24    1
    30    24    25    1
    31    25    26    1
    32    26    27    2
    33    26    28   am
    34    28    30    1
    35    30    36    1
    36    36    37    1
    37    37    38    1
    38    38    39    1
    39    39    41    1
    40    41    42    2
    41    41    43    1
    42    30    31    1
    43    31    32   am
    44    31    33    2
    45     8     9   ar
    46     9    47    1
    47    47    48    1
    48    48    49    2
    49    49    50    1
    50    49    51    1
    51     9    10   ar
    52    10    11    1
    53    10    12   ar
    54    12    13    1
    55    13    14    2
    56    13    15    1
    57    15    16   ar
    58    16    75    1
    59    75    76    1
    60    76    77    2
    61    77    78    1
    62    77    79    1
    63    16     1   ar
    64    15     4   ar
    65    12     6   ar
    66    56    57    1
    67    67    68    1
    68    70    72    1
    69    71    73    1
    70    71    74    1
    71    60    62    1
    72    60    63    1
    73    28    29    1
    74    39    40    1
    75    42    44    1
    76    43    45    1
    77    43    46    1
    78    32    34    1
    79    32    35    1
    80    11    17    1
    81     5    18    1
@<TRIPOS>MOLECULE
*****
 79 81 0 0 0
SMALL
GASTEIGER

@<TRIPOS>ATOM
      1 C         -25.2119   51.0486  -10.6294 C.ar    1  UNL1        0.1694
      2 C         -24.1982   51.0352   -9.6414 C.ar    1  UNL1        0.1811
      3 C         -24.5117   50.6171   -8.3450 C.ar    1  UNL1        0.1358
      4 C         -25.8182   50.3282   -7.9783 C.ar    1  UNL1        0.2879
      5 O         -26.0481   50.0012   -6.7165 O.3     1  UNL1       -0.5464
      6 C         -27.2496   49.7287   -6.2288 C.ar    1  UNL1        0.2866
      7 C         -27.3729   49.3487   -4.8773 C.ar    1  UNL1        0.0989
      8 C         -28.6346   48.9236   -4.4076 C.ar    1  UNL1        0.1425
      9 C         -29.8008   49.2126   -5.1537 C.ar    1  UNL1        0.0501
     10 C         -29.6677   49.5873   -6.5135 C.ar    1  UNL1        0.1441
     11 O         -30.7938   49.7190   -7.3351 O.3     1  UNL1       -0.5053
     12 C         -28.3819   49.8166   -7.0634 C.ar    1  UNL1        0.1597
     13 C         -28.1806   50.1685   -8.4221 C.2     1  UNL1        0.2146
     14 O         -29.1786   50.3122   -9.1744 O.2     1  UNL1       -0.2859
     15 C         -26.8669   50.3915   -8.9185 C.ar    1  UNL1        0.1263
     16 C         -26.5443   50.6826  -10.2864 C.ar    1  UNL1        0.0304
     17 H         -31.7267   49.4327   -7.0749 H       1  UNL1        0.2922
     18 H         -25.3165   49.9598   -6.1324 H       1  UNL1        0.5634
     19 C         -26.1710   49.5056   -3.9383 C.3     1  UNL1        0.0337
     20 C         -26.1958   48.5315   -2.7565 C.3     1  UNL1        0.0051
     21 C         -25.9959   50.9576   -3.4684 C.3     1  UNL1        0.0051
     22 C         -24.1083   52.4666  -12.4244 C.3     1  UNL1        0.2526
     23 O         -24.9566   51.4195  -11.9666 O.3     1  UNL1       -0.4687
     24 O         -28.7369   48.2329   -3.1946 O.3     1  UNL1       -0.4659
     25 C         -29.2146   48.8558   -2.0006 C.3     1  UNL1        0.2893
     26 C         -30.2888   48.0473   -1.3412 C.2     1  UNL1        0.2673
     27 O         -30.9835   48.5649   -0.4255 O.2     1  UNL1       -0.2711
     28 N         -30.5201   46.6928   -1.7551 N.am    1  UNL1       -0.2953
     29 H         -30.1028   46.3792   -2.6610 H       1  UNL1        0.1499
     30 C         -31.3094   45.7414   -0.9620 C.3     1  UNL1        0.1485
     31 C         -30.6399   45.4529    0.3597 C.2     1  UNL1        0.2372
     32 N         -31.2776   44.6033    1.3136 N.am    1  UNL1       -0.3275
     33 O         -29.4972   45.9204    0.6152 O.2     1  UNL1       -0.2736
     34 H         -30.8112   44.3886    2.2227 H       1  UNL1        0.1450
     35 H         -32.2111   44.1812    1.1122 H       1  UNL1        0.1450
     36 C         -31.5760   44.4464   -1.7524 C.3     1  UNL1        0.0325
     37 C         -31.4522   44.6133   -3.2761 C.3     1  UNL1        0.0450
     38 C         -30.0131   44.3589   -3.7375 C.3     1  UNL1        0.1740
     39 N         -29.4481   45.5503   -4.3718 N.pl3   1  UNL1       -0.2625
     40 H         -29.7703   46.4972   -4.0651 H       1  UNL1        0.2587
     41 C         -28.5000   45.4767   -5.4474 C.cat   1  UNL1        0.3769
     42 N         -27.2343   45.4918   -5.1741 N.pl3   1  UNL1       -0.1298
     43 N         -28.9313   45.3884   -6.8115 N.pl3   1  UNL1       -0.2892
     44 H         -26.5079   45.4414   -5.9228 H       1  UNL1        0.3062
     45 H         -29.9418   45.3514   -7.0670 H       1  UNL1        0.2546
     46 H         -28.2324   45.3478   -7.5864 H       1  UNL1        0.2546
     47 C         -31.1814   49.1321   -4.5099 C.3     1  UNL1        0.0578
     48 C         -31.4970   50.2781   -3.5741 C.2     1  UNL1       -0.0297
     49 C         -31.2404   51.5774   -3.8443 C.2     1  UNL1       -0.0475
     50 C         -31.5820   52.6090   -2.8011 C.3     1  UNL1        0.0260
     51 C         -30.6291   52.0156   -5.1539 C.3     1  UNL1        0.0260
     52 O         -22.8936   51.4523   -9.9591 O.3     1  UNL1       -0.4623
     53 C         -21.9023   51.8747   -9.0192 C.3     1  UNL1        0.2895
     54 C         -20.9228   52.8113   -9.6649 C.2     1  UNL1        0.2673
     55 O         -19.9668   52.3425  -10.3399 O.2     1  UNL1       -0.2711
     56 N         -21.0731   54.2295   -9.5102 N.am    1  UNL1       -0.2953
     57 H         -21.9596   54.5804   -9.0803 H       1  UNL1        0.1499
     58 C         -19.9325   55.1443   -9.6108 C.3     1  UNL1        0.1485
     59 C         -20.4318   56.5668   -9.6751 C.2     1  UNL1        0.2372
     60 N         -21.7038   56.9149   -9.1275 N.am    1  UNL1       -0.3275
     61 O         -19.7238   57.4596  -10.2150 O.2     1  UNL1       -0.2736
     62 H         -22.0445   57.9006   -9.1757 H       1  UNL1        0.1450
     63 H         -22.3103   56.1942   -8.6772 H       1  UNL1        0.1450
     64 C         -18.9942   54.9276   -8.4068 C.3     1  UNL1        0.0325
     65 C         -19.5799   55.4681   -7.0919 C.3     1  UNL1        0.0450
     66 C         -18.8037   56.6885   -6.5768 C.3     1  UNL1        0.1740
     67 N         -19.5986   57.9150   -6.6783 N.pl3   1  UNL1       -0.2625
     68 H         -20.5977   57.8683   -6.9809 H       1  UNL1        0.2587
     69 C         -19.0399   59.2061   -6.4038 C.cat   1  UNL1        0.3769
     70 N         -18.2965   59.7969   -7.2852 N.pl3   1  UNL1       -0.1298
     71 N         -19.3128   59.8445   -5.1540 N.pl3   1  UNL1       -0.2892
     72 H         -17.8821   60.7393   -7.1105 H       1  UNL1        0.3062
     73 H         -19.9013   59.3685   -4.4350 H       1  UNL1        0.2546
     74 H         -18.9092   60.7815   -4.9309 H       1  UNL1        0.2546
     75 C         -27.5717   50.5732  -11.4113 C.3     1  UNL1        0.0552
     76 C         -28.4397   51.8076  -11.5214 C.2     1  UNL1       -0.0298
     77 C         -29.6684   51.8465  -12.0818 C.2     1  UNL1       -0.0475
     78 C         -30.3941   53.1671  -12.1214 C.3     1  UNL1        0.0260
     79 C         -30.3226   50.6218  -12.6726 C.3     1  UNL1        0.0260
@<TRIPOS>BOND
     1    22    23    1
     2    23     1    1
     3     1     2   ar
     4     2    52    1
     5    52    53    1
     6    53    54    1
     7    54    55    2
     8    54    56   am
     9    56    58    1
    10    58    64    1
    11    64    65    1
    12    65    66    1
    13    66    67    1
    14    67    69    1
    15    69    70    2
    16    69    71    1
    17    58    59    1
    18    59    60   am
    19    59    61    2
    20     2     3   ar
    21     3     4   ar
    22     4     5    1
    23     5     6    1
    24     6     7   ar
    25     7    19    1
    26    19    20    1
    27    19    21    1
    28     7     8   ar
    29     8    24    1
    30    24    25    1
    31    25    26    1
    32    26    27    2
    33    26    28   am
    34    28    30    1
    35    30    36    1
    36    36    37    1
    37    37    38    1
    38    38    39    1
    39    39    41    1
    40    41    42    2
    41    41    43    1
    42    30    31    1
    43    31    32   am
    44    31    33    2
    45     8     9   ar
    46     9    47    1
    47    47    48    1
    48    48    49    2
    49    49    50    1
    50    49    51    1
    51     9    10   ar
    52    10    11    1
    53    10    12   ar
    54    12    13    1
    55    13    14    2
    56    13    15    1
    57    15    16   ar
    58    16    75    1
    59    75    76    1
    60    76    77    2
    61    77    78    1
    62    77    79    1
    63    16     1   ar
    64    15     4   ar
    65    12     6   ar
    66    56    57    1
    67    67    68    1
    68    70    72    1
    69    71    73    1
    70    71    74    1
    71    60    62    1
    72    60    63    1
    73    28    29    1
    74    39    40    1
    75    42    44    1
    76    43    45    1
    77    43    46    1
    78    32    34    1
    79    32    35    1
    80    11    17    1
    81     5    18    1
@<TRIPOS>MOLECULE
*****
 79 81 0 0 0
SMALL
GASTEIGER

@<TRIPOS>ATOM
      1 C         -23.3735   52.1883  -10.1849 C.ar    1  UNL1        0.1694
      2 C         -23.0046   51.7552   -8.8887 C.ar    1  UNL1        0.1811
      3 C         -23.8345   50.8638   -8.2030 C.ar    1  UNL1        0.1358
      4 C         -25.0672   50.4878   -8.7170 C.ar    1  UNL1        0.2879
      5 O         -25.8266   49.6913   -7.9816 O.3     1  UNL1       -0.5464
      6 C         -27.0337   49.2794   -8.3408 C.ar    1  UNL1        0.2866
      7 C         -27.7375   48.3958   -7.4981 C.ar    1  UNL1        0.0989
      8 C         -28.9573   47.8528   -7.9566 C.ar    1  UNL1        0.1425
      9 C         -29.6284   48.4463   -9.0510 C.ar    1  UNL1        0.0501
     10 C         -28.9112   49.3281   -9.8968 C.ar    1  UNL1        0.1441
     11 O         -29.4807   49.8063  -11.0831 O.3     1  UNL1       -0.5053
     12 C         -27.5935   49.7229   -9.5558 C.ar    1  UNL1        0.1597
     13 C         -26.8149   50.5815  -10.3724 C.2     1  UNL1        0.2146
     14 O         -27.3127   51.0398  -11.4330 O.2     1  UNL1       -0.2859
     15 C         -25.4991   50.9486   -9.9776 C.ar    1  UNL1        0.1263
     16 C         -24.6014   51.7518  -10.7580 C.ar    1  UNL1        0.0304
     17 H         -30.3446   49.4652  -11.4795 H       1  UNL1        0.2922
     18 H         -25.4902   49.4011   -7.1566 H       1  UNL1        0.5634
     19 C         -27.2175   48.1333   -6.0797 C.3     1  UNL1        0.0337
     20 C         -27.0049   49.4142   -5.2671 C.3     1  UNL1        0.0051
     21 C         -25.9588   47.2529   -6.0840 C.3     1  UNL1        0.0051
     22 C         -22.4740   54.4707  -10.8424 C.3     1  UNL1        0.2526
     23 O         -22.5634   53.0543  -10.9495 O.3     1  UNL1       -0.4687
     24 O         -29.5150   46.7389   -7.3184 O.3     1  UNL1       -0.4659
     25 C         -30.7846   46.7912   -6.6647 C.3     1  UNL1        0.2893
     26 C         -30.6562   46.6200   -5.1826 C.2     1  UNL1        0.2673
     27 O         -31.0824   45.5657   -4.6389 O.2     1  UNL1       -0.2711
     28 N         -30.0500   47.6540   -4.3934 N.am    1  UNL1       -0.2953
     29 H         -29.4991   48.3907   -4.8905 H       1  UNL1        0.1499
     30 C         -30.1752   47.7167   -2.9313 C.3     1  UNL1        0.1485
     31 C         -30.7095   49.0582   -2.4914 C.2     1  UNL1        0.2372
     32 N         -30.8924   49.3341   -1.1025 N.am    1  UNL1       -0.3275
     33 O         -30.9559   49.9593   -3.3381 O.2     1  UNL1       -0.2736
     34 H         -31.2470   50.2659   -0.7928 H       1  UNL1        0.1450
     35 H         -30.6675   48.6134   -0.3812 H       1  UNL1        0.1450
     36 C         -28.8350   47.3920   -2.2448 C.3     1  UNL1        0.0325
     37 C         -28.6807   45.9126   -1.8545 C.3     1  UNL1        0.0450
     38 C         -27.7602   45.1821   -2.8381 C.3     1  UNL1        0.1740
     39 N         -26.5000   45.9050   -3.0116 N.pl3   1  UNL1       -0.2625
     40 H         -26.4660   46.7319   -3.6514 H       1  UNL1        0.2587
     41 C         -25.2794   45.4927   -2.3777 C.cat   1  UNL1        0.3769
     42 N         -25.3134   44.5335   -1.5085 N.pl3   1  UNL1       -0.1298
     43 N         -24.0314   46.1246   -2.6902 N.pl3   1  UNL1       -0.2892
     44 H         -24.4519   44.2003   -1.0212 H       1  UNL1        0.3062
     45 H         -23.9631   46.8848   -3.4010 H       1  UNL1        0.2546
     46 H         -23.1519   45.8245   -2.2137 H       1  UNL1        0.2546
     47 C         -31.1014   48.1529   -9.3179 C.3     1  UNL1        0.0578
     48 C         -31.4009   47.7243  -10.7376 C.2     1  UNL1       -0.0297
     49 C         -31.0321   46.5384  -11.2711 C.2     1  UNL1       -0.0475
     50 C         -31.3736   46.2618  -12.7119 C.3     1  UNL1        0.0260
     51 C         -30.2967   45.4939  -10.4655 C.3     1  UNL1        0.0260
     52 O         -21.8225   52.2292   -8.2930 O.3     1  UNL1       -0.4623
     53 C         -20.7005   51.4271   -7.9156 C.3     1  UNL1        0.2895
     54 C         -19.4137   52.1450   -8.2021 C.2     1  UNL1        0.2673
     55 O         -19.4401   53.2505   -8.8075 O.2     1  UNL1       -0.2711
     56 N         -18.1634   51.5732   -7.7925 N.am    1  UNL1       -0.2953
     57 H         -18.1934   50.7414   -7.1594 H       1  UNL1        0.1499
     58 C         -16.9069   51.8874   -8.4784 C.3     1  UNL1        0.1485
     59 C         -15.7868   51.9597   -7.4699 C.2     1  UNL1        0.2372
     60 N         -15.5647   50.8870   -6.5540 N.am    1  UNL1       -0.3275
     61 O         -15.0375   52.9730   -7.4317 O.2     1  UNL1       -0.2736
     62 H         -14.7887   50.9429   -5.8578 H       1  UNL1        0.1450
     63 H         -16.1722   50.0379   -6.5634 H       1  UNL1        0.1450
     64 C         -16.6305   50.8197   -9.5558 C.3     1  UNL1        0.0325
     65 C         -16.0673   51.4183  -10.8552 C.3     1  UNL1        0.0450
     66 C         -17.0480   52.4050  -11.5047 C.3     1  UNL1        0.1740
     67 N         -18.1784   51.7109  -12.1265 N.pl3   1  UNL1       -0.2625
     68 H         -18.0102   51.0036  -12.8771 H       1  UNL1        0.2587
     69 C         -19.5355   51.9920  -11.7607 C.cat   1  UNL1        0.3769
     70 N         -19.9429   53.2173  -11.6547 N.pl3   1  UNL1       -0.1298
     71 N         -20.4420   50.9130  -11.5203 N.pl3   1  UNL1       -0.2892
     72 H         -20.9275   53.4475  -11.3943 H       1  UNL1        0.3062
     73 H         -20.1168   49.9235  -11.5926 H       1  UNL1        0.2546
     74 H         -21.4327   51.0959  -11.2451 H       1  UNL1        0.2546
     75 C         -24.8904   52.1273  -12.2100 C.3     1  UNL1        0.0552
     76 C         -26.1211   51.4333  -12.7512 C.2     1  UNL1       -0.0298
     77 C         -26.5581   51.5083  -14.0274 C.2     1  UNL1       -0.0475
     78 C         -27.8150   50.7630  -14.3971 C.3     1  UNL1        0.0260
     79 C         -25.8380   52.3170  -15.0783 C.3     1  UNL1        0.0260
@<TRIPOS>BOND
     1    22    23    1
     2    23     1    1
     3     1     2   ar
     4     2    52    1
     5    52    53    1
     6    53    54    1
     7    54    55    2
     8    54    56   am
     9    56    58    1
    10    58    64    1
    11    64    65    1
    12    65    66    1
    13    66    67    1
    14    67    69    1
    15    69    70    2
    16    69    71    1
    17    58    59    1
    18    59    60   am
    19    59    61    2
    20     2     3   ar
    21     3     4   ar
    22     4     5    1
    23     5     6    1
    24     6     7   ar
    25     7    19    1
    26    19    20    1
    27    19    21    1
    28     7     8   ar
    29     8    24    1
    30    24    25    1
    31    25    26    1
    32    26    27    2
    33    26    28   am
    34    28    30    1
    35    30    36    1
    36    36    37    1
    37    37    38    1
    38    38    39    1
    39    39    41    1
    40    41    42    2
    41    41    43    1
    42    30    31    1
    43    31    32   am
    44    31    33    2
    45     8     9   ar
    46     9    47    1
    47    47    48    1
    48    48    49    2
    49    49    50    1
    50    49    51    1
    51     9    10   ar
    52    10    11    1
    53    10    12   ar
    54    12    13    1
    55    13    14    2
    56    13    15    1
    57    15    16   ar
    58    16    75    1
    59    75    76    1
    60    76    77    2
    61    77    78    1
    62    77    79    1
    63    16     1   ar
    64    15     4   ar
    65    12     6   ar
    66    56    57    1
    67    67    68    1
    68    70    72    1
    69    71    73    1
    70    71    74    1
    71    60    62    1
    72    60    63    1
    73    28    29    1
    74    39    40    1
    75    42    44    1
    76    43    45    1
    77    43    46    1
    78    32    34    1
    79    32    35    1
    80    11    17    1
    81     5    18    1
@<TRIPOS>MOLECULE
*****
 79 81 0 0 0
SMALL
GASTEIGER

@<TRIPOS>ATOM
      1 C         -23.4472   51.7616  -10.1248 C.ar    1  UNL1        0.1694
      2 C         -23.1187   51.7381   -8.7481 C.ar    1  UNL1        0.1811
      3 C         -23.9758   51.0946   -7.8509 C.ar    1  UNL1        0.1358
      4 C         -25.1970   50.5821   -8.2642 C.ar    1  UNL1        0.2879
      5 O         -25.9842   50.0441   -7.3461 O.3     1  UNL1       -0.5464
      6 C         -27.1845   49.5438   -7.6003 C.ar    1  UNL1        0.2866
      7 C         -27.9198   48.9549   -6.5521 C.ar    1  UNL1        0.0989
      8 C         -29.1314   48.2997   -6.8619 C.ar    1  UNL1        0.1425
      9 C         -29.7660   48.5369   -8.1034 C.ar    1  UNL1        0.0501
     10 C         -29.0173   49.1232   -9.1536 C.ar    1  UNL1        0.1441
     11 O         -29.5489   49.2228  -10.4450 O.3     1  UNL1       -0.5053
     12 C         -27.7060   49.6017   -8.9084 C.ar    1  UNL1        0.1597
     13 C         -26.8968   50.1745   -9.9220 C.2     1  UNL1        0.2146
     14 O         -27.3605   50.2929  -11.0855 O.2     1  UNL1       -0.2859
     15 C         -25.5892   50.6426   -9.6172 C.ar    1  UNL1        0.1263
     16 C         -24.6626   51.1735  -10.5761 C.ar    1  UNL1        0.0304
     17 H         -30.4045   48.7788  -10.7458 H       1  UNL1        0.2922
     18 H         -25.6737   50.0152   -6.4625 H       1  UNL1        0.5634
     19 C         -27.4422   49.1309   -5.1057 C.3     1  UNL1        0.0337
     20 C         -27.0720   50.5772   -4.7631 C.3     1  UNL1        0.0051
     21 C         -26.3050   48.1596   -4.7550 C.3     1  UNL1        0.0051
     22 C         -22.4826   53.7434  -11.3867 C.3     1  UNL1        0.2526
     23 O         -22.6079   52.3571  -11.0901 O.3     1  UNL1       -0.4687
     24 O         -29.7171   47.4297   -5.9351 O.3     1  UNL1       -0.4659
     25 C         -30.7194   47.8609   -5.0124 C.3     1  UNL1        0.2893
     26 C         -30.7995   46.9634   -3.8164 C.2     1  UNL1        0.2673
     27 O         -31.5282   45.9357   -3.8575 O.2     1  UNL1       -0.2711
     28 N         -30.0480   47.2780   -2.6349 N.am    1  UNL1       -0.2953
     29 H         -29.2824   47.9855   -2.7150 H       1  UNL1        0.1499
     30 C         -30.3129   46.6526   -1.3326 C.3     1  UNL1        0.1485
     31 C         -30.4150   47.6930   -0.2438 C.2     1  UNL1        0.2372
     32 N         -30.2805   49.0779   -0.5637 N.am    1  UNL1       -0.3275
     33 O         -30.6633   47.3548    0.9451 O.2     1  UNL1       -0.2736
     34 H         -30.3658   49.8020    0.1837 H       1  UNL1        0.1450
     35 H         -30.1035   49.3839   -1.5462 H       1  UNL1        0.1450
     36 C         -29.2470   45.5916   -0.9991 C.3     1  UNL1        0.0325
     37 C         -27.9228   45.7835   -1.7570 C.3     1  UNL1        0.0450
     38 C         -27.8125   44.7937   -2.9217 C.3     1  UNL1        0.1740
     39 N         -26.4339   44.3331   -3.0889 N.pl3   1  UNL1       -0.2625
     40 H         -26.1862   43.7430   -3.9165 H       1  UNL1        0.2587
     41 C         -25.4043   44.6120   -2.1278 C.cat   1  UNL1        0.3769
     42 N         -24.3817   45.3204   -2.4873 N.pl3   1  UNL1       -0.1298
     43 N         -25.4907   44.1196   -0.7845 N.pl3   1  UNL1       -0.2892
     44 H         -23.6081   45.5481   -1.8237 H       1  UNL1        0.3062
     45 H         -26.3099   43.5651   -0.4540 H       1  UNL1        0.2546
     46 H         -24.7298   44.3186   -0.0975 H       1  UNL1        0.2546
     47 C         -31.2337   48.1777   -8.3131 C.3     1  UNL1        0.0578
     48 C         -31.5463   46.7100   -8.1211 C.2     1  UNL1       -0.0297
     49 C         -31.1673   45.7308   -8.9722 C.2     1  UNL1       -0.0475
     50 C         -31.5786   44.3143   -8.6664 C.3     1  UNL1        0.0260
     51 C         -30.3477   46.0188  -10.2076 C.3     1  UNL1        0.0260
     52 O         -21.9493   52.3687   -8.2878 O.3     1  UNL1       -0.4623
     53 C         -20.6121   51.9293   -8.5393 C.3     1  UNL1        0.2895
     54 C         -19.6910   53.1020   -8.7117 C.2     1  UNL1        0.2673
     55 O         -18.4546   52.9557   -8.5135 O.2     1  UNL1       -0.2711
     56 N         -20.2167   54.3804   -9.0952 N.am    1  UNL1       -0.2953
     57 H         -21.2158   54.4232   -9.4017 H       1  UNL1        0.1499
     58 C         -19.5330   55.6318   -8.7568 C.3     1  UNL1        0.1485
     59 C         -20.3277   56.7996   -9.2873 C.2     1  UNL1        0.2372
     60 N         -21.7553   56.7693   -9.2794 N.am    1  UNL1       -0.3275
     61 O         -19.7314   57.8133   -9.7419 O.2     1  UNL1       -0.2736
     62 H         -22.2999   57.5799   -9.6486 H       1  UNL1        0.1450
     63 H         -22.2731   55.9411   -8.9106 H       1  UNL1        0.1450
     64 C         -19.3507   55.7188   -7.2282 C.3     1  UNL1        0.0325
     65 C         -19.5987   57.1335   -6.6796 C.3     1  UNL1        0.0450
     66 C         -18.2863   57.8898   -6.4284 C.3     1  UNL1        0.1740
     67 N         -18.4427   59.3293   -6.6513 N.pl3   1  UNL1       -0.2625
     68 H         -17.8390   59.8202   -7.3489 H       1  UNL1        0.2587
     69 C         -19.3887   60.1130   -5.9128 C.cat   1  UNL1        0.3769
     70 N         -20.2028   60.9082   -6.5319 N.pl3   1  UNL1       -0.1298
     71 N         -19.4362   60.0078   -4.4878 N.pl3   1  UNL1       -0.2892
     72 H         -20.9039   61.4856   -6.0166 H       1  UNL1        0.3062
     73 H         -18.7749   59.3777   -3.9822 H       1  UNL1        0.2546
     74 H         -20.1124   60.5757   -3.9303 H       1  UNL1        0.2546
     75 C         -24.9073   51.0951  -12.0817 C.3     1  UNL1        0.0552
     76 C         -26.3672   51.2701  -12.4385 C.2     1  UNL1       -0.0298
     77 C         -26.8322   51.6379  -13.6525 C.2     1  UNL1       -0.0475
     78 C         -28.3219   51.7794  -13.8341 C.3     1  UNL1        0.0260
     79 C         -25.9124   51.9188  -14.8153 C.3     1  UNL1        0.0260
@<TRIPOS>BOND
     1    22    23    1
     2    23     1    1
     3     1     2   ar
     4     2    52    1
     5    52    53    1
     6    53    54    1
     7    54    55    2
     8    54    56   am
     9    56    58    1
    10    58    64    1
    11    64    65    1
    12    65    66    1
    13    66    67    1
    14    67    69    1
    15    69    70    2
    16    69    71    1
    17    58    59    1
    18    59    60   am
    19    59    61    2
    20     2     3   ar
    21     3     4   ar
    22     4     5    1
    23     5     6    1
    24     6     7   ar
    25     7    19    1
    26    19    20    1
    27    19    21    1
    28     7     8   ar
    29     8    24    1
    30    24    25    1
    31    25    26    1
    32    26    27    2
    33    26    28   am
    34    28    30    1
    35    30    36    1
    36    36    37    1
    37    37    38    1
    38    38    39    1
    39    39    41    1
    40    41    42    2
    41    41    43    1
    42    30    31    1
    43    31    32   am
    44    31    33    2
    45     8     9   ar
    46     9    47    1
    47    47    48    1
    48    48    49    2
    49    49    50    1
    50    49    51    1
    51     9    10   ar
    52    10    11    1
    53    10    12   ar
    54    12    13    1
    55    13    14    2
    56    13    15    1
    57    15    16   ar
    58    16    75    1
    59    75    76    1
    60    76    77    2
    61    77    78    1
    62    77    79    1
    63    16     1   ar
    64    15     4   ar
    65    12     6   ar
    66    56    57    1
    67    67    68    1
    68    70    72    1
    69    71    73    1
    70    71    74    1
    71    60    62    1
    72    60    63    1
    73    28    29    1
    74    39    40    1
    75    42    44    1
    76    43    45    1
    77    43    46    1
    78    32    34    1
    79    32    35    1
    80    11    17    1
    81     5    18    1
@<TRIPOS>MOLECULE
*****
 79 81 0 0 0
SMALL
GASTEIGER

@<TRIPOS>ATOM
      1 C         -20.3479   52.0111   -9.1898 C.ar    1  UNL1        0.1694
      2 C         -20.5550   52.0605   -7.7903 C.ar    1  UNL1        0.1811
      3 C         -21.8016   51.7015   -7.2699 C.ar    1  UNL1        0.1358
      4 C         -22.8727   51.4119   -8.1028 C.ar    1  UNL1        0.2879
      5 O         -24.0395   51.1433   -7.5385 O.3     1  UNL1       -0.5464
      6 C         -25.1465   50.8774   -8.2164 C.ar    1  UNL1        0.2866
      7 C         -26.3252   50.5618   -7.5112 C.ar    1  UNL1        0.0989
      8 C         -27.4577   50.1418   -8.2421 C.ar    1  UNL1        0.1425
      9 C         -27.5274   50.3772   -9.6349 C.ar    1  UNL1        0.0501
     10 C         -26.3364   50.6873  -10.3368 C.ar    1  UNL1        0.1441
     11 O         -26.3263   50.7624  -11.7349 O.3     1  UNL1       -0.5053
     12 C         -25.1309   50.9082   -9.6253 C.ar    1  UNL1        0.1597
     13 C         -23.9016   51.1964  -10.2704 C.2     1  UNL1        0.2146
     14 O         -23.8722   51.2888  -11.5247 O.2     1  UNL1       -0.2859
     15 C         -22.7233   51.4141   -9.5048 C.ar    1  UNL1        0.1263
     16 C         -21.4173   51.6429  -10.0544 C.ar    1  UNL1        0.0304
     17 H         -27.0922   50.4756  -12.3274 H       1  UNL1        0.2922
     18 H         -24.0854   51.1410   -6.6027 H       1  UNL1        0.5634
     19 C         -26.3771   50.7817   -5.9946 C.3     1  UNL1        0.0337
     20 C         -26.4534   49.4765   -5.1967 C.3     1  UNL1        0.0051
     21 C         -27.4971   51.7537   -5.5939 C.3     1  UNL1        0.0051
     22 C         -17.9178   51.5338   -9.7531 C.3     1  UNL1        0.2526
     23 O         -19.1038   52.3202   -9.7792 O.3     1  UNL1       -0.4687
     24 O         -28.5216   49.5095   -7.5883 O.3     1  UNL1       -0.4659
     25 C         -28.8524   48.1389   -7.8204 C.3     1  UNL1        0.2893
     26 C         -29.0666   47.3925   -6.5400 C.2     1  UNL1        0.2673
     27 O         -30.0033   47.7352   -5.7693 O.2     1  UNL1       -0.2711
     28 N         -28.2070   46.2948   -6.1999 N.am    1  UNL1       -0.2953
     29 H         -27.6085   45.8889   -6.9551 H       1  UNL1        0.1499
     30 C         -28.1356   45.7288   -4.8465 C.3     1  UNL1        0.1485
     31 C         -26.7182   45.7450   -4.3276 C.2     1  UNL1        0.2372
     32 N         -25.6261   45.5446   -5.2252 N.am    1  UNL1       -0.3275
     33 O         -26.4833   45.9789   -3.1112 O.2     1  UNL1       -0.2736
     34 H         -24.6435   45.5704   -4.8734 H       1  UNL1        0.1450
     35 H         -25.7949   45.3780   -6.2421 H       1  UNL1        0.1450
     36 C         -28.7336   44.3098   -4.8058 C.3     1  UNL1        0.0325
     37 C         -29.8023   44.1183   -3.7168 C.3     1  UNL1        0.0450
     38 C         -30.1741   45.4597   -3.0756 C.3     1  UNL1        0.1740
     39 N         -30.0352   45.4009   -1.6202 N.pl3   1  UNL1       -0.2625
     40 H         -30.4888   44.6200   -1.0921 H       1  UNL1        0.2587
     41 C         -29.3419   46.4090   -0.8690 C.cat   1  UNL1        0.3769
     42 N         -28.4530   47.1387   -1.4641 N.pl3   1  UNL1       -0.1298
     43 N         -29.6168   46.6175    0.5222 N.pl3   1  UNL1       -0.2892
     44 H         -27.9228   47.8832   -0.9589 H       1  UNL1        0.3062
     45 H         -30.3415   46.0639    1.0282 H       1  UNL1        0.2546
     46 H         -29.0974   47.3457    1.0613 H       1  UNL1        0.2546
     47 C         -28.8599   50.3081  -10.3744 C.3     1  UNL1        0.0578
     48 C         -29.3938   51.6526  -10.8170 C.2     1  UNL1       -0.0297
     49 C         -30.0799   51.8622  -11.9626 C.2     1  UNL1       -0.0475
     50 C         -30.5234   53.2646  -12.2879 C.3     1  UNL1        0.0260
     51 C         -30.4117   50.7361  -12.9127 C.3     1  UNL1        0.0260
     52 O         -19.5208   52.4805   -6.9354 O.3     1  UNL1       -0.4623
     53 C         -18.5417   53.4771   -7.2399 C.3     1  UNL1        0.2895
     54 C         -19.1287   54.8534   -7.1181 C.2     1  UNL1        0.2673
     55 O         -20.2536   55.0031   -6.5690 O.2     1  UNL1       -0.2711
     56 N         -18.4147   55.9885   -7.6276 N.am    1  UNL1       -0.2953
     57 H         -17.4241   55.8440   -7.9302 H       1  UNL1        0.1499
     58 C         -19.1037   57.2131   -8.0444 C.3     1  UNL1        0.1485
     59 C         -20.1180   56.8822   -9.1114 C.2     1  UNL1        0.2372
     60 N         -20.5083   55.5290   -9.3469 N.am    1  UNL1       -0.3275
     61 O         -20.6288   57.8043   -9.8032 O.2     1  UNL1       -0.2736
     62 H         -21.2099   55.3060  -10.0872 H       1  UNL1        0.1450
     63 H         -20.0988   54.7469   -8.7896 H       1  UNL1        0.1450
     64 C         -19.7667   57.8708   -6.8175 C.3     1  UNL1        0.0325
     65 C         -19.0330   59.1400   -6.3544 C.3     1  UNL1        0.0450
     66 C         -18.4687   59.9404   -7.5369 C.3     1  UNL1        0.1740
     67 N         -18.5359   61.3833   -7.2921 N.pl3   1  UNL1       -0.2625
     68 H         -17.8278   62.0211   -7.7209 H       1  UNL1        0.2587
     69 C         -19.5362   61.9633   -6.4450 C.cat   1  UNL1        0.3769
     70 N         -20.7466   62.1227   -6.8784 N.pl3   1  UNL1       -0.1298
     71 N         -19.1944   62.3590   -5.1144 N.pl3   1  UNL1       -0.2892
     72 H         -21.4938   62.5383   -6.2789 H       1  UNL1        0.3062
     73 H         -18.2180   62.2440   -4.7632 H       1  UNL1        0.2546
     74 H         -19.9061   62.7906   -4.4836 H       1  UNL1        0.2546
     75 C         -21.1112   51.4640  -11.5400 C.3     1  UNL1        0.0552
     76 C         -20.3316   52.6277  -12.1124 C.2     1  UNL1       -0.0298
     77 C         -20.8527   53.8347  -12.4234 C.2     1  UNL1       -0.0475
     78 C         -19.9346   54.8821  -12.9998 C.3     1  UNL1        0.0260
     79 C         -22.3132   54.1566  -12.2231 C.3     1  UNL1        0.0260
@<TRIPOS>BOND
     1    22    23    1
     2    23     1    1
     3     1     2   ar
     4     2    52    1
     5    52    53    1
     6    53    54    1
     7    54    55    2
     8    54    56   am
     9    56    58    1
    10    58    64    1
    11    64    65    1
    12    65    66    1
    13    66    67    1
    14    67    69    1
    15    69    70    2
    16    69    71    1
    17    58    59    1
    18    59    60   am
    19    59    61    2
    20     2     3   ar
    21     3     4   ar
    22     4     5    1
    23     5     6    1
    24     6     7   ar
    25     7    19    1
    26    19    20    1
    27    19    21    1
    28     7     8   ar
    29     8    24    1
    30    24    25    1
    31    25    26    1
    32    26    27    2
    33    26    28   am
    34    28    30    1
    35    30    36    1
    36    36    37    1
    37    37    38    1
    38    38    39    1
    39    39    41    1
    40    41    42    2
    41    41    43    1
    42    30    31    1
    43    31    32   am
    44    31    33    2
    45     8     9   ar
    46     9    47    1
    47    47    48    1
    48    48    49    2
    49    49    50    1
    50    49    51    1
    51     9    10   ar
    52    10    11    1
    53    10    12   ar
    54    12    13    1
    55    13    14    2
    56    13    15    1
    57    15    16   ar
    58    16    75    1
    59    75    76    1
    60    76    77    2
    61    77    78    1
    62    77    79    1
    63    16     1   ar
    64    15     4   ar
    65    12     6   ar
    66    56    57    1
    67    67    68    1
    68    70    72    1
    69    71    73    1
    70    71    74    1
    71    60    62    1
    72    60    63    1
    73    28    29    1
    74    39    40    1
    75    42    44    1
    76    43    45    1
    77    43    46    1
    78    32    34    1
    79    32    35    1
    80    11    17    1
    81     5    18    1
@<TRIPOS>MOLECULE
*****
 79 81 0 0 0
SMALL
GASTEIGER

@<TRIPOS>ATOM
      1 C         -21.6081   51.6878   -9.3183 C.ar    1  UNL1        0.1694
      2 C         -21.7403   51.5809   -7.9129 C.ar    1  UNL1        0.1811
      3 C         -23.0009   51.3369   -7.3608 C.ar    1  UNL1        0.1358
      4 C         -24.1408   51.3147   -8.1514 C.ar    1  UNL1        0.2879
      5 O         -25.3071   51.1423   -7.5499 O.3     1  UNL1       -0.5464
      6 C         -26.4717   51.1281   -8.1818 C.ar    1  UNL1        0.2866
      7 C         -27.6502   50.8926   -7.4457 C.ar    1  UNL1        0.0989
      8 C         -28.8654   50.7378   -8.1475 C.ar    1  UNL1        0.1425
      9 C         -28.9638   51.1625   -9.4929 C.ar    1  UNL1        0.0501
     10 C         -27.7738   51.3904  -10.2272 C.ar    1  UNL1        0.1441
     11 O         -27.8175   51.6473  -11.6029 O.3     1  UNL1       -0.5053
     12 C         -26.5171   51.3421   -9.5740 C.ar    1  UNL1        0.1597
     13 C         -25.2899   51.5355  -10.2573 C.2     1  UNL1        0.2146
     14 O         -25.3053   51.7877  -11.4897 O.2     1  UNL1       -0.2859
     15 C         -24.0580   51.4808   -9.5491 C.ar    1  UNL1        0.1263
     16 C         -22.7594   51.5925  -10.1502 C.ar    1  UNL1        0.0304
     17 H         -28.6443   51.5528  -12.1751 H       1  UNL1        0.2922
     18 H         -25.3094   51.0230   -6.6205 H       1  UNL1        0.5634
     19 C         -27.5983   50.9155   -5.9134 C.3     1  UNL1        0.0337
     20 C         -27.3384   49.5377   -5.2966 C.3     1  UNL1        0.0051
     21 C         -28.8441   51.5787   -5.3071 C.3     1  UNL1        0.0051
     22 C         -19.3407   50.9259  -10.1721 C.3     1  UNL1        0.2526
     23 O         -20.3605   51.8923   -9.9448 O.3     1  UNL1       -0.4687
     24 O         -29.9801   50.1822   -7.5091 O.3     1  UNL1       -0.4659
     25 C         -30.6724   49.0477   -8.0340 C.3     1  UNL1        0.2893
     26 C         -29.7908   47.8392   -8.1029 C.2     1  UNL1        0.2673
     27 O         -29.4510   47.2556   -7.0386 O.2     1  UNL1       -0.2711
     28 N         -29.3404   47.3545   -9.3764 N.am    1  UNL1       -0.2953
     29 H         -29.8259   47.7047  -10.2336 H       1  UNL1        0.1499
     30 C         -28.2345   46.3985   -9.5188 C.3     1  UNL1        0.1485
     31 C         -26.9025   47.0774   -9.3103 C.2     1  UNL1        0.2372
     32 N         -25.8526   46.3957   -8.6237 N.am    1  UNL1       -0.3275
     33 O         -26.6900   48.2293   -9.7766 O.2     1  UNL1       -0.2736
     34 H         -24.9247   46.8555   -8.4908 H       1  UNL1        0.1450
     35 H         -25.9959   45.4298   -8.2540 H       1  UNL1        0.1450
     36 C         -28.2932   45.6804  -10.8803 C.3     1  UNL1        0.0325
     37 C         -29.7123   45.5697  -11.4623 C.3     1  UNL1        0.0450
     38 C         -29.9434   46.6324  -12.5420 C.3     1  UNL1        0.1740
     39 N         -30.7354   46.0922  -13.6474 N.pl3   1  UNL1       -0.2625
     40 H         -31.6915   45.7127  -13.4568 H       1  UNL1        0.2587
     41 C         -30.2322   46.0084  -14.9895 C.cat   1  UNL1        0.3769
     42 N         -30.2187   44.8596  -15.5869 N.pl3   1  UNL1       -0.1298
     43 N         -29.7463   47.1706  -15.6733 N.pl3   1  UNL1       -0.2892
     44 H         -29.8613   44.7495  -16.5620 H       1  UNL1        0.3062
     45 H         -29.7628   48.1152  -15.2314 H       1  UNL1        0.2546
     46 H         -29.3713   47.0953  -16.6450 H       1  UNL1        0.2546
     47 C         -30.3246   51.3814  -10.1467 C.3     1  UNL1        0.0578
     48 C         -30.5630   50.5377  -11.3796 C.2     1  UNL1       -0.0297
     49 C         -31.1410   50.9903  -12.5146 C.2     1  UNL1       -0.0475
     50 C         -31.3419   50.0243  -13.6528 C.3     1  UNL1        0.0260
     51 C         -31.5826   52.4263  -12.6687 C.3     1  UNL1        0.0260
     52 O         -20.6164   51.7333   -7.0819 O.3     1  UNL1       -0.4623
     53 C         -19.3877   52.3649   -7.4505 C.3     1  UNL1        0.2895
     54 C         -19.4341   53.8346   -7.1483 C.2     1  UNL1        0.2673
     55 O         -20.2401   54.2655   -6.2800 O.2     1  UNL1       -0.2711
     56 N         -18.5694   54.7412   -7.8470 N.am    1  UNL1       -0.2953
     57 H         -17.8115   54.3309   -8.4395 H       1  UNL1        0.1499
     58 C         -18.9124   56.1547   -8.0268 C.3     1  UNL1        0.1485
     59 C         -20.1498   56.2679   -8.8828 C.2     1  UNL1        0.2372
     60 N         -20.5392   57.5270   -9.4325 N.am    1  UNL1       -0.3275
     61 O         -20.8491   55.2455   -9.1185 O.2     1  UNL1       -0.2736
     62 H         -21.3969   57.5995  -10.0234 H       1  UNL1        0.1450
     63 H         -19.9789   58.3890   -9.2507 H       1  UNL1        0.1450
     64 C         -19.1165   56.8118   -6.6470 C.3     1  UNL1        0.0325
     65 C         -18.2168   58.0404   -6.4348 C.3     1  UNL1        0.0450
     66 C         -18.6856   59.2450   -7.2633 C.3     1  UNL1        0.1740
     67 N         -18.8149   60.4489   -6.4385 N.pl3   1  UNL1       -0.2625
     68 H         -18.1417   61.2394   -6.5562 H       1  UNL1        0.2587
     69 C         -19.8298   60.5750   -5.4343 C.cat   1  UNL1        0.3769
     70 N         -19.6010   60.1813   -4.2214 N.pl3   1  UNL1       -0.1298
     71 N         -21.0957   61.1455   -5.7748 N.pl3   1  UNL1       -0.2892
     72 H         -20.3224   60.2670   -3.4714 H       1  UNL1        0.3062
     73 H         -21.2904   61.4538   -6.7530 H       1  UNL1        0.2546
     74 H         -21.8515   61.2392   -5.0601 H       1  UNL1        0.2546
     75 C         -22.5527   51.5698  -11.6634 C.3     1  UNL1        0.0552
     76 C         -21.4397   52.4935  -12.1073 C.2     1  UNL1       -0.0298
     77 C         -21.4628   53.8410  -12.0113 C.2     1  UNL1       -0.0475
     78 C         -20.2710   54.6137  -12.5159 C.3     1  UNL1        0.0260
     79 C         -22.6392   54.5863  -11.4304 C.3     1  UNL1        0.0260
@<TRIPOS>BOND
     1    22    23    1
     2    23     1    1
     3     1     2   ar
     4     2    52    1
     5    52    53    1
     6    53    54    1
     7    54    55    2
     8    54    56   am
     9    56    58    1
    10    58    64    1
    11    64    65    1
    12    65    66    1
    13    66    67    1
    14    67    69    1
    15    69    70    2
    16    69    71    1
    17    58    59    1
    18    59    60   am
    19    59    61    2
    20     2     3   ar
    21     3     4   ar
    22     4     5    1
    23     5     6    1
    24     6     7   ar
    25     7    19    1
    26    19    20    1
    27    19    21    1
    28     7     8   ar
    29     8    24    1
    30    24    25    1
    31    25    26    1
    32    26    27    2
    33    26    28   am
    34    28    30    1
    35    30    36    1
    36    36    37    1
    37    37    38    1
    38    38    39    1
    39    39    41    1
    40    41    42    2
    41    41    43    1
    42    30    31    1
    43    31    32   am
    44    31    33    2
    45     8     9   ar
    46     9    47    1
    47    47    48    1
    48    48    49    2
    49    49    50    1
    50    49    51    1
    51     9    10   ar
    52    10    11    1
    53    10    12   ar
    54    12    13    1
    55    13    14    2
    56    13    15    1
    57    15    16   ar
    58    16    75    1
    59    75    76    1
    60    76    77    2
    61    77    78    1
    62    77    79    1
    63    16     1   ar
    64    15     4   ar
    65    12     6   ar
    66    56    57    1
    67    67    68    1
    68    70    72    1
    69    71    73    1
    70    71    74    1
    71    60    62    1
    72    60    63    1
    73    28    29    1
    74    39    40    1
    75    42    44    1
    76    43    45    1
    77    43    46    1
    78    32    34    1
    79    32    35    1
    80    11    17    1
    81     5    18    1
@<TRIPOS>MOLECULE
*****
 79 81 0 0 0
SMALL
GASTEIGER

@<TRIPOS>ATOM
      1 C         -20.8032   53.1792   -9.3925 C.ar    1  UNL1        0.1694
      2 C         -20.8893   52.7303   -8.0527 C.ar    1  UNL1        0.1811
      3 C         -21.9588   51.9151   -7.6716 C.ar    1  UNL1        0.1358
      4 C         -22.9975   51.6344   -8.5475 C.ar    1  UNL1        0.2879
      5 O         -24.0080   50.9087   -8.0958 O.3     1  UNL1       -0.5464
      6 C         -25.0732   50.5916   -8.8173 C.ar    1  UNL1        0.2866
      7 C         -26.0711   49.7755   -8.2476 C.ar    1  UNL1        0.0989
      8 C         -27.1281   49.3279   -9.0695 C.ar    1  UNL1        0.1425
      9 C         -27.3780   49.9628  -10.3083 C.ar    1  UNL1        0.0501
     10 C         -26.3666   50.7760  -10.8767 C.ar    1  UNL1        0.1441
     11 O         -26.5010   51.2870  -12.1733 O.3     1  UNL1       -0.5053
     12 C         -25.1923   51.0670  -10.1387 C.ar    1  UNL1        0.1597
     13 C         -24.1335   51.8523  -10.6607 C.2     1  UNL1        0.2146
     14 O         -24.2405   52.3389  -11.8159 O.2     1  UNL1       -0.2859
     15 C         -22.9799   52.1162   -9.8725 C.ar    1  UNL1        0.1263
     16 C         -21.8239   52.8372  -10.3242 C.ar    1  UNL1        0.0304
     17 H         -27.2240   51.0126  -12.8228 H       1  UNL1        0.2922
     18 H         -23.9676   50.6003   -7.2119 H       1  UNL1        0.5634
     19 C         -26.0384   49.4858   -6.7423 C.3     1  UNL1        0.0337
     20 C         -25.7746   48.0127   -6.4157 C.3     1  UNL1        0.0051
     21 C         -27.2972   50.0043   -6.0309 C.3     1  UNL1        0.0051
     22 C         -19.7905   55.3054  -10.3436 C.3     1  UNL1        0.2526
     23 O         -19.7301   53.9699   -9.8552 O.3     1  UNL1       -0.4687
     24 O         -27.9425   48.2686   -8.6528 O.3     1  UNL1       -0.4659
     25 C         -27.9403   47.0005   -9.3114 C.3     1  UNL1        0.2893
     26 C         -28.6954   45.9671   -8.5340 C.2     1  UNL1        0.2673
     27 O         -29.3586   45.0884   -9.1480 O.2     1  UNL1       -0.2711
     28 N         -28.6588   45.9834   -7.0995 N.am    1  UNL1       -0.2953
     29 H         -27.9212   46.5607   -6.6347 H       1  UNL1        0.1499
     30 C         -29.6087   45.2306   -6.2700 C.3     1  UNL1        0.1485
     31 C         -30.7694   46.1005   -5.8522 C.2     1  UNL1        0.2372
     32 N         -31.1678   47.2015   -6.6692 N.am    1  UNL1       -0.3275
     33 O         -31.4234   45.8385   -4.8067 O.2     1  UNL1       -0.2736
     34 H         -31.9797   47.7965   -6.3921 H       1  UNL1        0.1450
     35 H         -30.6594   47.4204   -7.5546 H       1  UNL1        0.1450
     36 C         -28.9063   44.6053   -5.0499 C.3     1  UNL1        0.0325
     37 C         -27.5956   45.3091   -4.6609 C.3     1  UNL1        0.0450
     38 C         -26.7535   44.4222   -3.7374 C.3     1  UNL1        0.1740
     39 N         -25.3689   44.8916   -3.6800 N.pl3   1  UNL1       -0.2625
     40 H         -24.6309   44.3817   -4.2184 H       1  UNL1        0.2587
     41 C         -24.9626   46.0014   -2.8648 C.cat   1  UNL1        0.3769
     42 N         -23.7124   46.1300   -2.5528 N.pl3   1  UNL1       -0.1298
     43 N         -25.9152   46.9629   -2.3929 N.pl3   1  UNL1       -0.2892
     44 H         -23.3701   46.9200   -1.9617 H       1  UNL1        0.3062
     45 H         -26.9260   46.9033   -2.6428 H       1  UNL1        0.2546
     46 H         -25.6098   47.7593   -1.7904 H       1  UNL1        0.2546
     47 C         -28.7144   49.7862  -11.0224 C.3     1  UNL1        0.0578
     48 C         -29.5109   51.0636  -11.1724 C.2     1  UNL1       -0.0297
     49 C         -30.3891   51.3032  -12.1715 C.2     1  UNL1       -0.0475
     50 C         -31.0881   52.6370  -12.2091 C.3     1  UNL1        0.0260
     51 C         -30.6857   50.2758  -13.2381 C.3     1  UNL1        0.0260
     52 O         -19.9160   53.1135   -7.1131 O.3     1  UNL1       -0.4623
     53 C         -18.8063   53.9781   -7.3691 C.3     1  UNL1        0.2895
     54 C         -19.1054   55.3762   -6.9115 C.2     1  UNL1        0.2673
     55 O         -20.2190   55.6309   -6.3784 O.2     1  UNL1       -0.2711
     56 N         -18.1309   56.4146   -7.0845 N.am    1  UNL1       -0.2953
     57 H         -17.1687   56.1335   -7.3827 H       1  UNL1        0.1499
     58 C         -18.5133   57.8255   -7.1893 C.3     1  UNL1        0.1485
     59 C         -19.5024   57.9970   -8.3159 C.2     1  UNL1        0.2372
     60 N         -20.6968   57.2155   -8.3582 N.am    1  UNL1       -0.3275
     61 O         -19.2779   58.8363   -9.2296 O.2     1  UNL1       -0.2736
     62 H         -21.3771   57.3378   -9.1406 H       1  UNL1        0.1450
     63 H         -20.9053   56.5122   -7.6153 H       1  UNL1        0.1450
     64 C         -19.0998   58.2986   -5.8442 C.3     1  UNL1        0.0325
     65 C         -19.9566   59.5677   -5.9828 C.3     1  UNL1        0.0450
     66 C         -19.6299   60.6021   -4.8962 C.3     1  UNL1        0.1740
     67 N         -19.6070   61.9634   -5.4374 N.pl3   1  UNL1       -0.2625
     68 H         -19.8048   62.7784   -4.8141 H       1  UNL1        0.2587
     69 C         -19.3499   62.2246   -6.8231 C.cat   1  UNL1        0.3769
     70 N         -20.3273   62.4965   -7.6288 N.pl3   1  UNL1       -0.1298
     71 N         -18.0070   62.1916   -7.3125 N.pl3   1  UNL1       -0.2892
     72 H         -20.1650   62.6950   -8.6411 H       1  UNL1        0.3062
     73 H         -17.2162   61.9616   -6.6708 H       1  UNL1        0.2546
     74 H         -17.7986   62.3713   -8.3200 H       1  UNL1        0.2546
     75 C         -21.6184   53.2208  -11.7882 C.3     1  UNL1        0.0552
     76 C         -20.1838   53.0429  -12.2350 C.2     1  UNL1       -0.0298
     77 C         -19.4276   51.9475  -12.0038 C.2     1  UNL1       -0.0475
     78 C         -18.0073   51.9404  -12.5085 C.3     1  UNL1        0.0260
     79 C         -19.9549   50.7493  -11.2535 C.3     1  UNL1        0.0260
@<TRIPOS>BOND
     1    22    23    1
     2    23     1    1
     3     1     2   ar
     4     2    52    1
     5    52    53    1
     6    53    54    1
     7    54    55    2
     8    54    56   am
     9    56    58    1
    10    58    64    1
    11    64    65    1
    12    65    66    1
    13    66    67    1
    14    67    69    1
    15    69    70    2
    16    69    71    1
    17    58    59    1
    18    59    60   am
    19    59    61    2
    20     2     3   ar
    21     3     4   ar
    22     4     5    1
    23     5     6    1
    24     6     7   ar
    25     7    19    1
    26    19    20    1
    27    19    21    1
    28     7     8   ar
    29     8    24    1
    30    24    25    1
    31    25    26    1
    32    26    27    2
    33    26    28   am
    34    28    30    1
    35    30    36    1
    36    36    37    1
    37    37    38    1
    38    38    39    1
    39    39    41    1
    40    41    42    2
    41    41    43    1
    42    30    31    1
    43    31    32   am
    44    31    33    2
    45     8     9   ar
    46     9    47    1
    47    47    48    1
    48    48    49    2
    49    49    50    1
    50    49    51    1
    51     9    10   ar
    52    10    11    1
    53    10    12   ar
    54    12    13    1
    55    13    14    2
    56    13    15    1
    57    15    16   ar
    58    16    75    1
    59    75    76    1
    60    76    77    2
    61    77    78    1
    62    77    79    1
    63    16     1   ar
    64    15     4   ar
    65    12     6   ar
    66    56    57    1
    67    67    68    1
    68    70    72    1
    69    71    73    1
    70    71    74    1
    71    60    62    1
    72    60    63    1
    73    28    29    1
    74    39    40    1
    75    42    44    1
    76    43    45    1
    77    43    46    1
    78    32    34    1
    79    32    35    1
    80    11    17    1
    81     5    18    1
