@<TRIPOS>MOLECULE
*****
 45 50 0 0 0
SMALL
GASTEIGER

@<TRIPOS>ATOM
      1 C          13.0840   82.8305   24.6518 C.ar    1  UNL1        0.1318
      2 C          13.7805   81.6158   24.7522 C.ar    1  UNL1        0.0356
      3 C          13.0768   80.4363   25.0000 C.ar    1  UNL1        0.0191
      4 C          11.6786   80.4622   25.1247 C.ar    1  UNL1        0.0702
      5 C          11.0218   81.6949   25.0198 C.ar    1  UNL1        0.1149
      6 N          11.7279   82.8310   24.7790 N.ar    1  UNL1       -0.2279
      7 C          13.7672   86.7773   23.7024 C.3     1  UNL1        0.0471
      8 C          14.5398   86.3566   24.9667 C.3     1  UNL1        0.0252
      9 C          14.0191   85.0053   25.4795 C.3     1  UNL1        0.0923
     10 N          13.7732   84.0647   24.3761 N.pl3   1  UNL1       -0.2932
     11 C          14.3496   84.3438   23.0534 C.3     1  UNL1        0.0923
     12 C          13.9284   85.7374   22.5585 C.3     1  UNL1        0.0252
     13 C          14.1951   88.1801   23.2484 C.3     1  UNL1        0.2054
     14 O          13.3736   88.6048   22.1627 O.3     1  UNL1       -0.4758
     15 C          11.5195   88.2613   20.0410 C.3     1  UNL1        0.0344
     16 C          12.9308   88.7324   19.7754 C.ar    1  UNL1        0.0183
     17 C          13.8312   88.8635   20.8597 C.ar    1  UNL1        0.1347
     18 C          15.1621   89.2477   20.6159 C.ar    1  UNL1        0.0366
     19 C          15.5960   89.5077   19.3198 C.ar    1  UNL1        0.0033
     20 C          14.7099   89.4107   18.2508 C.ar    1  UNL1        0.0063
     21 C          13.3681   89.0458   18.4578 C.ar    1  UNL1        0.0744
     22 C          12.4619   89.0161   17.2815 C.2     1  UNL1        0.3378
     23 O          12.8947   88.6289   16.1622 O.2     1  UNL1       -0.2451
     24 O          11.1442   89.4534   17.3827 O.3     1  UNL1       -0.4771
     25 H          10.5297   89.4455   16.5774 H       1  UNL1        0.2954
     26 N          10.9210   79.2721   25.4033 N.am    1  UNL1       -0.2766
     27 C          11.4010   78.1932   26.2193 C.2     1  UNL1        0.2839
     28 O          12.6401   77.9948   26.3362 O.2     1  UNL1       -0.2665
     29 H          10.0174   79.1353   24.8977 H       1  UNL1        0.1553
     30 C          10.4687   77.2515   26.8638 C.ar    1  UNL1        0.1946
     31 O          10.8471   76.4278   27.8254 O.2     1  UNL1       -0.4492
     32 C           9.8044   75.7185   28.1821 C.ar    1  UNL1        0.1452
     33 C           9.7492   74.7268   29.1553 C.ar    1  UNL1        0.0375
     34 C           8.5172   74.0867   29.3760 C.ar    1  UNL1        0.0031
     35 C           7.3649   74.4449   28.6249 C.ar    1  UNL1        0.0002
     36 C           7.4647   75.4607   27.6440 C.ar    1  UNL1        0.0028
     37 C           8.7029   76.0744   27.4525 C.ar    1  UNL1        0.0337
     38 C           9.1036   77.0830   26.5989 C.ar    1  UNL1        0.0202
     39 C           8.2455   77.8208   25.6162 C.3     1  UNL1        0.0345
     40 C           6.0689   73.7610   28.8658 C.ar    1  UNL1        0.0000
     41 C           5.2273   74.1717   29.9171 C.ar    1  UNL1        0.0000
     42 C           4.0071   73.5265   30.1409 C.ar    1  UNL1        0.0000
     43 C           3.6139   72.4664   29.3210 C.ar    1  UNL1        0.0000
     44 C           4.4400   72.0494   28.2750 C.ar    1  UNL1        0.0000
     45 C           5.6608   72.6915   28.0460 C.ar    1  UNL1        0.0000
@<TRIPOS>BOND
     1    15    16    1
     2    16    17   ar
     3    17    14    1
     4    14    13    1
     5    13     7    1
     6     7     8    1
     7     8     9    1
     8     9    10    1
     9    10     1    1
    10     1     2   ar
    11     2     3   ar
    12     3     4   ar
    13     4    26    1
    14    26    27   am
    15    27    28    2
    16    27    30    1
    17    30    31   ar
    18    31    32   ar
    19    32    33   ar
    20    33    34   ar
    21    34    35   ar
    22    35    40    1
    23    40    41   ar
    24    41    42   ar
    25    42    43   ar
    26    43    44   ar
    27    44    45   ar
    28    35    36   ar
    29    36    37   ar
    30    37    38   ar
    31    38    39    1
    32     4     5   ar
    33     5     6   ar
    34    10    11    1
    35    11    12    1
    36    17    18   ar
    37    18    19   ar
    38    19    20   ar
    39    20    21   ar
    40    21    22    1
    41    22    23    2
    42    22    24    1
    43    21    16   ar
    44    12     7    1
    45     6     1   ar
    46    38    30   ar
    47    37    32   ar
    48    45    40   ar
    49    26    29    1
    50    24    25    1
@<TRIPOS>MOLECULE
*****
 45 50 0 0 0
SMALL
GASTEIGER

@<TRIPOS>ATOM
      1 C          13.3232   83.2986   24.1793 C.ar    1  UNL1        0.1318
      2 C          14.1342   82.3689   24.8491 C.ar    1  UNL1        0.0356
      3 C          13.5625   81.2111   25.3787 C.ar    1  UNL1        0.0191
      4 C          12.1888   80.9675   25.2217 C.ar    1  UNL1        0.0702
      5 C          11.4144   81.9210   24.5486 C.ar    1  UNL1        0.1149
      6 N          11.9926   83.0418   24.0419 N.ar    1  UNL1       -0.2279
      7 C          13.8888   86.5026   21.6575 C.3     1  UNL1        0.0471
      8 C          13.8851   86.9380   23.1349 C.3     1  UNL1        0.0252
      9 C          13.3516   85.8012   24.0199 C.3     1  UNL1        0.0923
     10 N          13.8804   84.4943   23.6014 N.pl3   1  UNL1       -0.2932
     11 C          15.0470   84.4446   22.7090 C.3     1  UNL1        0.0923
     12 C          14.7885   85.2560   21.4286 C.3     1  UNL1        0.0252
     13 C          14.3066   87.6689   20.7506 C.3     1  UNL1        0.2054
     14 O          13.4827   87.6911   19.5867 O.3     1  UNL1       -0.4758
     15 C          14.0587   85.3802   18.0422 C.3     1  UNL1        0.0344
     16 C          14.2176   86.7664   17.4615 C.ar    1  UNL1        0.0183
     17 C          13.9461   87.8921   18.2756 C.ar    1  UNL1        0.1347
     18 C          14.1444   89.1862   17.7615 C.ar    1  UNL1        0.0366
     19 C          14.5963   89.3667   16.4581 C.ar    1  UNL1        0.0033
     20 C          14.8369   88.2663   15.6404 C.ar    1  UNL1        0.0063
     21 C          14.6340   86.9584   16.1141 C.ar    1  UNL1        0.0744
     22 C          14.8551   85.8313   15.1726 C.2     1  UNL1        0.3378
     23 O          14.2983   85.8367   14.0412 O.2     1  UNL1       -0.2451
     24 O          15.6370   84.7385   15.5363 O.3     1  UNL1       -0.4771
     25 H          15.7773   83.9636   14.8993 H       1  UNL1        0.2954
     26 N          11.5592   79.7982   25.7733 N.am    1  UNL1       -0.2766
     27 C          10.4366   79.8424   26.6665 C.2     1  UNL1        0.2839
     28 O          10.2443   80.8587   27.3867 O.2     1  UNL1       -0.2665
     29 H          12.0091   78.8711   25.6025 H       1  UNL1        0.1553
     30 C           9.5412   78.6827   26.8240 C.ar    1  UNL1        0.1946
     31 O           9.3935   77.7696   25.8803 O.2     1  UNL1       -0.4492
     32 C           8.5319   76.8807   26.3107 C.ar    1  UNL1        0.1452
     33 C           8.0765   75.7508   25.6402 C.ar    1  UNL1        0.0375
     34 C           7.1424   74.9278   26.2933 C.ar    1  UNL1        0.0031
     35 C           6.6795   75.2445   27.5993 C.ar    1  UNL1        0.0002
     36 C           7.1695   76.4042   28.2465 C.ar    1  UNL1        0.0028
     37 C           8.0960   77.1971   27.5685 C.ar    1  UNL1        0.0337
     38 C           8.7509   78.3565   27.9335 C.ar    1  UNL1        0.0202
     39 C           8.6275   79.0843   29.2380 C.3     1  UNL1        0.0345
     40 C           5.6916   74.3684   28.2789 C.ar    1  UNL1        0.0000
     41 C           5.4755   73.0513   27.8309 C.ar    1  UNL1        0.0000
     42 C           4.5454   72.2283   28.4735 C.ar    1  UNL1        0.0000
     43 C           3.8216   72.7088   29.5669 C.ar    1  UNL1        0.0000
     44 C           4.0266   74.0136   30.0207 C.ar    1  UNL1        0.0000
     45 C           4.9560   74.8408   29.3826 C.ar    1  UNL1        0.0000
@<TRIPOS>BOND
     1    15    16    1
     2    16    17   ar
     3    17    14    1
     4    14    13    1
     5    13     7    1
     6     7     8    1
     7     8     9    1
     8     9    10    1
     9    10     1    1
    10     1     2   ar
    11     2     3   ar
    12     3     4   ar
    13     4    26    1
    14    26    27   am
    15    27    28    2
    16    27    30    1
    17    30    31   ar
    18    31    32   ar
    19    32    33   ar
    20    33    34   ar
    21    34    35   ar
    22    35    40    1
    23    40    41   ar
    24    41    42   ar
    25    42    43   ar
    26    43    44   ar
    27    44    45   ar
    28    35    36   ar
    29    36    37   ar
    30    37    38   ar
    31    38    39    1
    32     4     5   ar
    33     5     6   ar
    34    10    11    1
    35    11    12    1
    36    17    18   ar
    37    18    19   ar
    38    19    20   ar
    39    20    21   ar
    40    21    22    1
    41    22    23    2
    42    22    24    1
    43    21    16   ar
    44    12     7    1
    45     6     1   ar
    46    38    30   ar
    47    37    32   ar
    48    45    40   ar
    49    26    29    1
    50    24    25    1
@<TRIPOS>MOLECULE
*****
 45 50 0 0 0
SMALL
GASTEIGER

@<TRIPOS>ATOM
      1 C          13.1965   82.8635   24.3456 C.ar    1  UNL1        0.1318
      2 C          11.8179   82.9462   24.5966 C.ar    1  UNL1        0.0356
      3 C          11.1351   81.8249   25.0704 C.ar    1  UNL1        0.0191
      4 C          11.8281   80.6290   25.3161 C.ar    1  UNL1        0.0702
      5 C          13.2028   80.5875   25.0508 C.ar    1  UNL1        0.1149
      6 N          13.8468   81.6917   24.5890 N.ar    1  UNL1       -0.2279
      7 C          14.3224   86.1066   22.0741 C.3     1  UNL1        0.0471
      8 C          14.2936   86.4489   23.5756 C.3     1  UNL1        0.0252
      9 C          13.5653   85.3440   24.3560 C.3     1  UNL1        0.0923
     10 N          13.9388   84.0050   23.8764 N.pl3   1  UNL1       -0.2932
     11 C          15.1368   83.8510   23.0391 C.3     1  UNL1        0.0923
     12 C          15.0604   84.7654   21.8052 C.3     1  UNL1        0.0252
     13 C          14.9414   87.2577   21.2684 C.3     1  UNL1        0.2054
     14 O          14.0828   87.5993   20.1820 O.3     1  UNL1       -0.4758
     15 C          13.7798   89.5075   18.1025 C.3     1  UNL1        0.0344
     16 C          14.1190   88.0668   17.7963 C.ar    1  UNL1        0.0183
     17 C          14.2335   87.1422   18.8619 C.ar    1  UNL1        0.1347
     18 C          14.4939   85.7884   18.5831 C.ar    1  UNL1        0.0366
     19 C          14.6480   85.3548   17.2701 C.ar    1  UNL1        0.0033
     20 C          14.5672   86.2622   16.2178 C.ar    1  UNL1        0.0063
     21 C          14.3249   87.6258   16.4589 C.ar    1  UNL1        0.0744
     22 C          14.3069   88.5494   15.2960 C.2     1  UNL1        0.3378
     23 O          13.3003   88.5880   14.5374 O.2     1  UNL1       -0.2451
     24 O          15.4079   89.3480   14.9999 O.3     1  UNL1       -0.4771
     25 H          15.4009   89.9685   14.1992 H       1  UNL1        0.2954
     26 N          11.1558   79.4461   25.7816 N.am    1  UNL1       -0.2766
     27 C          10.0962   79.4591   26.7498 C.2     1  UNL1        0.2839
     28 O          10.0185   80.3990   27.5860 O.2     1  UNL1       -0.2665
     29 H          11.5301   78.5182   25.4821 H       1  UNL1        0.1553
     30 C           9.1355   78.3457   26.8438 C.ar    1  UNL1        0.1946
     31 O           8.5643   77.8122   25.7784 O.2     1  UNL1       -0.4492
     32 C           7.7614   76.8598   26.1858 C.ar    1  UNL1        0.1452
     33 C           6.9561   76.0402   25.4026 C.ar    1  UNL1        0.0375
     34 C           6.1652   75.0766   26.0527 C.ar    1  UNL1        0.0031
     35 C           6.1904   74.9474   27.4680 C.ar    1  UNL1        0.0002
     36 C           7.0252   75.8017   28.2276 C.ar    1  UNL1        0.0028
     37 C           7.7966   76.7456   27.5489 C.ar    1  UNL1        0.0337
     38 C           8.6969   77.6897   28.0011 C.ar    1  UNL1        0.0202
     39 C           9.1005   77.9361   29.4235 C.3     1  UNL1        0.0345
     40 C           5.3497   73.9268   28.1439 C.ar    1  UNL1        0.0000
     41 C           5.3447   72.5922   27.6954 C.ar    1  UNL1        0.0000
     42 C           4.5529   71.6332   28.3346 C.ar    1  UNL1        0.0000
     43 C           3.7584   71.9938   29.4251 C.ar    1  UNL1        0.0000
     44 C           3.7543   73.3144   29.8793 C.ar    1  UNL1        0.0000
     45 C           4.5448   74.2774   29.2447 C.ar    1  UNL1        0.0000
@<TRIPOS>BOND
     1    15    16    1
     2    16    17   ar
     3    17    14    1
     4    14    13    1
     5    13     7    1
     6     7     8    1
     7     8     9    1
     8     9    10    1
     9    10     1    1
    10     1     2   ar
    11     2     3   ar
    12     3     4   ar
    13     4    26    1
    14    26    27   am
    15    27    28    2
    16    27    30    1
    17    30    31   ar
    18    31    32   ar
    19    32    33   ar
    20    33    34   ar
    21    34    35   ar
    22    35    40    1
    23    40    41   ar
    24    41    42   ar
    25    42    43   ar
    26    43    44   ar
    27    44    45   ar
    28    35    36   ar
    29    36    37   ar
    30    37    38   ar
    31    38    39    1
    32     4     5   ar
    33     5     6   ar
    34    10    11    1
    35    11    12    1
    36    17    18   ar
    37    18    19   ar
    38    19    20   ar
    39    20    21   ar
    40    21    22    1
    41    22    23    2
    42    22    24    1
    43    21    16   ar
    44    12     7    1
    45     6     1   ar
    46    38    30   ar
    47    37    32   ar
    48    45    40   ar
    49    26    29    1
    50    24    25    1
@<TRIPOS>MOLECULE
*****
 45 50 0 0 0
SMALL
GASTEIGER

@<TRIPOS>ATOM
      1 C          13.3732   83.0331   24.6094 C.ar    1  UNL1        0.1318
      2 C          13.9902   81.7820   24.7663 C.ar    1  UNL1        0.0356
      3 C          13.2070   80.6533   25.0129 C.ar    1  UNL1        0.0191
      4 C          11.8093   80.7659   25.0804 C.ar    1  UNL1        0.0702
      5 C          11.2331   82.0325   24.9202 C.ar    1  UNL1        0.1149
      6 N          12.0156   83.1179   24.6817 N.ar    1  UNL1       -0.2279
      7 C          14.3598   86.8400   23.3934 C.3     1  UNL1        0.0471
      8 C          14.8873   86.5429   24.8097 C.3     1  UNL1        0.0252
      9 C          14.2349   85.2654   25.3598 C.3     1  UNL1        0.0923
     10 N          14.1462   84.2164   24.3330 N.pl3   1  UNL1       -0.2932
     11 C          14.9513   84.3397   23.1097 C.3     1  UNL1        0.0923
     12 C          14.6749   85.6798   22.4083 C.3     1  UNL1        0.0252
     13 C          14.9127   88.1769   22.8794 C.3     1  UNL1        0.2054
     14 O          13.8797   88.8987   22.2116 O.3     1  UNL1       -0.4758
     15 C          15.0525   89.4975   19.6969 C.3     1  UNL1        0.0344
     16 C          13.7664   88.7092   19.7902 C.ar    1  UNL1        0.0183
     17 C          13.2013   88.4568   21.0632 C.ar    1  UNL1        0.1347
     18 C          11.9762   87.7722   21.1570 C.ar    1  UNL1        0.0366
     19 C          11.3220   87.3349   20.0096 C.ar    1  UNL1        0.0033
     20 C          11.8851   87.5519   18.7554 C.ar    1  UNL1        0.0063
     21 C          13.1162   88.2176   18.6235 C.ar    1  UNL1        0.0744
     22 C          13.6886   88.3663   17.2611 C.2     1  UNL1        0.3378
     23 O          14.5361   87.5333   16.8393 O.2     1  UNL1       -0.2451
     24 O          13.3369   89.4424   16.4512 O.3     1  UNL1       -0.4771
     25 H          13.7371   89.5512   15.5270 H       1  UNL1        0.2954
     26 N          10.9706   79.6308   25.3560 N.am    1  UNL1       -0.2766
     27 C          11.4482   78.4074   25.9351 C.2     1  UNL1        0.2839
     28 O          12.6546   78.0717   25.7922 O.2     1  UNL1       -0.2665
     29 H           9.9829   79.6559   25.0174 H       1  UNL1        0.1553
     30 C          10.5332   77.4842   26.6293 C.ar    1  UNL1        0.1946
     31 O          10.9235   76.7286   27.6408 O.2     1  UNL1       -0.4492
     32 C           9.8949   76.0176   28.0333 C.ar    1  UNL1        0.1452
     33 C           9.8556   75.0848   29.0638 C.ar    1  UNL1        0.0375
     34 C           8.6371   74.4302   29.3152 C.ar    1  UNL1        0.0031
     35 C           7.4823   74.7157   28.5371 C.ar    1  UNL1        0.0002
     36 C           7.5658   75.6730   27.4976 C.ar    1  UNL1        0.0028
     37 C           8.7909   76.3032   27.2771 C.ar    1  UNL1        0.0337
     38 C           9.1744   77.2680   26.3670 C.ar    1  UNL1        0.0202
     39 C           8.3067   77.9254   25.3366 C.3     1  UNL1        0.0345
     40 C           6.2009   74.0171   28.8108 C.ar    1  UNL1        0.0000
     41 C           5.3875   74.4105   29.8907 C.ar    1  UNL1        0.0000
     42 C           4.1809   73.7515   30.1454 C.ar    1  UNL1        0.0000
     43 C           3.7731   72.6947   29.3284 C.ar    1  UNL1        0.0000
     44 C           4.5711   72.2948   28.2543 C.ar    1  UNL1        0.0000
     45 C           5.7783   72.9507   27.9942 C.ar    1  UNL1        0.0000
@<TRIPOS>BOND
     1    15    16    1
     2    16    17   ar
     3    17    14    1
     4    14    13    1
     5    13     7    1
     6     7     8    1
     7     8     9    1
     8     9    10    1
     9    10     1    1
    10     1     2   ar
    11     2     3   ar
    12     3     4   ar
    13     4    26    1
    14    26    27   am
    15    27    28    2
    16    27    30    1
    17    30    31   ar
    18    31    32   ar
    19    32    33   ar
    20    33    34   ar
    21    34    35   ar
    22    35    40    1
    23    40    41   ar
    24    41    42   ar
    25    42    43   ar
    26    43    44   ar
    27    44    45   ar
    28    35    36   ar
    29    36    37   ar
    30    37    38   ar
    31    38    39    1
    32     4     5   ar
    33     5     6   ar
    34    10    11    1
    35    11    12    1
    36    17    18   ar
    37    18    19   ar
    38    19    20   ar
    39    20    21   ar
    40    21    22    1
    41    22    23    2
    42    22    24    1
    43    21    16   ar
    44    12     7    1
    45     6     1   ar
    46    38    30   ar
    47    37    32   ar
    48    45    40   ar
    49    26    29    1
    50    24    25    1
@<TRIPOS>MOLECULE
*****
 45 50 0 0 0
SMALL
GASTEIGER

@<TRIPOS>ATOM
      1 C           9.2166   78.5276   24.6893 C.ar    1  UNL1        0.1318
      2 C           9.5005   79.1394   23.4582 C.ar    1  UNL1        0.0356
      3 C          10.1532   80.3728   23.4357 C.ar    1  UNL1        0.0191
      4 C          10.5436   80.9860   24.6368 C.ar    1  UNL1        0.0702
      5 C          10.2399   80.3435   25.8438 C.ar    1  UNL1        0.1149
      6 N           9.6028   79.1430   25.8415 N.ar    1  UNL1       -0.2279
      7 C           6.8448   75.4291   26.0005 C.3     1  UNL1        0.0471
      8 C           6.5918   75.7470   24.5148 C.3     1  UNL1        0.0252
      9 C           7.2323   77.0937   24.1456 C.3     1  UNL1        0.0923
     10 N           8.5635   77.2455   24.7518 N.pl3   1  UNL1       -0.2932
     11 C           9.2478   76.0600   25.2866 C.3     1  UNL1        0.0923
     12 C           8.3637   75.3393   26.3178 C.3     1  UNL1        0.0252
     13 C           6.1098   74.1456   26.4121 C.3     1  UNL1        0.2054
     14 O           5.8755   74.1566   27.8188 O.3     1  UNL1       -0.4758
     15 C           7.1688   74.6630   30.2944 C.3     1  UNL1        0.0344
     16 C           6.0810   75.5779   29.7808 C.ar    1  UNL1        0.0183
     17 C           5.4430   75.2728   28.5546 C.ar    1  UNL1        0.1347
     18 C           4.3919   76.0871   28.0960 C.ar    1  UNL1        0.0366
     19 C           3.9820   77.1932   28.8337 C.ar    1  UNL1        0.0033
     20 C           4.6235   77.5184   30.0253 C.ar    1  UNL1        0.0063
     21 C           5.6888   76.7376   30.5067 C.ar    1  UNL1        0.0744
     22 C           6.3663   77.1721   31.7549 C.2     1  UNL1        0.3378
     23 O           7.2413   78.0792   31.7139 O.2     1  UNL1       -0.2451
     24 O           6.0825   76.5606   32.9728 O.3     1  UNL1       -0.4771
     25 H           6.5540   76.8479   33.8220 H       1  UNL1        0.2954
     26 N          11.1967   82.2670   24.6557 N.am    1  UNL1       -0.2766
     27 C          12.6037   82.4424   24.8787 C.2     1  UNL1        0.2839
     28 O          13.2502   81.5801   25.5323 O.2     1  UNL1       -0.2665
     29 H          10.6002   83.1233   24.6133 H       1  UNL1        0.1553
     30 C          13.3013   83.6598   24.4285 C.ar    1  UNL1        0.1946
     31 O          12.8007   84.8695   24.6083 O.2     1  UNL1       -0.4492
     32 C          13.6416   85.7341   24.0954 C.ar    1  UNL1        0.1452
     33 C          13.5128   87.1181   24.0567 C.ar    1  UNL1        0.0375
     34 C          14.5422   87.8599   23.4511 C.ar    1  UNL1        0.0031
     35 C          15.6784   87.2112   22.8959 C.ar    1  UNL1        0.0002
     36 C          15.7701   85.7999   22.9572 C.ar    1  UNL1        0.0028
     37 C          14.7304   85.0964   23.5660 C.ar    1  UNL1        0.0337
     38 C          14.5425   83.7463   23.7853 C.ar    1  UNL1        0.0202
     39 C          15.4784   82.6373   23.4098 C.3     1  UNL1        0.0345
     40 C          16.7590   88.0049   22.2575 C.ar    1  UNL1        0.0000
     41 C          17.9096   88.3633   22.9853 C.ar    1  UNL1        0.0000
     42 C          18.9259   89.1099   22.3812 C.ar    1  UNL1        0.0000
     43 C          18.8060   89.5071   21.0477 C.ar    1  UNL1        0.0000
     44 C          17.6694   89.1582   20.3150 C.ar    1  UNL1        0.0000
     45 C          16.6503   88.4110   20.9137 C.ar    1  UNL1        0.0000
@<TRIPOS>BOND
     1    15    16    1
     2    16    17   ar
     3    17    14    1
     4    14    13    1
     5    13     7    1
     6     7     8    1
     7     8     9    1
     8     9    10    1
     9    10     1    1
    10     1     2   ar
    11     2     3   ar
    12     3     4   ar
    13     4    26    1
    14    26    27   am
    15    27    28    2
    16    27    30    1
    17    30    31   ar
    18    31    32   ar
    19    32    33   ar
    20    33    34   ar
    21    34    35   ar
    22    35    40    1
    23    40    41   ar
    24    41    42   ar
    25    42    43   ar
    26    43    44   ar
    27    44    45   ar
    28    35    36   ar
    29    36    37   ar
    30    37    38   ar
    31    38    39    1
    32     4     5   ar
    33     5     6   ar
    34    10    11    1
    35    11    12    1
    36    17    18   ar
    37    18    19   ar
    38    19    20   ar
    39    20    21   ar
    40    21    22    1
    41    22    23    2
    42    22    24    1
    43    21    16   ar
    44    12     7    1
    45     6     1   ar
    46    38    30   ar
    47    37    32   ar
    48    45    40   ar
    49    26    29    1
    50    24    25    1
@<TRIPOS>MOLECULE
*****
 45 50 0 0 0
SMALL
GASTEIGER

@<TRIPOS>ATOM
      1 C           8.6926   77.1766   23.3022 C.ar    1  UNL1        0.1318
      2 C           8.9090   78.2466   22.4197 C.ar    1  UNL1        0.0356
      3 C           9.5684   79.3905   22.8720 C.ar    1  UNL1        0.0191
      4 C          10.0326   79.4602   24.1951 C.ar    1  UNL1        0.0702
      5 C           9.7948   78.3718   25.0441 C.ar    1  UNL1        0.1149
      6 N           9.1497   77.2684   24.5820 N.ar    1  UNL1       -0.2279
      7 C           5.9584   74.6582   21.5339 C.3     1  UNL1        0.0471
      8 C           7.4027   74.2872   21.1483 C.3     1  UNL1        0.0252
      9 C           8.3631   75.4193   21.5437 C.3     1  UNL1        0.0923
     10 N           8.0347   75.9719   22.8664 N.pl3   1  UNL1       -0.2932
     11 C           7.1479   75.2143   23.7605 C.3     1  UNL1        0.0923
     12 C           5.8151   74.8945   23.0634 C.3     1  UNL1        0.0252
     13 C           4.9742   73.5894   21.0377 C.3     1  UNL1        0.2054
     14 O           3.6685   74.1526   20.9287 O.3     1  UNL1       -0.4758
     15 C           2.7593   76.2676   22.5893 C.3     1  UNL1        0.0344
     16 C           2.9397   76.4657   21.1019 C.ar    1  UNL1        0.0183
     17 C           3.3685   75.3762   20.3065 C.ar    1  UNL1        0.1347
     18 C           3.4859   75.5355   18.9140 C.ar    1  UNL1        0.0366
     19 C           3.1922   76.7567   18.3156 C.ar    1  UNL1        0.0033
     20 C           2.7990   77.8421   19.0931 C.ar    1  UNL1        0.0063
     21 C           2.6867   77.7254   20.4895 C.ar    1  UNL1        0.0744
     22 C           2.3174   78.9368   21.2654 C.2     1  UNL1        0.3378
     23 O           3.2112   79.7472   21.6317 O.2     1  UNL1       -0.2451
     24 O           0.9968   79.1731   21.6366 O.3     1  UNL1       -0.4771
     25 H           0.7465   79.9925   22.1770 H       1  UNL1        0.2954
     26 N          10.6952   80.6304   24.7045 N.am    1  UNL1       -0.2766
     27 C          12.1217   80.7725   24.7758 C.2     1  UNL1        0.2839
     28 O          12.8532   79.7495   24.8588 O.2     1  UNL1       -0.2665
     29 H          10.1093   81.3732   25.1472 H       1  UNL1        0.1553
     30 C          12.7534   82.1023   24.8385 C.ar    1  UNL1        0.1946
     31 O          12.9233   82.8561   23.7665 O.2     1  UNL1       -0.4492
     32 C          13.5157   83.9632   24.1420 C.ar    1  UNL1        0.1452
     33 C          13.8911   85.0353   23.3399 C.ar    1  UNL1        0.0375
     34 C          14.5210   86.1311   23.9555 C.ar    1  UNL1        0.0031
     35 C          14.7654   86.1391   25.3557 C.ar    1  UNL1        0.0002
     36 C          14.3664   85.0272   26.1357 C.ar    1  UNL1        0.0028
     37 C          13.7436   83.9580   25.4912 C.ar    1  UNL1        0.0337
     38 C          13.2409   82.7653   25.9719 C.ar    1  UNL1        0.0202
     39 C          13.2294   82.3063   27.3988 C.3     1  UNL1        0.0345
     40 C          15.4328   87.3016   25.9948 C.ar    1  UNL1        0.0000
     41 C          15.0488   87.7301   27.2798 C.ar    1  UNL1        0.0000
     42 C          15.6798   88.8243   27.8795 C.ar    1  UNL1        0.0000
     43 C          16.6979   89.5024   27.2057 C.ar    1  UNL1        0.0000
     44 C          17.0878   89.0873   25.9305 C.ar    1  UNL1        0.0000
     45 C          16.4610   87.9932   25.3262 C.ar    1  UNL1        0.0000
@<TRIPOS>BOND
     1    15    16    1
     2    16    17   ar
     3    17    14    1
     4    14    13    1
     5    13     7    1
     6     7     8    1
     7     8     9    1
     8     9    10    1
     9    10     1    1
    10     1     2   ar
    11     2     3   ar
    12     3     4   ar
    13     4    26    1
    14    26    27   am
    15    27    28    2
    16    27    30    1
    17    30    31   ar
    18    31    32   ar
    19    32    33   ar
    20    33    34   ar
    21    34    35   ar
    22    35    40    1
    23    40    41   ar
    24    41    42   ar
    25    42    43   ar
    26    43    44   ar
    27    44    45   ar
    28    35    36   ar
    29    36    37   ar
    30    37    38   ar
    31    38    39    1
    32     4     5   ar
    33     5     6   ar
    34    10    11    1
    35    11    12    1
    36    17    18   ar
    37    18    19   ar
    38    19    20   ar
    39    20    21   ar
    40    21    22    1
    41    22    23    2
    42    22    24    1
    43    21    16   ar
    44    12     7    1
    45     6     1   ar
    46    38    30   ar
    47    37    32   ar
    48    45    40   ar
    49    26    29    1
    50    24    25    1
@<TRIPOS>MOLECULE
*****
 45 50 0 0 0
SMALL
GASTEIGER

@<TRIPOS>ATOM
      1 C           9.1912   78.6626   24.5718 C.ar    1  UNL1        0.1318
      2 C           9.5360   79.3070   23.3732 C.ar    1  UNL1        0.0356
      3 C          10.2520   80.5042   23.4157 C.ar    1  UNL1        0.0191
      4 C          10.6447   81.0478   24.6491 C.ar    1  UNL1        0.0702
      5 C          10.2791   80.3747   25.8219 C.ar    1  UNL1        0.1149
      6 N           9.5809   79.2105   25.7564 N.ar    1  UNL1       -0.2279
      7 C           6.6210   75.6577   23.4274 C.3     1  UNL1        0.0471
      8 C           8.0284   75.1130   23.7354 C.3     1  UNL1        0.0252
      9 C           9.0334   76.2706   23.8352 C.3     1  UNL1        0.0923
     10 N           8.4712   77.4153   24.5674 N.pl3   1  UNL1       -0.2932
     11 C           7.2632   77.2228   25.3820 C.3     1  UNL1        0.0923
     12 C           6.1252   76.6271   24.5366 C.3     1  UNL1        0.0252
     13 C           5.6308   74.5052   23.2073 C.3     1  UNL1        0.2054
     14 O           4.2949   74.9931   23.3133 O.3     1  UNL1       -0.4758
     15 C           2.8156   77.3466   23.8879 C.3     1  UNL1        0.0344
     16 C           2.8319   76.7553   22.4971 C.ar    1  UNL1        0.0183
     17 C           3.5604   75.5649   22.2608 C.ar    1  UNL1        0.1347
     18 C           3.5362   74.9768   20.9833 C.ar    1  UNL1        0.0366
     19 C           2.8098   75.5610   19.9506 C.ar    1  UNL1        0.0033
     20 C           2.1152   76.7478   20.1657 C.ar    1  UNL1        0.0063
     21 C           2.1298   77.3734   21.4245 C.ar    1  UNL1        0.0744
     22 C           1.4145   78.6667   21.5713 C.2     1  UNL1        0.3378
     23 O           2.0183   79.7501   21.3439 O.2     1  UNL1       -0.2451
     24 O           0.0913   78.7073   22.0016 O.3     1  UNL1       -0.4771
     25 H          -0.3928   79.5900   22.1143 H       1  UNL1        0.2954
     26 N          11.3626   82.2908   24.7347 N.am    1  UNL1       -0.2766
     27 C          12.7900   82.3815   24.8550 C.2     1  UNL1        0.2839
     28 O          13.4405   81.4314   25.3675 O.2     1  UNL1       -0.2665
     29 H          10.8096   83.1725   24.8237 H       1  UNL1        0.1553
     30 C          13.5118   83.6057   24.4656 C.ar    1  UNL1        0.1946
     31 O          13.0710   84.8139   24.7691 O.2     1  UNL1       -0.4492
     32 C          13.9182   85.6866   24.2811 C.ar    1  UNL1        0.1452
     33 C          13.8440   87.0729   24.3605 C.ar    1  UNL1        0.0375
     34 C          14.8694   87.8241   23.7598 C.ar    1  UNL1        0.0031
     35 C          15.9477   87.1823   23.0922 C.ar    1  UNL1        0.0002
     36 C          15.9850   85.7684   23.0351 C.ar    1  UNL1        0.0028
     37 C          14.9510   85.0555   23.6426 C.ar    1  UNL1        0.0337
     38 C          14.7201   83.6996   23.7633 C.ar    1  UNL1        0.0202
     39 C          15.5892   82.5920   23.2488 C.3     1  UNL1        0.0345
     40 C          17.0246   87.9862   22.4602 C.ar    1  UNL1        0.0000
     41 C          18.1873   88.3179   23.1814 C.ar    1  UNL1        0.0000
     42 C          19.2002   89.0740   22.5833 C.ar    1  UNL1        0.0000
     43 C          19.0647   89.5074   21.2626 C.ar    1  UNL1        0.0000
     44 C          17.9160   89.1851   20.5367 C.ar    1  UNL1        0.0000
     45 C          16.9003   88.4285   21.1292 C.ar    1  UNL1        0.0000
@<TRIPOS>BOND
     1    15    16    1
     2    16    17   ar
     3    17    14    1
     4    14    13    1
     5    13     7    1
     6     7     8    1
     7     8     9    1
     8     9    10    1
     9    10     1    1
    10     1     2   ar
    11     2     3   ar
    12     3     4   ar
    13     4    26    1
    14    26    27   am
    15    27    28    2
    16    27    30    1
    17    30    31   ar
    18    31    32   ar
    19    32    33   ar
    20    33    34   ar
    21    34    35   ar
    22    35    40    1
    23    40    41   ar
    24    41    42   ar
    25    42    43   ar
    26    43    44   ar
    27    44    45   ar
    28    35    36   ar
    29    36    37   ar
    30    37    38   ar
    31    38    39    1
    32     4     5   ar
    33     5     6   ar
    34    10    11    1
    35    11    12    1
    36    17    18   ar
    37    18    19   ar
    38    19    20   ar
    39    20    21   ar
    40    21    22    1
    41    22    23    2
    42    22    24    1
    43    21    16   ar
    44    12     7    1
    45     6     1   ar
    46    38    30   ar
    47    37    32   ar
    48    45    40   ar
    49    26    29    1
    50    24    25    1
@<TRIPOS>MOLECULE
*****
 45 50 0 0 0
SMALL
GASTEIGER

@<TRIPOS>ATOM
      1 C          13.5057   83.1364   24.1710 C.ar    1  UNL1        0.1318
      2 C          12.1035   83.2015   24.1855 C.ar    1  UNL1        0.0356
      3 C          11.3683   82.1207   24.6747 C.ar    1  UNL1        0.0191
      4 C          12.0286   80.9853   25.1704 C.ar    1  UNL1        0.0702
      5 C          13.4287   80.9593   25.1364 C.ar    1  UNL1        0.1149
      6 N          14.1239   82.0232   24.6547 N.ar    1  UNL1       -0.2279
      7 C          14.5876   86.5836   22.1984 C.3     1  UNL1        0.0471
      8 C          14.9982   86.6271   23.6823 C.3     1  UNL1        0.0252
      9 C          14.3034   85.4967   24.4567 C.3     1  UNL1        0.0923
     10 N          14.2985   84.2397   23.6934 N.pl3   1  UNL1       -0.2932
     11 C          15.2004   84.0959   22.5419 C.3     1  UNL1        0.0923
     12 C          14.9818   85.2355   21.5329 C.3     1  UNL1        0.0252
     13 C          15.1803   87.7782   21.4377 C.3     1  UNL1        0.2054
     14 O          14.1317   88.6512   21.0225 O.3     1  UNL1       -0.4758
     15 C          11.3822   88.5348   20.3266 C.3     1  UNL1        0.0344
     16 C          12.4310   88.9068   19.3038 C.ar    1  UNL1        0.0183
     17 C          13.7936   88.9256   19.6866 C.ar    1  UNL1        0.1347
     18 C          14.7812   89.2163   18.7283 C.ar    1  UNL1        0.0366
     19 C          14.4277   89.4934   17.4115 C.ar    1  UNL1        0.0033
     20 C          13.0884   89.5070   17.0329 C.ar    1  UNL1        0.0063
     21 C          12.0727   89.2377   17.9668 C.ar    1  UNL1        0.0744
     22 C          10.6620   89.3240   17.5104 C.2     1  UNL1        0.3378
     23 O          10.4047   89.5046   16.2892 O.2     1  UNL1       -0.2451
     24 O           9.6105   89.2528   18.4198 O.3     1  UNL1       -0.4771
     25 H           8.6486   89.3248   18.1103 H       1  UNL1        0.2954
     26 N          11.3060   79.8428   25.6607 N.am    1  UNL1       -0.2766
     27 C          10.3132   79.9100   26.6951 C.2     1  UNL1        0.2839
     28 O          10.3543   80.8367   27.5484 O.2     1  UNL1       -0.2665
     29 H          11.5949   78.8972   25.3241 H       1  UNL1        0.1553
     30 C           9.2849   78.8638   26.8343 C.ar    1  UNL1        0.1946
     31 O           8.5569   78.4470   25.8132 O.2     1  UNL1       -0.4492
     32 C           7.7329   77.5281   26.2541 C.ar    1  UNL1        0.1452
     33 C           6.7824   76.8238   25.5232 C.ar    1  UNL1        0.0375
     34 C           5.9969   75.8762   26.2025 C.ar    1  UNL1        0.0031
     35 C           6.1716   75.6480   27.5946 C.ar    1  UNL1        0.0002
     36 C           7.1513   76.3865   28.3007 C.ar    1  UNL1        0.0028
     37 C           7.9128   77.3178   27.5941 C.ar    1  UNL1        0.0337
     38 C           8.9296   78.1622   27.9933 C.ar    1  UNL1        0.0202
     39 C           9.5094   78.2804   29.3705 C.3     1  UNL1        0.0345
     40 C           5.3351   74.6454   28.3019 C.ar    1  UNL1        0.0000
     41 C           4.6083   75.0039   29.4532 C.ar    1  UNL1        0.0000
     42 C           3.8206   74.0579   30.1166 C.ar    1  UNL1        0.0000
     43 C           3.7498   72.7469   29.6407 C.ar    1  UNL1        0.0000
     44 C           4.4663   72.3788   28.4999 C.ar    1  UNL1        0.0000
     45 C           5.2548   73.3206   27.8319 C.ar    1  UNL1        0.0000
@<TRIPOS>BOND
     1    15    16    1
     2    16    17   ar
     3    17    14    1
     4    14    13    1
     5    13     7    1
     6     7     8    1
     7     8     9    1
     8     9    10    1
     9    10     1    1
    10     1     2   ar
    11     2     3   ar
    12     3     4   ar
    13     4    26    1
    14    26    27   am
    15    27    28    2
    16    27    30    1
    17    30    31   ar
    18    31    32   ar
    19    32    33   ar
    20    33    34   ar
    21    34    35   ar
    22    35    40    1
    23    40    41   ar
    24    41    42   ar
    25    42    43   ar
    26    43    44   ar
    27    44    45   ar
    28    35    36   ar
    29    36    37   ar
    30    37    38   ar
    31    38    39    1
    32     4     5   ar
    33     5     6   ar
    34    10    11    1
    35    11    12    1
    36    17    18   ar
    37    18    19   ar
    38    19    20   ar
    39    20    21   ar
    40    21    22    1
    41    22    23    2
    42    22    24    1
    43    21    16   ar
    44    12     7    1
    45     6     1   ar
    46    38    30   ar
    47    37    32   ar
    48    45    40   ar
    49    26    29    1
    50    24    25    1
@<TRIPOS>MOLECULE
*****
 45 50 0 0 0
SMALL
GASTEIGER

@<TRIPOS>ATOM
      1 C           9.2519   78.5287   24.8288 C.ar    1  UNL1        0.1318
      2 C           9.4501   79.1860   26.0532 C.ar    1  UNL1        0.0356
      3 C          10.0924   80.4249   26.0745 C.ar    1  UNL1        0.0191
      4 C          10.5167   81.0199   24.8757 C.ar    1  UNL1        0.0702
      5 C          10.3016   80.3303   23.6756 C.ar    1  UNL1        0.1149
      6 N           9.6746   79.1245   23.6791 N.ar    1  UNL1       -0.2279
      7 C           6.9994   75.3875   23.4132 C.3     1  UNL1        0.0471
      8 C           8.3426   74.9057   23.9929 C.3     1  UNL1        0.0252
      9 C           9.2855   76.0998   24.2056 C.3     1  UNL1        0.0923
     10 N           8.5747   77.2593   24.7649 N.pl3   1  UNL1       -0.2932
     11 C           7.2463   77.0664   25.3633 C.3     1  UNL1        0.0923
     12 C           6.2912   76.3925   24.3641 C.3     1  UNL1        0.0252
     13 C           6.0923   74.1931   23.0846 C.3     1  UNL1        0.2054
     14 O           5.9267   74.0905   21.6718 O.3     1  UNL1       -0.4758
     15 C           6.2275   76.4031   20.0536 C.3     1  UNL1        0.0344
     16 C           4.9122   75.6613   20.1178 C.ar    1  UNL1        0.0183
     17 C           4.7979   74.5289   20.9592 C.ar    1  UNL1        0.1347
     18 C           3.5625   73.8653   21.0681 C.ar    1  UNL1        0.0366
     19 C           2.4570   74.3085   20.3490 C.ar    1  UNL1        0.0033
     20 C           2.5679   75.4028   19.4959 C.ar    1  UNL1        0.0063
     21 C           3.7906   76.0807   19.3486 C.ar    1  UNL1        0.0744
     22 C           3.8550   77.2046   18.3799 C.2     1  UNL1        0.3378
     23 O           3.3764   78.3300   18.6876 O.2     1  UNL1       -0.2451
     24 O           4.3988   77.0250   17.1112 O.3     1  UNL1       -0.4771
     25 H           4.4310   77.7879   16.4456 H       1  UNL1        0.2954
     26 N          11.2026   82.2836   24.8589 N.am    1  UNL1       -0.2766
     27 C          12.6312   82.4169   24.8994 C.2     1  UNL1        0.2839
     28 O          13.3336   81.5124   25.4258 O.2     1  UNL1       -0.2665
     29 H          10.6303   83.1543   24.9309 H       1  UNL1        0.1553
     30 C          13.2974   83.6366   24.4096 C.ar    1  UNL1        0.1946
     31 O          12.7756   84.8402   24.5683 O.2     1  UNL1       -0.4492
     32 C          13.5912   85.7085   24.0220 C.ar    1  UNL1        0.1452
     33 C          13.4343   87.0884   23.9524 C.ar    1  UNL1        0.0375
     34 C          14.4393   87.8354   23.3134 C.ar    1  UNL1        0.0031
     35 C          15.5799   87.1959   22.7562 C.ar    1  UNL1        0.0002
     36 C          15.7006   85.7886   22.8496 C.ar    1  UNL1        0.0028
     37 C          14.6845   85.0797   23.4911 C.ar    1  UNL1        0.0337
     38 C          14.5269   83.7318   23.7453 C.ar    1  UNL1        0.0202
     39 C          15.4790   82.6327   23.3818 C.3     1  UNL1        0.0345
     40 C          16.6346   87.9951   22.0823 C.ar    1  UNL1        0.0000
     41 C          17.8824   88.2003   22.7013 C.ar    1  UNL1        0.0000
     42 C          18.8740   88.9524   22.0639 C.ar    1  UNL1        0.0000
     43 C          18.6326   89.5076   20.8054 C.ar    1  UNL1        0.0000
     44 C          17.3988   89.3115   20.1810 C.ar    1  UNL1        0.0000
     45 C          16.4038   88.5596   20.8132 C.ar    1  UNL1        0.0000
@<TRIPOS>BOND
     1    15    16    1
     2    16    17   ar
     3    17    14    1
     4    14    13    1
     5    13     7    1
     6     7     8    1
     7     8     9    1
     8     9    10    1
     9    10     1    1
    10     1     2   ar
    11     2     3   ar
    12     3     4   ar
    13     4    26    1
    14    26    27   am
    15    27    28    2
    16    27    30    1
    17    30    31   ar
    18    31    32   ar
    19    32    33   ar
    20    33    34   ar
    21    34    35   ar
    22    35    40    1
    23    40    41   ar
    24    41    42   ar
    25    42    43   ar
    26    43    44   ar
    27    44    45   ar
    28    35    36   ar
    29    36    37   ar
    30    37    38   ar
    31    38    39    1
    32     4     5   ar
    33     5     6   ar
    34    10    11    1
    35    11    12    1
    36    17    18   ar
    37    18    19   ar
    38    19    20   ar
    39    20    21   ar
    40    21    22    1
    41    22    23    2
    42    22    24    1
    43    21    16   ar
    44    12     7    1
    45     6     1   ar
    46    38    30   ar
    47    37    32   ar
    48    45    40   ar
    49    26    29    1
    50    24    25    1
