@<TRIPOS>MOLECULE
*****
 46 51 0 0 0
SMALL
GASTEIGER

@<TRIPOS>ATOM
      1 C         -28.9706   50.3378   -5.1956 C.ar    1  UNL1        0.0702
      2 C         -27.6188   49.9860   -5.2926 C.ar    1  UNL1        0.0191
      3 C         -26.9136   50.2194   -6.4741 C.ar    1  UNL1        0.0356
      4 C         -27.5699   50.8059   -7.5676 C.ar    1  UNL1        0.1318
      5 N         -28.8951   51.1035   -7.4648 N.ar    1  UNL1       -0.2279
      6 C         -29.6013   50.8877   -6.3235 C.ar    1  UNL1        0.1149
      7 N         -26.8818   51.0420   -8.8105 N.pl3   1  UNL1       -0.2932
      8 C         -26.2390   49.9109   -9.4961 C.3     1  UNL1        0.0923
      9 C         -25.3418   50.3841  -10.6501 C.3     1  UNL1        0.0252
     10 C         -24.5542   51.6382  -10.2283 C.3     1  UNL1        0.0472
     11 C         -25.5030   52.8116   -9.8585 C.3     1  UNL1        0.0252
     12 C         -26.9195   52.3539   -9.4722 C.3     1  UNL1        0.0923
     13 C         -23.5580   52.0473  -11.3298 C.3     1  UNL1        0.2054
     14 O         -22.3219   51.3440  -11.1919 O.3     1  UNL1       -0.4755
     15 C         -21.2002   51.7945  -10.4765 C.ar    1  UNL1        0.1388
     16 C         -21.2953   52.3783   -9.1991 C.ar    1  UNL1        0.0369
     17 C         -20.1443   52.8094   -8.5366 C.ar    1  UNL1        0.0033
     18 C         -18.8908   52.6614   -9.1338 C.ar    1  UNL1        0.0066
     19 C         -18.7750   52.0753  -10.4061 C.ar    1  UNL1        0.0785
     20 C         -19.9389   51.6437  -11.0669 C.ar    1  UNL1        0.0433
     21 C         -17.4499   51.9135  -11.0445 C.2     1  UNL1        0.3381
     22 O         -17.2838   52.2168  -12.2570 O.2     1  UNL1       -0.2451
     23 O         -16.3722   51.4238  -10.3110 O.3     1  UNL1       -0.4771
     24 H         -15.4610   51.3092  -10.7384 H       1  UNL1        0.2954
     25 C         -29.7932   48.7684   -3.3836 C.2     1  UNL1        0.2839
     26 O         -29.6828   47.7367   -4.0992 O.2     1  UNL1       -0.2665
     27 N         -29.6917   50.0698   -3.9807 N.am    1  UNL1       -0.2766
     28 H         -30.2635   50.8404   -3.5682 H       1  UNL1        0.1553
     29 C         -31.2341   49.2024    2.3653 C.ar    1  UNL1       -0.0191
     30 C         -31.0796   49.8877    1.1382 C.ar    1  UNL1        0.0332
     31 C         -30.6846   49.1647    0.0186 C.ar    1  UNL1        0.1449
     32 O         -30.4899   49.6207   -1.1947 O.2     1  UNL1       -0.4492
     33 C         -30.1087   48.6080   -1.9533 C.ar    1  UNL1        0.1946
     34 C         -30.0754   47.4303   -1.1965 C.ar    1  UNL1        0.0202
     35 C         -29.7304   46.0419   -1.6440 C.3     1  UNL1        0.0345
     36 C         -30.4362   47.8224    0.0772 C.ar    1  UNL1        0.0337
     37 C         -30.5627   47.1046    1.2637 C.ar    1  UNL1        0.0025
     38 C         -30.9690   47.7966    2.4254 C.ar    1  UNL1       -0.0038
     39 C         -31.0959   47.0314    3.6812 C.ar    1  UNL1       -0.0003
     40 C         -30.7924   47.6402    4.9089 C.ar    1  UNL1       -0.0000
     41 C         -30.8942   46.9118    6.0982 C.ar    1  UNL1       -0.0000
     42 C         -31.2884   45.5709    6.0668 C.ar    1  UNL1       -0.0000
     43 C         -31.5773   44.9552    4.8455 C.ar    1  UNL1       -0.0000
     44 C         -31.4766   45.6803    3.6542 C.ar    1  UNL1       -0.0000
     45 C         -30.9195   51.3787    3.5554 C.3     1  UNL1        0.0050
     46 C         -31.5827   50.0058    3.5977 C.3     1  UNL1        0.0265
@<TRIPOS>BOND
     1    45    46    1
     2    46    29    1
     3    29    30   ar
     4    30    31   ar
     5    31    32   ar
     6    32    33   ar
     7    33    25    1
     8    25    26    2
     9    25    27   am
    10    27     1    1
    11     1     2   ar
    12     2     3   ar
    13     3     4   ar
    14     4     7    1
    15     7     8    1
    16     8     9    1
    17     9    10    1
    18    10    13    1
    19    13    14    1
    20    14    15    1
    21    15    16   ar
    22    16    17   ar
    23    17    18   ar
    24    18    19   ar
    25    19    21    1
    26    21    22    2
    27    21    23    1
    28    19    20   ar
    29    10    11    1
    30    11    12    1
    31     4     5   ar
    32     5     6   ar
    33    33    34   ar
    34    34    35    1
    35    34    36   ar
    36    36    37   ar
    37    37    38   ar
    38    38    39    1
    39    39    40   ar
    40    40    41   ar
    41    41    42   ar
    42    42    43   ar
    43    43    44   ar
    44    38    29   ar
    45    44    39   ar
    46    36    31   ar
    47     6     1   ar
    48    12     7    1
    49    20    15   ar
    50    27    28    1
    51    23    24    1
@<TRIPOS>MOLECULE
*****
 46 51 0 0 0
SMALL
GASTEIGER

@<TRIPOS>ATOM
      1 C         -27.8988   49.2401   -5.9947 C.ar    1  UNL1        0.0702
      2 C         -28.9245   48.3175   -6.2340 C.ar    1  UNL1        0.0191
      3 C         -29.7753   47.9263   -5.1993 C.ar    1  UNL1        0.0356
      4 C         -29.5933   48.4609   -3.9141 C.ar    1  UNL1        0.1318
      5 N         -28.5646   49.3262   -3.6946 N.ar    1  UNL1       -0.2279
      6 C         -27.7256   49.7234   -4.6874 C.ar    1  UNL1        0.1149
      7 N         -30.4369   48.0648   -2.8161 N.pl3   1  UNL1       -0.2932
      8 C         -30.9277   49.0931   -1.8864 C.3     1  UNL1        0.0923
      9 C         -31.5840   48.4680   -0.6458 C.3     1  UNL1        0.0252
     10 C         -30.7623   47.2575   -0.1654 C.3     1  UNL1        0.0472
     11 C         -30.6759   46.1558   -1.2574 C.3     1  UNL1        0.0252
     12 C         -30.9233   46.6845   -2.6803 C.3     1  UNL1        0.0923
     13 C         -31.3385   46.7004    1.1501 C.3     1  UNL1        0.2054
     14 O         -30.5209   47.0641    2.2641 O.3     1  UNL1       -0.4755
     15 C         -30.8769   47.9674    3.2792 C.ar    1  UNL1        0.1388
     16 C         -31.2076   47.5555    4.5840 C.ar    1  UNL1        0.0369
     17 C         -31.5556   48.5002    5.5515 C.ar    1  UNL1        0.0033
     18 C         -31.5745   49.8597    5.2336 C.ar    1  UNL1        0.0066
     19 C         -31.2414   50.2909    3.9379 C.ar    1  UNL1        0.0785
     20 C         -30.8920   49.3334    2.9691 C.ar    1  UNL1        0.0433
     21 C         -31.2574   51.7301    3.5943 C.2     1  UNL1        0.3381
     22 O         -31.3181   52.0985    2.3900 O.2     1  UNL1       -0.2451
     23 O         -31.2053   52.6926    4.5993 O.3     1  UNL1       -0.4771
     24 H         -31.2156   53.6804    4.3748 H       1  UNL1        0.2954
     25 C         -26.7691   50.9753   -7.4560 C.2     1  UNL1        0.2839
     26 O         -27.6373   51.8615   -7.2335 O.2     1  UNL1       -0.2665
     27 N         -27.0143   49.6164   -7.0641 N.am    1  UNL1       -0.2766
     28 H         -26.6125   48.8581   -7.6596 H       1  UNL1        0.1553
     29 C         -22.5158   53.1326  -11.0014 C.ar    1  UNL1       -0.0191
     30 C         -23.8852   53.1723  -10.6514 C.ar    1  UNL1        0.0332
     31 C         -24.3320   52.3515   -9.6224 C.ar    1  UNL1        0.1449
     32 O         -25.5541   52.2497   -9.1597 O.2     1  UNL1       -0.4492
     33 C         -25.5493   51.3481   -8.1937 C.ar    1  UNL1        0.1946
     34 C         -24.2518   50.8556   -8.0064 C.ar    1  UNL1        0.0202
     35 C         -23.7711   49.8462   -7.0079 C.3     1  UNL1        0.0345
     36 C         -23.4892   51.5093   -8.9536 C.ar    1  UNL1        0.0337
     37 C         -22.1353   51.4249   -9.2682 C.ar    1  UNL1        0.0025
     38 C         -21.6353   52.2461  -10.3022 C.ar    1  UNL1       -0.0038
     39 C         -20.2005   52.1481  -10.6348 C.ar    1  UNL1       -0.0003
     40 C         -19.2324   52.3736   -9.6440 C.ar    1  UNL1       -0.0000
     41 C         -17.8725   52.2994   -9.9610 C.ar    1  UNL1       -0.0000
     42 C         -17.4730   52.0108  -11.2692 C.ar    1  UNL1       -0.0000
     43 C         -18.4329   51.8002  -12.2634 C.ar    1  UNL1       -0.0000
     44 C         -19.7936   51.8736  -11.9502 C.ar    1  UNL1       -0.0000
     45 C         -23.0244   53.8481  -13.3426 C.3     1  UNL1        0.0050
     46 C         -22.0500   53.9643  -12.1749 C.3     1  UNL1        0.0265
@<TRIPOS>BOND
     1    45    46    1
     2    46    29    1
     3    29    30   ar
     4    30    31   ar
     5    31    32   ar
     6    32    33   ar
     7    33    25    1
     8    25    26    2
     9    25    27   am
    10    27     1    1
    11     1     2   ar
    12     2     3   ar
    13     3     4   ar
    14     4     7    1
    15     7     8    1
    16     8     9    1
    17     9    10    1
    18    10    13    1
    19    13    14    1
    20    14    15    1
    21    15    16   ar
    22    16    17   ar
    23    17    18   ar
    24    18    19   ar
    25    19    21    1
    26    21    22    2
    27    21    23    1
    28    19    20   ar
    29    10    11    1
    30    11    12    1
    31     4     5   ar
    32     5     6   ar
    33    33    34   ar
    34    34    35    1
    35    34    36   ar
    36    36    37   ar
    37    37    38   ar
    38    38    39    1
    39    39    40   ar
    40    40    41   ar
    41    41    42   ar
    42    42    43   ar
    43    43    44   ar
    44    38    29   ar
    45    44    39   ar
    46    36    31   ar
    47     6     1   ar
    48    12     7    1
    49    20    15   ar
    50    27    28    1
    51    23    24    1
@<TRIPOS>MOLECULE
*****
 46 51 0 0 0
SMALL
GASTEIGER

@<TRIPOS>ATOM
      1 C         -23.4408   52.2276  -10.3263 C.ar    1  UNL1        0.0702
      2 C         -22.5968   51.7482   -9.3171 C.ar    1  UNL1        0.0191
      3 C         -21.5444   52.5348   -8.8467 C.ar    1  UNL1        0.0356
      4 C         -21.3342   53.8097   -9.3954 C.ar    1  UNL1        0.1318
      5 N         -22.1425   54.2400  -10.4037 N.ar    1  UNL1       -0.2279
      6 C         -23.1751   53.4925  -10.8757 C.ar    1  UNL1        0.1149
      7 N         -20.2455   54.6416   -8.9517 N.pl3   1  UNL1       -0.2932
      8 C         -19.3468   54.1403   -7.9012 C.3     1  UNL1        0.0923
      9 C         -18.4192   55.2461   -7.3745 C.3     1  UNL1        0.0252
     10 C         -19.2007   56.5639   -7.2207 C.3     1  UNL1        0.0472
     11 C         -19.7825   57.0452   -8.5785 C.3     1  UNL1        0.0252
     12 C         -19.9348   55.9171   -9.6127 C.3     1  UNL1        0.0923
     13 C         -18.3149   57.6458   -6.5742 C.3     1  UNL1        0.2054
     14 O         -19.1067   58.6093   -5.8769 O.3     1  UNL1       -0.4755
     15 C         -19.2943   59.9469   -6.2625 C.ar    1  UNL1        0.1388
     16 C         -19.1608   60.3816   -7.5947 C.ar    1  UNL1        0.0369
     17 C         -19.3577   61.7257   -7.9177 C.ar    1  UNL1        0.0033
     18 C         -19.6919   62.6473   -6.9235 C.ar    1  UNL1        0.0066
     19 C         -19.8357   62.2312   -5.5886 C.ar    1  UNL1        0.0785
     20 C         -19.6358   60.8759   -5.2713 C.ar    1  UNL1        0.0433
     21 C         -20.1915   63.2018   -4.5299 C.2     1  UNL1        0.3381
     22 O         -19.4541   63.3407   -3.5167 O.2     1  UNL1       -0.2451
     23 O         -21.3462   63.9720   -4.6427 O.3     1  UNL1       -0.4771
     24 H         -21.5990   64.6393   -3.9236 H       1  UNL1        0.2954
     25 C         -25.8988   51.7133  -10.6680 C.2     1  UNL1        0.2839
     26 O         -26.2788   52.4468   -9.7160 O.2     1  UNL1       -0.2665
     27 N         -24.5067   51.3973  -10.8186 N.am    1  UNL1       -0.2766
     28 H         -24.2597   50.4609  -11.2100 H       1  UNL1        0.1553
     29 C         -30.3996   48.9104  -13.3514 C.ar    1  UNL1       -0.0191
     30 C         -29.7626   49.2018  -12.1232 C.ar    1  UNL1        0.0332
     31 C         -28.6292   50.0064  -12.1370 C.ar    1  UNL1        0.1449
     32 O         -27.9084   50.3829  -11.1091 O.2     1  UNL1       -0.4492
     33 C         -26.9145   51.1277  -11.5604 C.ar    1  UNL1        0.1946
     34 C         -27.0088   51.2581  -12.9515 C.ar    1  UNL1        0.0202
     35 C         -26.1211   52.0313  -13.8794 C.3     1  UNL1        0.0345
     36 C         -28.1161   50.5102  -13.2989 C.ar    1  UNL1        0.0337
     37 C         -28.6997   50.2429  -14.5346 C.ar    1  UNL1        0.0025
     38 C         -29.8577   49.4358  -14.5682 C.ar    1  UNL1       -0.0038
     39 C         -30.4685   49.1515  -15.8815 C.ar    1  UNL1       -0.0003
     40 C         -30.5239   47.8332  -16.3602 C.ar    1  UNL1       -0.0000
     41 C         -31.0854   47.5636  -17.6121 C.ar    1  UNL1       -0.0000
     42 C         -31.5839   48.6085  -18.3959 C.ar    1  UNL1       -0.0000
     43 C         -31.5175   49.9250  -17.9306 C.ar    1  UNL1       -0.0000
     44 C         -30.9567   50.1985  -16.6793 C.ar    1  UNL1       -0.0000
     45 C         -31.2241   46.6564  -12.6505 C.3     1  UNL1        0.0050
     46 C         -31.5819   47.9682  -13.3416 C.3     1  UNL1        0.0265
@<TRIPOS>BOND
     1    45    46    1
     2    46    29    1
     3    29    30   ar
     4    30    31   ar
     5    31    32   ar
     6    32    33   ar
     7    33    25    1
     8    25    26    2
     9    25    27   am
    10    27     1    1
    11     1     2   ar
    12     2     3   ar
    13     3     4   ar
    14     4     7    1
    15     7     8    1
    16     8     9    1
    17     9    10    1
    18    10    13    1
    19    13    14    1
    20    14    15    1
    21    15    16   ar
    22    16    17   ar
    23    17    18   ar
    24    18    19   ar
    25    19    21    1
    26    21    22    2
    27    21    23    1
    28    19    20   ar
    29    10    11    1
    30    11    12    1
    31     4     5   ar
    32     5     6   ar
    33    33    34   ar
    34    34    35    1
    35    34    36   ar
    36    36    37   ar
    37    37    38   ar
    38    38    39    1
    39    39    40   ar
    40    40    41   ar
    41    41    42   ar
    42    42    43   ar
    43    43    44   ar
    44    38    29   ar
    45    44    39   ar
    46    36    31   ar
    47     6     1   ar
    48    12     7    1
    49    20    15   ar
    50    27    28    1
    51    23    24    1
@<TRIPOS>MOLECULE
*****
 46 51 0 0 0
SMALL
GASTEIGER

@<TRIPOS>ATOM
      1 C         -25.6128   50.6653   -8.1950 C.ar    1  UNL1        0.0702
      2 C         -25.9155   50.9277   -9.5367 C.ar    1  UNL1        0.0191
      3 C         -24.9071   51.3013  -10.4259 C.ar    1  UNL1        0.0356
      4 C         -23.5860   51.4170   -9.9654 C.ar    1  UNL1        0.1318
      5 N         -23.3206   51.1960   -8.6479 N.ar    1  UNL1       -0.2279
      6 C         -24.2860   50.8285   -7.7644 C.ar    1  UNL1        0.1149
      7 N         -22.5221   51.8217  -10.8478 N.pl3   1  UNL1       -0.2932
      8 C         -21.4177   50.8865  -11.1093 C.3     1  UNL1        0.0923
      9 C         -20.2590   51.5718  -11.8499 C.3     1  UNL1        0.0252
     10 C         -20.0188   52.9783  -11.2710 C.3     1  UNL1        0.0472
     11 C         -21.2739   53.8811  -11.4235 C.3     1  UNL1        0.0252
     12 C         -22.5809   53.0880  -11.5915 C.3     1  UNL1        0.0923
     13 C         -18.7796   53.6253  -11.9182 C.3     1  UNL1        0.2054
     14 O         -17.5880   52.9209  -11.5642 O.3     1  UNL1       -0.4755
     15 C         -17.3132   52.3592  -10.3063 C.ar    1  UNL1        0.1388
     16 C         -16.1398   51.6295  -10.0376 C.ar    1  UNL1        0.0369
     17 C         -15.9222   51.0927   -8.7672 C.ar    1  UNL1        0.0033
     18 C         -16.8640   51.2787   -7.7533 C.ar    1  UNL1        0.0066
     19 C         -18.0389   52.0095   -8.0006 C.ar    1  UNL1        0.0785
     20 C         -18.2508   52.5469   -9.2827 C.ar    1  UNL1        0.0433
     21 C         -19.0407   52.2122   -6.9306 C.2     1  UNL1        0.3381
     22 O         -19.9268   53.1019   -7.0454 O.2     1  UNL1       -0.2451
     23 O         -19.0141   51.4212   -5.7848 O.3     1  UNL1       -0.4771
     24 H         -19.6951   51.5518   -5.0463 H       1  UNL1        0.2954
     25 C         -27.1239   48.9587   -7.0874 C.2     1  UNL1        0.2839
     26 O         -26.9880   48.1064   -8.0060 O.2     1  UNL1       -0.2665
     27 N         -26.6652   50.3046   -7.2839 N.am    1  UNL1       -0.2766
     28 H         -27.1995   51.0733   -6.8207 H       1  UNL1        0.1553
     29 C         -30.4849   46.6508   -2.7640 C.ar    1  UNL1       -0.0191
     30 C         -30.1265   46.5931   -4.1305 C.ar    1  UNL1        0.0332
     31 C         -29.1718   47.4850   -4.6052 C.ar    1  UNL1        0.1449
     32 O         -28.7142   47.5833   -5.8295 O.2     1  UNL1       -0.4492
     33 C         -27.8315   48.5663   -5.8559 C.ar    1  UNL1        0.1946
     34 C         -27.6944   49.1197   -4.5769 C.ar    1  UNL1        0.0202
     35 C         -26.7911   50.2299   -4.1316 C.3     1  UNL1        0.0345
     36 C         -28.5837   48.4127   -3.7925 C.ar    1  UNL1        0.0337
     37 C         -28.9109   48.5175   -2.4430 C.ar    1  UNL1        0.0025
     38 C         -29.8707   47.6267   -1.9151 C.ar    1  UNL1       -0.0038
     39 C         -30.2173   47.7464   -0.4853 C.ar    1  UNL1       -0.0003
     40 C         -30.0735   46.6411    0.3677 C.ar    1  UNL1       -0.0000
     41 C         -30.4186   46.7468    1.7186 C.ar    1  UNL1       -0.0000
     42 C         -30.9185   47.9517    2.2216 C.ar    1  UNL1       -0.0000
     43 C         -31.0780   49.0513    1.3733 C.ar    1  UNL1       -0.0000
     44 C         -30.7340   48.9493    0.0219 C.ar    1  UNL1       -0.0000
     45 C         -31.1044   44.2882   -2.2293 C.3     1  UNL1        0.0050
     46 C         -31.5826   45.7361   -2.2700 C.3     1  UNL1        0.0265
@<TRIPOS>BOND
     1    45    46    1
     2    46    29    1
     3    29    30   ar
     4    30    31   ar
     5    31    32   ar
     6    32    33   ar
     7    33    25    1
     8    25    26    2
     9    25    27   am
    10    27     1    1
    11     1     2   ar
    12     2     3   ar
    13     3     4   ar
    14     4     7    1
    15     7     8    1
    16     8     9    1
    17     9    10    1
    18    10    13    1
    19    13    14    1
    20    14    15    1
    21    15    16   ar
    22    16    17   ar
    23    17    18   ar
    24    18    19   ar
    25    19    21    1
    26    21    22    2
    27    21    23    1
    28    19    20   ar
    29    10    11    1
    30    11    12    1
    31     4     5   ar
    32     5     6   ar
    33    33    34   ar
    34    34    35    1
    35    34    36   ar
    36    36    37   ar
    37    37    38   ar
    38    38    39    1
    39    39    40   ar
    40    40    41   ar
    41    41    42   ar
    42    42    43   ar
    43    43    44   ar
    44    38    29   ar
    45    44    39   ar
    46    36    31   ar
    47     6     1   ar
    48    12     7    1
    49    20    15   ar
    50    27    28    1
    51    23    24    1
