@<TRIPOS>MOLECULE
*****
 47 51 0 0 0
SMALL
GASTEIGER

@<TRIPOS>ATOM
      1 N         -29.6618   47.3845   -8.5369 N.am    1  UNL1       -0.2679
      2 C         -30.0832   46.6642   -7.3658 C.2     1  UNL1        0.3081
      3 O         -30.5685   45.5057   -7.4840 O.2     1  UNL1       -0.2522
      4 N         -29.9288   47.2358   -6.0524 N.am    1  UNL1       -0.2544
      5 C         -30.1003   46.4535   -4.8389 C.3     1  UNL1        0.1264
      6 C         -29.5065   47.2960   -3.6982 C.3     1  UNL1        0.1294
      7 O         -30.3838   47.2655   -2.5960 O.3     1  UNL1       -0.3808
      8 C         -29.4617   48.7374   -4.2648 C.3     1  UNL1        0.0622
      9 C         -29.4992   48.6034   -5.7925 C.3     1  UNL1        0.1562
     10 H         -29.0700   48.2361   -8.4251 H       1  UNL1        0.1564
     11 H         -29.9950   47.8501   -1.8927 H       1  UNL1        0.2107
     12 C         -28.1277   46.7315   -3.3036 C.ar    1  UNL1        0.0310
     13 C         -26.9307   47.4343   -3.5743 C.ar    1  UNL1        0.0026
     14 C         -25.6871   46.8837   -3.2545 C.ar    1  UNL1        0.0295
     15 C         -25.6073   45.6129   -2.6876 C.ar    1  UNL1        0.1424
     16 F         -24.3983   45.0800   -2.3830 F       1  UNL1       -0.2041
     17 C         -26.7713   44.8818   -2.4548 C.ar    1  UNL1        0.0590
     18 C         -28.0213   45.4234   -2.7712 C.ar    1  UNL1        0.1406
     19 F         -29.1216   44.6523   -2.5789 F       1  UNL1       -0.2044
     20 C         -29.0412   46.2347  -10.6508 C.ar    1  UNL1        0.0898
     21 C         -29.3485   45.9406  -11.9931 C.ar    1  UNL1        0.0191
     22 C         -30.5647   46.3418  -12.5520 C.ar    1  UNL1        0.0580
     23 CL        -30.9325   45.9558  -14.2235 Cl      1  UNL1       -0.0822
     24 C         -31.4876   47.0480  -11.7811 C.ar    1  UNL1        0.0127
     25 C         -31.1951   47.3616  -10.4537 C.ar    1  UNL1        0.0158
     26 C         -29.9789   46.9610   -9.8730 C.ar    1  UNL1        0.0578
     27 O         -27.2235   46.3436   -9.1174 O.2     1  UNL1       -0.2450
     28 C         -27.7632   45.7387  -10.0831 C.2     1  UNL1        0.3393
     29 O         -27.1253   44.6280  -10.6289 O.3     1  UNL1       -0.4771
     30 H         -26.2489   44.2912  -10.2485 H       1  UNL1        0.2954
     31 C         -30.4575   49.5972   -6.4131 C.2     1  UNL1        0.2454
     32 O         -31.5839   49.7786   -5.8763 O.2     1  UNL1       -0.2730
     33 N         -30.1455   50.3019   -7.6255 N.am    1  UNL1       -0.2680
     34 H         -30.9474   50.6522   -8.1971 H       1  UNL1        0.1563
     35 C         -28.8144   50.5701   -8.0922 C.ar    1  UNL1        0.1346
     36 C         -28.1444   51.7231   -7.6654 C.ar    1  UNL1        0.0406
     37 C         -26.8452   51.9690   -8.1123 C.ar    1  UNL1        0.0736
     38 C         -26.2111   51.0572   -8.9688 C.ar    1  UNL1        0.2466
     39 C         -26.9122   49.9073   -9.3619 C.ar    1  UNL1        0.1691
     40 N         -28.1773   49.6920   -8.9152 N.ar    1  UNL1       -0.2228
     41 N         -24.8743   51.3069   -9.4483 N.am    1  UNL1       -0.0841
     42 C         -23.8584   51.4262   -8.5383 C.2     1  UNL1        0.2905
     43 C         -22.5511   51.6787   -8.9583 C.2     1  UNL1        0.0758
     44 C         -22.2820   51.8076  -10.3184 C.2     1  UNL1        0.0161
     45 C         -23.3167   51.6794  -11.2424 C.2     1  UNL1        0.1156
     46 C         -24.6168   51.4233  -10.7930 C.2     1  UNL1        0.4230
     47 O         -25.5409   51.2862  -11.6412 O.2     1  UNL1       -0.2135
@<TRIPOS>BOND
     1    27    28    2
     2    28    29    1
     3    28    20    1
     4    20    21   ar
     5    21    22   ar
     6    22    23    1
     7    22    24   ar
     8    24    25   ar
     9    25    26   ar
    10    26     1    1
    11     1     2   am
    12     2     3    2
    13     2     4   am
    14     4     5    1
    15     5     6    1
    16     6     7    1
    17     6    12    1
    18    12    13   ar
    19    13    14   ar
    20    14    15   ar
    21    15    16    1
    22    15    17   ar
    23    17    18   ar
    24    18    19    1
    25     6     8    1
    26     8     9    1
    27     9    31    1
    28    31    32    2
    29    31    33   am
    30    33    35    1
    31    35    36   ar
    32    36    37   ar
    33    37    38   ar
    34    38    41    1
    35    41    42    1
    36    42    43    2
    37    43    44    1
    38    44    45    2
    39    45    46    1
    40    46    47    2
    41    38    39   ar
    42    39    40   ar
    43    26    20   ar
    44     9     4    1
    45    40    35   ar
    46    18    12   ar
    47    46    41    1
    48    29    30    1
    49     1    10    1
    50     7    11    1
    51    33    34    1
@<TRIPOS>MOLECULE
*****
 47 51 0 0 0
SMALL
GASTEIGER

@<TRIPOS>ATOM
      1 N         -28.8560   48.7000  -10.2593 N.am    1  UNL1       -0.2679
      2 C         -29.5361   49.1415   -9.0718 C.2     1  UNL1        0.3081
      3 O         -30.6178   48.5906   -8.7283 O.2     1  UNL1       -0.2522
      4 N         -28.9813   50.1855   -8.2484 N.am    1  UNL1       -0.2544
      5 C         -29.4940   50.4839   -6.9210 C.3     1  UNL1        0.1264
      6 C         -28.4382   51.3729   -6.2436 C.3     1  UNL1        0.1294
      7 O         -29.0836   52.4443   -5.5948 O.3     1  UNL1       -0.3808
      8 C         -27.5931   51.9314   -7.4160 C.3     1  UNL1        0.0622
      9 C         -27.8111   50.9793   -8.5989 C.3     1  UNL1        0.1562
     10 H         -27.8698   48.9986  -10.4218 H       1  UNL1        0.1564
     11 H         -28.3761   53.0220   -5.2033 H       1  UNL1        0.2107
     12 C         -27.6333   50.5367   -5.2296 C.ar    1  UNL1        0.0310
     13 C         -27.9495   49.1844   -4.9628 C.ar    1  UNL1        0.0026
     14 C         -27.2402   48.4573   -4.0035 C.ar    1  UNL1        0.0295
     15 C         -26.2241   49.0675   -3.2702 C.ar    1  UNL1        0.1424
     16 F         -25.5413   48.3599   -2.3368 F       1  UNL1       -0.2041
     17 C         -25.9260   50.4128   -3.4827 C.ar    1  UNL1        0.0590
     18 C         -26.6297   51.1500   -4.4405 C.ar    1  UNL1        0.1406
     19 F         -26.3423   52.4699   -4.5721 F       1  UNL1       -0.2044
     20 C         -29.0735   46.4566  -11.3061 C.ar    1  UNL1        0.0898
     21 C         -29.6014   45.6597  -12.3400 C.ar    1  UNL1        0.0191
     22 C         -30.5017   46.1941  -13.2653 C.ar    1  UNL1        0.0580
     23 CL        -31.1560   45.1811  -14.5395 Cl      1  UNL1       -0.0822
     24 C         -30.8819   47.5329  -13.1757 C.ar    1  UNL1        0.0127
     25 C         -30.3585   48.3422  -12.1673 C.ar    1  UNL1        0.0158
     26 C         -29.4560   47.8200  -11.2241 C.ar    1  UNL1        0.0578
     27 O         -28.2620   46.1332   -9.0916 O.2     1  UNL1       -0.2450
     28 C         -28.1660   45.8321  -10.3122 C.2     1  UNL1        0.3393
     29 O         -27.1763   44.9390  -10.7143 O.3     1  UNL1       -0.4771
     30 H         -26.5503   44.5166  -10.0392 H       1  UNL1        0.2954
     31 C         -28.0407   51.7393   -9.8876 C.2     1  UNL1        0.2454
     32 O         -29.2003   52.1570  -10.1536 O.2     1  UNL1       -0.2730
     33 N         -26.9900   51.9540  -10.8434 N.am    1  UNL1       -0.2680
     34 H         -27.2710   52.1218  -11.8361 H       1  UNL1        0.1563
     35 C         -25.5900   51.9703  -10.5250 C.ar    1  UNL1        0.1346
     36 C         -24.7718   50.9053  -10.9210 C.ar    1  UNL1        0.0406
     37 C         -23.4092   50.9358  -10.6202 C.ar    1  UNL1        0.0736
     38 C         -22.8627   52.0347   -9.9414 C.ar    1  UNL1        0.2466
     39 C         -23.7144   53.0875   -9.5743 C.ar    1  UNL1        0.1691
     40 N         -25.0381   53.0328   -9.8763 N.ar    1  UNL1       -0.2228
     41 N         -21.4592   52.0716   -9.6128 N.am    1  UNL1       -0.0841
     42 C         -21.0909   52.3211   -8.3180 C.2     1  UNL1        0.2905
     43 C         -19.7430   52.3763   -7.9583 C.2     1  UNL1        0.0758
     44 C         -18.7664   52.1728   -8.9297 C.2     1  UNL1        0.0161
     45 C         -19.1443   51.9130  -10.2452 C.2     1  UNL1        0.1156
     46 C         -20.5027   51.8603  -10.5765 C.2     1  UNL1        0.4230
     47 O         -20.8321   51.6011  -11.7667 O.2     1  UNL1       -0.2135
@<TRIPOS>BOND
     1    27    28    2
     2    28    29    1
     3    28    20    1
     4    20    21   ar
     5    21    22   ar
     6    22    23    1
     7    22    24   ar
     8    24    25   ar
     9    25    26   ar
    10    26     1    1
    11     1     2   am
    12     2     3    2
    13     2     4   am
    14     4     5    1
    15     5     6    1
    16     6     7    1
    17     6    12    1
    18    12    13   ar
    19    13    14   ar
    20    14    15   ar
    21    15    16    1
    22    15    17   ar
    23    17    18   ar
    24    18    19    1
    25     6     8    1
    26     8     9    1
    27     9    31    1
    28    31    32    2
    29    31    33   am
    30    33    35    1
    31    35    36   ar
    32    36    37   ar
    33    37    38   ar
    34    38    41    1
    35    41    42    1
    36    42    43    2
    37    43    44    1
    38    44    45    2
    39    45    46    1
    40    46    47    2
    41    38    39   ar
    42    39    40   ar
    43    26    20   ar
    44     9     4    1
    45    40    35   ar
    46    18    12   ar
    47    46    41    1
    48    29    30    1
    49     1    10    1
    50     7    11    1
    51    33    34    1
@<TRIPOS>MOLECULE
*****
 47 51 0 0 0
SMALL
GASTEIGER

@<TRIPOS>ATOM
      1 N         -29.3848   47.8450   -9.2779 N.am    1  UNL1       -0.2679
      2 C         -29.8358   47.2694   -8.0397 C.2     1  UNL1        0.3081
      3 O         -30.4249   46.1538   -8.0457 O.2     1  UNL1       -0.2522
      4 N         -29.5953   47.9356   -6.7852 N.am    1  UNL1       -0.2544
      5 C         -29.8019   47.2794   -5.5043 C.3     1  UNL1        0.1264
      6 C         -29.1046   48.1597   -4.4543 C.3     1  UNL1        0.1294
      7 O         -29.9504   48.3038   -3.3366 O.3     1  UNL1       -0.3808
      8 C         -28.9480   49.5369   -5.1466 C.3     1  UNL1        0.0622
      9 C         -29.0393   49.2759   -6.6555 C.3     1  UNL1        0.1562
     10 H         -28.7171   48.6460   -9.2533 H       1  UNL1        0.1564
     11 H         -29.4921   48.9091   -2.6954 H       1  UNL1        0.2107
     12 C         -27.7708   47.5086   -4.0388 C.ar    1  UNL1        0.0310
     13 C         -27.3249   46.2950   -4.6116 C.ar    1  UNL1        0.0026
     14 C         -26.1375   45.6940   -4.1860 C.ar    1  UNL1        0.0295
     15 C         -25.3865   46.2709   -3.1634 C.ar    1  UNL1        0.1424
     16 F         -24.2372   45.6821   -2.7499 F       1  UNL1       -0.2041
     17 C         -25.8304   47.4423   -2.5514 C.ar    1  UNL1        0.0590
     18 C         -27.0175   48.0520   -2.9696 C.ar    1  UNL1        0.1406
     19 F         -27.4378   49.1592   -2.3064 F       1  UNL1       -0.2044
     20 C         -29.1016   46.2361  -11.1506 C.ar    1  UNL1        0.0898
     21 C         -29.4395   45.8464  -12.4608 C.ar    1  UNL1        0.0191
     22 C         -30.4339   46.5218  -13.1731 C.ar    1  UNL1        0.0580
     23 CL        -30.8472   46.0133  -14.8005 Cl      1  UNL1       -0.0822
     24 C         -31.0996   47.5997  -12.5901 C.ar    1  UNL1        0.0127
     25 C         -30.7687   48.0100  -11.2986 C.ar    1  UNL1        0.0158
     26 C         -29.7749   47.3386  -10.5649 C.ar    1  UNL1        0.0578
     27 O         -28.1973   44.2029  -10.3048 O.2     1  UNL1       -0.2450
     28 C         -28.0804   45.4538  -10.4112 C.2     1  UNL1        0.3393
     29 O         -27.0052   46.0890   -9.7955 O.3     1  UNL1       -0.4771
     30 H         -26.3103   45.5586   -9.2836 H       1  UNL1        0.2954
     31 C         -29.9226   50.2953   -7.3423 C.2     1  UNL1        0.2454
     32 O         -31.0866   50.4936   -6.9000 O.2     1  UNL1       -0.2730
     33 N         -29.4959   51.0064   -8.5153 N.am    1  UNL1       -0.2680
     34 H         -30.2399   51.3788   -9.1481 H       1  UNL1        0.1563
     35 C         -28.1253   51.2527   -8.8650 C.ar    1  UNL1        0.1346
     36 C         -27.5754   50.6474  -10.0015 C.ar    1  UNL1        0.0406
     37 C         -26.2464   50.9036  -10.3426 C.ar    1  UNL1        0.0736
     38 C         -25.4746   51.7752   -9.5606 C.ar    1  UNL1        0.2466
     39 C         -26.0674   52.3719   -8.4377 C.ar    1  UNL1        0.1691
     40 N         -27.3624   52.1041   -8.1252 N.ar    1  UNL1       -0.2228
     41 N         -24.0966   52.0371   -9.8948 N.am    1  UNL1       -0.0841
     42 C         -23.8140   52.6936  -11.0625 C.2     1  UNL1        0.2905
     43 C         -22.4933   52.9581  -11.4300 C.2     1  UNL1        0.0758
     44 C         -21.4558   52.5500  -10.5958 C.2     1  UNL1        0.0161
     45 C         -21.7467   51.8878   -9.4051 C.2     1  UNL1        0.1156
     46 C         -23.0798   51.6388   -9.0606 C.2     1  UNL1        0.4230
     47 O         -23.3310   51.0589   -7.9685 O.2     1  UNL1       -0.2135
@<TRIPOS>BOND
     1    27    28    2
     2    28    29    1
     3    28    20    1
     4    20    21   ar
     5    21    22   ar
     6    22    23    1
     7    22    24   ar
     8    24    25   ar
     9    25    26   ar
    10    26     1    1
    11     1     2   am
    12     2     3    2
    13     2     4   am
    14     4     5    1
    15     5     6    1
    16     6     7    1
    17     6    12    1
    18    12    13   ar
    19    13    14   ar
    20    14    15   ar
    21    15    16    1
    22    15    17   ar
    23    17    18   ar
    24    18    19    1
    25     6     8    1
    26     8     9    1
    27     9    31    1
    28    31    32    2
    29    31    33   am
    30    33    35    1
    31    35    36   ar
    32    36    37   ar
    33    37    38   ar
    34    38    41    1
    35    41    42    1
    36    42    43    2
    37    43    44    1
    38    44    45    2
    39    45    46    1
    40    46    47    2
    41    38    39   ar
    42    39    40   ar
    43    26    20   ar
    44     9     4    1
    45    40    35   ar
    46    18    12   ar
    47    46    41    1
    48    29    30    1
    49     1    10    1
    50     7    11    1
    51    33    34    1
@<TRIPOS>MOLECULE
*****
 47 51 0 0 0
SMALL
GASTEIGER

@<TRIPOS>ATOM
      1 N         -29.1049   47.9617   -9.5112 N.am    1  UNL1       -0.2679
      2 C         -29.6477   47.3785   -8.3141 C.2     1  UNL1        0.3081
      3 O         -30.2939   46.2971   -8.3818 O.2     1  UNL1       -0.2522
      4 N         -29.4357   47.9967   -7.0302 N.am    1  UNL1       -0.2544
      5 C         -29.7411   47.3186   -5.7809 C.3     1  UNL1        0.1264
      6 C         -29.0519   48.1312   -4.6725 C.3     1  UNL1        0.1294
      7 O         -29.9441   48.2910   -3.5937 O.3     1  UNL1       -0.3808
      8 C         -28.7879   49.5159   -5.3154 C.3     1  UNL1        0.0622
      9 C         -28.8167   49.3008   -6.8340 C.3     1  UNL1        0.1562
     10 H         -28.3977   48.7242   -9.4304 H       1  UNL1        0.1564
     11 H         -29.4874   48.8531   -2.9133 H       1  UNL1        0.2107
     12 C         -27.7772   47.3977   -4.2116 C.ar    1  UNL1        0.0310
     13 C         -27.3774   46.1685   -4.7854 C.ar    1  UNL1        0.0026
     14 C         -26.2462   45.4933   -4.3199 C.ar    1  UNL1        0.0295
     15 C         -25.5084   46.0106   -3.2566 C.ar    1  UNL1        0.1424
     16 F         -24.4140   45.3500   -2.8046 F       1  UNL1       -0.2041
     17 C         -25.9103   47.1970   -2.6444 C.ar    1  UNL1        0.0590
     18 C         -27.0410   47.8808   -3.1023 C.ar    1  UNL1        0.1406
     19 F         -27.4253   49.0010   -2.4391 F       1  UNL1       -0.2044
     20 C         -30.3053   48.2843  -11.6632 C.ar    1  UNL1        0.0898
     21 C         -30.7161   47.7529  -12.9007 C.ar    1  UNL1        0.0191
     22 C         -30.2840   46.4903  -13.3150 C.ar    1  UNL1        0.0580
     23 CL        -30.7991   45.8512  -14.8655 Cl      1  UNL1       -0.0822
     24 C         -29.4418   45.7381  -12.4967 C.ar    1  UNL1        0.0127
     25 C         -29.0357   46.2412  -11.2607 C.ar    1  UNL1        0.0158
     26 C         -29.4559   47.5120  -10.8302 C.ar    1  UNL1        0.0578
     27 O         -30.5788   50.6093  -12.0949 O.2     1  UNL1       -0.2450
     28 C         -30.7421   49.6524  -11.2904 C.2     1  UNL1        0.3393
     29 O         -31.3001   49.9056  -10.0401 O.3     1  UNL1       -0.4771
     30 H         -31.5925   50.8399   -9.7796 H       1  UNL1        0.2954
     31 C         -29.6090   50.3849   -7.5328 C.2     1  UNL1        0.2454
     32 O         -30.7773   50.6424   -7.1346 O.2     1  UNL1       -0.2730
     33 N         -29.0919   51.0938   -8.6702 N.am    1  UNL1       -0.2680
     34 H         -29.7852   51.5227   -9.3244 H       1  UNL1        0.1563
     35 C         -27.6955   51.2659   -8.9569 C.ar    1  UNL1        0.1346
     36 C         -27.0470   50.3794   -9.8252 C.ar    1  UNL1        0.0406
     37 C         -25.6929   50.5622  -10.1100 C.ar    1  UNL1        0.0736
     38 C         -24.9934   51.6374   -9.5429 C.ar    1  UNL1        0.2466
     39 C         -25.6835   52.5108   -8.6888 C.ar    1  UNL1        0.1691
     40 N         -27.0012   52.3096   -8.4251 N.ar    1  UNL1       -0.2228
     41 N         -23.5911   51.8290   -9.8186 N.am    1  UNL1       -0.0841
     42 C         -22.7021   51.7853   -8.7784 C.2     1  UNL1        0.2905
     43 C         -21.3367   51.9762   -8.9990 C.2     1  UNL1        0.0758
     44 C         -20.8787   52.2114  -10.2927 C.2     1  UNL1        0.0161
     45 C         -21.7850   52.2491  -11.3501 C.2     1  UNL1        0.1156
     46 C         -23.1473   52.0511  -11.1000 C.2     1  UNL1        0.4230
     47 O         -23.9551   52.0646  -12.0694 O.2     1  UNL1       -0.2135
@<TRIPOS>BOND
     1    27    28    2
     2    28    29    1
     3    28    20    1
     4    20    21   ar
     5    21    22   ar
     6    22    23    1
     7    22    24   ar
     8    24    25   ar
     9    25    26   ar
    10    26     1    1
    11     1     2   am
    12     2     3    2
    13     2     4   am
    14     4     5    1
    15     5     6    1
    16     6     7    1
    17     6    12    1
    18    12    13   ar
    19    13    14   ar
    20    14    15   ar
    21    15    16    1
    22    15    17   ar
    23    17    18   ar
    24    18    19    1
    25     6     8    1
    26     8     9    1
    27     9    31    1
    28    31    32    2
    29    31    33   am
    30    33    35    1
    31    35    36   ar
    32    36    37   ar
    33    37    38   ar
    34    38    41    1
    35    41    42    1
    36    42    43    2
    37    43    44    1
    38    44    45    2
    39    45    46    1
    40    46    47    2
    41    38    39   ar
    42    39    40   ar
    43    26    20   ar
    44     9     4    1
    45    40    35   ar
    46    18    12   ar
    47    46    41    1
    48    29    30    1
    49     1    10    1
    50     7    11    1
    51    33    34    1
@<TRIPOS>MOLECULE
*****
 47 51 0 0 0
SMALL
GASTEIGER

@<TRIPOS>ATOM
      1 N         -28.8108   48.8604  -10.3786 N.am    1  UNL1       -0.2679
      2 C         -29.4967   49.2645   -9.1810 C.2     1  UNL1        0.3081
      3 O         -30.5892   48.7160   -8.8697 O.2     1  UNL1       -0.2522
      4 N         -28.9359   50.2676   -8.3121 N.am    1  UNL1       -0.2544
      5 C         -29.4576   50.5210   -6.9789 C.3     1  UNL1        0.1264
      6 C         -28.3966   51.3678   -6.2572 C.3     1  UNL1        0.1294
      7 O         -29.0337   52.4220   -5.5729 O.3     1  UNL1       -0.3808
      8 C         -27.5322   51.9598   -7.3986 C.3     1  UNL1        0.0622
      9 C         -27.7515   51.0579   -8.6200 C.3     1  UNL1        0.1562
     10 H         -27.8191   49.1512  -10.5199 H       1  UNL1        0.1564
     11 H         -28.3222   52.9739   -5.1523 H       1  UNL1        0.2107
     12 C         -27.6134   50.4813   -5.2693 C.ar    1  UNL1        0.0310
     13 C         -27.9330   49.1169   -5.0793 C.ar    1  UNL1        0.0026
     14 C         -27.2445   48.3420   -4.1426 C.ar    1  UNL1        0.0295
     15 C         -26.2464   48.9146   -3.3561 C.ar    1  UNL1        0.1424
     16 F         -25.5837   48.1605   -2.4448 F       1  UNL1       -0.2041
     17 C         -25.9460   50.2692   -3.4926 C.ar    1  UNL1        0.0590
     18 C         -26.6291   51.0540   -4.4270 C.ar    1  UNL1        0.1406
     19 F         -26.3413   52.3792   -4.4843 F       1  UNL1       -0.2044
     20 C         -30.1451   48.5930  -12.4580 C.ar    1  UNL1        0.0898
     21 C         -30.8151   47.7375  -13.3536 C.ar    1  UNL1        0.0191
     22 C         -30.7506   46.3502  -13.2000 C.ar    1  UNL1        0.0580
     23 CL        -31.5838   45.3017  -14.3333 Cl      1  UNL1       -0.0822
     24 C         -30.0224   45.7980  -12.1465 C.ar    1  UNL1        0.0127
     25 C         -29.3641   46.6294  -11.2404 C.ar    1  UNL1        0.0158
     26 C         -29.4132   48.0274  -11.3828 C.ar    1  UNL1        0.0578
     27 O         -29.7303   50.5412  -13.7616 O.2     1  UNL1       -0.2450
     28 C         -30.1938   50.0571  -12.6936 C.2     1  UNL1        0.3393
     29 O         -30.7136   50.9164  -11.7293 O.3     1  UNL1       -0.4771
     30 H         -30.7415   51.9172  -11.8839 H       1  UNL1        0.2954
     31 C         -27.9578   51.8709   -9.8800 C.2     1  UNL1        0.2454
     32 O         -29.1078   52.3189  -10.1380 O.2     1  UNL1       -0.2730
     33 N         -26.8960   52.1039  -10.8192 N.am    1  UNL1       -0.2680
     34 H         -27.1662   52.3147  -11.8067 H       1  UNL1        0.1563
     35 C         -25.4985   52.0834  -10.4903 C.ar    1  UNL1        0.1346
     36 C         -24.7753   50.8886  -10.5910 C.ar    1  UNL1        0.0406
     37 C         -23.4139   50.8804  -10.2833 C.ar    1  UNL1        0.0736
     38 C         -22.7734   52.0655   -9.8932 C.ar    1  UNL1        0.2466
     39 C         -23.5310   53.2440   -9.8180 C.ar    1  UNL1        0.1691
     40 N         -24.8557   53.2253  -10.1201 N.ar    1  UNL1       -0.2228
     41 N         -21.3705   52.0671   -9.5596 N.am    1  UNL1       -0.0841
     42 C         -21.0005   52.3143   -8.2649 C.2     1  UNL1        0.2905
     43 C         -19.6529   52.3359   -7.9004 C.2     1  UNL1        0.0758
     44 C         -18.6785   52.1008   -8.8670 C.2     1  UNL1        0.0161
     45 C         -19.0584   51.8434  -10.1824 C.2     1  UNL1        0.1156
     46 C         -20.4165   51.8248  -10.5185 C.2     1  UNL1        0.4230
     47 O         -20.7484   51.5674  -11.7083 O.2     1  UNL1       -0.2135
@<TRIPOS>BOND
     1    27    28    2
     2    28    29    1
     3    28    20    1
     4    20    21   ar
     5    21    22   ar
     6    22    23    1
     7    22    24   ar
     8    24    25   ar
     9    25    26   ar
    10    26     1    1
    11     1     2   am
    12     2     3    2
    13     2     4   am
    14     4     5    1
    15     5     6    1
    16     6     7    1
    17     6    12    1
    18    12    13   ar
    19    13    14   ar
    20    14    15   ar
    21    15    16    1
    22    15    17   ar
    23    17    18   ar
    24    18    19    1
    25     6     8    1
    26     8     9    1
    27     9    31    1
    28    31    32    2
    29    31    33   am
    30    33    35    1
    31    35    36   ar
    32    36    37   ar
    33    37    38   ar
    34    38    41    1
    35    41    42    1
    36    42    43    2
    37    43    44    1
    38    44    45    2
    39    45    46    1
    40    46    47    2
    41    38    39   ar
    42    39    40   ar
    43    26    20   ar
    44     9     4    1
    45    40    35   ar
    46    18    12   ar
    47    46    41    1
    48    29    30    1
    49     1    10    1
    50     7    11    1
    51    33    34    1
@<TRIPOS>MOLECULE
*****
 47 51 0 0 0
SMALL
GASTEIGER

@<TRIPOS>ATOM
      1 N         -28.7173   48.0852   -5.7840 N.am    1  UNL1       -0.2679
      2 C         -28.5677   49.4779   -6.1093 C.2     1  UNL1        0.3081
      3 O         -28.3085   50.3097   -5.1969 O.2     1  UNL1       -0.2522
      4 N         -28.6780   49.9337   -7.4716 N.am    1  UNL1       -0.2544
      5 C         -28.2858   51.2736   -7.8772 C.3     1  UNL1        0.1264
      6 C         -28.2044   51.2502   -9.4123 C.3     1  UNL1        0.1294
      7 O         -28.8270   52.4051   -9.9259 O.3     1  UNL1       -0.3808
      8 C         -29.0329   50.0075   -9.8246 C.3     1  UNL1        0.0622
      9 C         -29.0926   49.0981   -8.5906 C.3     1  UNL1        0.1562
     10 H         -28.7141   47.3799   -6.5525 H       1  UNL1        0.1564
     11 H         -28.7957   52.3417  -10.9172 H       1  UNL1        0.2107
     12 C         -26.7276   51.1958   -9.8499 C.ar    1  UNL1        0.0310
     13 C         -25.6706   51.2884   -8.9151 C.ar    1  UNL1        0.0026
     14 C         -24.3382   51.2877   -9.3357 C.ar    1  UNL1        0.0295
     15 C         -24.0312   51.2254  -10.6938 C.ar    1  UNL1        0.1424
     16 F         -22.7371   51.2299  -11.0983 F       1  UNL1       -0.2041
     17 C         -25.0574   51.1809  -11.6366 C.ar    1  UNL1        0.0590
     18 C         -26.3944   51.1811  -11.2265 C.ar    1  UNL1        0.1406
     19 F         -27.3583   51.1936  -12.1820 F       1  UNL1       -0.2044
     20 C         -27.8884   46.6768   -3.9119 C.ar    1  UNL1        0.0898
     21 C         -28.0983   46.1435   -2.6257 C.ar    1  UNL1        0.0191
     22 C         -29.2042   46.5297   -1.8639 C.ar    1  UNL1        0.0580
     23 CL        -29.4415   45.8613   -0.2593 Cl      1  UNL1       -0.0822
     24 C         -30.1192   47.4479   -2.3781 C.ar    1  UNL1        0.0127
     25 C         -29.9363   47.9763   -3.6561 C.ar    1  UNL1        0.0158
     26 C         -28.8263   47.6035   -4.4345 C.ar    1  UNL1        0.0578
     27 O         -26.7211   46.1196   -5.9104 O.2     1  UNL1       -0.2450
     28 C         -26.6701   46.2820   -4.6611 C.2     1  UNL1        0.3393
     29 O         -25.4693   46.0491   -3.9958 O.3     1  UNL1       -0.4771
     30 H         -24.6376   45.7722   -4.5034 H       1  UNL1        0.2954
     31 C         -30.4876   48.5537   -8.3698 C.2     1  UNL1        0.2454
     32 O         -31.0603   48.7666   -7.2669 O.2     1  UNL1       -0.2730
     33 N         -31.1597   47.7562   -9.3577 N.am    1  UNL1       -0.2680
     34 H         -31.9087   47.1083   -9.0232 H       1  UNL1        0.1563
     35 C         -30.8848   47.8020  -10.7662 C.ar    1  UNL1        0.1346
     36 C         -30.0835   46.8152  -11.3533 C.ar    1  UNL1        0.0406
     37 C         -29.8330   46.8589  -12.7257 C.ar    1  UNL1        0.0736
     38 C         -30.3956   47.8750  -13.5118 C.ar    1  UNL1        0.2466
     39 C         -31.2038   48.8366  -12.8870 C.ar    1  UNL1        0.1691
     40 N         -31.4303   48.7738  -11.5486 N.ar    1  UNL1       -0.2228
     41 N         -30.1331   47.9387  -14.9282 N.am    1  UNL1       -0.0841
     42 C         -30.4568   46.8613  -15.7085 C.2     1  UNL1        0.2905
     43 C         -30.2099   46.8764  -17.0826 C.2     1  UNL1        0.0758
     44 C         -29.6302   48.0022  -17.6616 C.2     1  UNL1        0.0161
     45 C         -29.3077   49.0995  -16.8661 C.2     1  UNL1        0.1156
     46 C         -29.5692   49.0578  -15.4921 C.2     1  UNL1        0.4230
     47 O         -29.2939   50.0670  -14.7865 O.2     1  UNL1       -0.2135
@<TRIPOS>BOND
     1    27    28    2
     2    28    29    1
     3    28    20    1
     4    20    21   ar
     5    21    22   ar
     6    22    23    1
     7    22    24   ar
     8    24    25   ar
     9    25    26   ar
    10    26     1    1
    11     1     2   am
    12     2     3    2
    13     2     4   am
    14     4     5    1
    15     5     6    1
    16     6     7    1
    17     6    12    1
    18    12    13   ar
    19    13    14   ar
    20    14    15   ar
    21    15    16    1
    22    15    17   ar
    23    17    18   ar
    24    18    19    1
    25     6     8    1
    26     8     9    1
    27     9    31    1
    28    31    32    2
    29    31    33   am
    30    33    35    1
    31    35    36   ar
    32    36    37   ar
    33    37    38   ar
    34    38    41    1
    35    41    42    1
    36    42    43    2
    37    43    44    1
    38    44    45    2
    39    45    46    1
    40    46    47    2
    41    38    39   ar
    42    39    40   ar
    43    26    20   ar
    44     9     4    1
    45    40    35   ar
    46    18    12   ar
    47    46    41    1
    48    29    30    1
    49     1    10    1
    50     7    11    1
    51    33    34    1
