@<TRIPOS>MOLECULE
*****
 47 52 0 0 0
SMALL
GASTEIGER

@<TRIPOS>ATOM
      1 C          60.2266   85.9867    9.1677 C.ar    1  UNL1        0.1318
      2 C          60.1568   87.2932    8.6592 C.ar    1  UNL1        0.0356
      3 C          61.0241   88.2700    9.1503 C.ar    1  UNL1        0.0191
      4 C          61.9539   87.9522   10.1474 C.ar    1  UNL1        0.0702
      5 C          62.0205   86.6251   10.6017 C.ar    1  UNL1        0.1149
      6 N          61.1677   85.6894   10.1066 N.ar    1  UNL1       -0.2279
      7 C          58.3192   82.3384    8.7524 C.3     1  UNL1        0.0472
      8 C          59.5465   82.6261    7.8410 C.3     1  UNL1        0.0252
      9 C          59.7424   84.1162    7.5209 C.3     1  UNL1        0.0923
     10 N          59.3630   84.9462    8.6716 N.pl3   1  UNL1       -0.2932
     11 C          58.0197   84.7985    9.2495 C.3     1  UNL1        0.0923
     12 C          57.3263   83.5182    8.7591 C.3     1  UNL1        0.0252
     13 C          57.6487   81.0096    8.3476 C.3     1  UNL1        0.2054
     14 O          57.8517   79.9958    9.3357 O.3     1  UNL1       -0.4755
     15 C          61.0914   80.2617   11.1995 C.ar    1  UNL1        0.0105
     16 C          60.1783   80.2734   10.1351 C.ar    1  UNL1        0.0351
     17 C          58.8149   80.0015   10.3602 C.ar    1  UNL1        0.1385
     18 C          58.3819   79.7195   11.6608 C.ar    1  UNL1        0.0433
     19 C          59.2860   79.6899   12.7354 C.ar    1  UNL1        0.0782
     20 C          60.6442   79.9554   12.4930 C.ar    1  UNL1        0.0048
     21 C          58.8108   79.3764   14.1017 C.2     1  UNL1        0.3381
     22 O          58.5886   80.3016   14.9290 O.2     1  UNL1       -0.2451
     23 O          58.6038   78.0543   14.4870 O.3     1  UNL1       -0.4771
     24 H          58.2787   77.8288   15.4196 H       1  UNL1        0.2954
     25 C          62.5521   80.4978   10.9393 C.3     1  UNL1        0.1688
     26 C          63.7644   82.4550   10.9176 C.3     1  UNL1        0.1746
     27 O          62.7048   81.7516   10.3094 O.3     1  UNL1       -0.3463
     28 N          62.8575   88.9631   10.6265 N.am    1  UNL1       -0.2766
     29 C          62.6076   89.7844   11.7787 C.2     1  UNL1        0.2839
     30 O          61.4548   89.8318   12.2863 O.2     1  UNL1       -0.2665
     31 H          63.7068   89.1688   10.0529 H       1  UNL1        0.1553
     32 C          63.6956   90.6053   12.3432 C.ar    1  UNL1        0.1946
     33 O          64.0843   91.7486   11.8069 O.2     1  UNL1       -0.4492
     34 C          65.0628   92.2243   12.5375 C.ar    1  UNL1        0.1452
     35 C          65.7688   93.4052   12.3368 C.ar    1  UNL1        0.0375
     36 C          66.7900   93.7267   13.2475 C.ar    1  UNL1        0.0031
     37 C          67.0891   92.8682   14.3398 C.ar    1  UNL1        0.0002
     38 C          66.3457   91.6752   14.5083 C.ar    1  UNL1        0.0028
     39 C          65.3389   91.3876   13.5854 C.ar    1  UNL1        0.0337
     40 C          64.4620   90.3248   13.4800 C.ar    1  UNL1        0.0202
     41 C          64.3564   89.1343   14.3848 C.3     1  UNL1        0.0345
     42 C          68.1703   93.2183   15.2955 C.ar    1  UNL1        0.0000
     43 C          68.8921   92.2089   15.9608 C.ar    1  UNL1        0.0000
     44 C          69.9098   92.5415   16.8602 C.ar    1  UNL1        0.0000
     45 C          70.2190   93.8812   17.1048 C.ar    1  UNL1        0.0000
     46 C          69.5108   94.8918   16.4507 C.ar    1  UNL1        0.0000
     47 C          68.4914   94.5650   15.5510 C.ar    1  UNL1        0.0000
@<TRIPOS>BOND
     1    26    27    1
     2    27    25    1
     3    25    15    1
     4    15    16   ar
     5    16    17   ar
     6    17    14    1
     7    14    13    1
     8    13     7    1
     9     7     8    1
    10     8     9    1
    11     9    10    1
    12    10     1    1
    13     1     2   ar
    14     2     3   ar
    15     3     4   ar
    16     4    28    1
    17    28    29   am
    18    29    30    2
    19    29    32    1
    20    32    33   ar
    21    33    34   ar
    22    34    35   ar
    23    35    36   ar
    24    36    37   ar
    25    37    42    1
    26    42    43   ar
    27    43    44   ar
    28    44    45   ar
    29    45    46   ar
    30    46    47   ar
    31    37    38   ar
    32    38    39   ar
    33    39    40   ar
    34    40    41    1
    35     4     5   ar
    36     5     6   ar
    37    10    11    1
    38    11    12    1
    39    17    18   ar
    40    18    19   ar
    41    19    21    1
    42    21    22    2
    43    21    23    1
    44    19    20   ar
    45    20    15   ar
    46    12     7    1
    47     6     1   ar
    48    40    32   ar
    49    39    34   ar
    50    47    42   ar
    51    28    31    1
    52    23    24    1
@<TRIPOS>MOLECULE
*****
 47 52 0 0 0
SMALL
GASTEIGER

@<TRIPOS>ATOM
      1 C          61.0378   89.2460   11.8786 C.ar    1  UNL1        0.1318
      2 C          62.2445   89.1052   11.1754 C.ar    1  UNL1        0.0356
      3 C          62.2987   89.4533    9.8251 C.ar    1  UNL1        0.0191
      4 C          61.1568   89.9338    9.1731 C.ar    1  UNL1        0.0702
      5 C          59.9793   90.0986    9.9204 C.ar    1  UNL1        0.1149
      6 N          59.9506   89.7561   11.2356 N.ar    1  UNL1       -0.2279
      7 C          61.3859   87.1976   15.4568 C.3     1  UNL1        0.0472
      8 C          60.0276   87.1199   14.7027 C.3     1  UNL1        0.0252
      9 C          59.7167   88.3668   13.8601 C.3     1  UNL1        0.0923
     10 N          60.9475   88.9174   13.2780 N.pl3   1  UNL1       -0.2932
     11 C          62.0683   89.2602   14.1648 C.3     1  UNL1        0.0923
     12 C          61.8952   88.6493   15.5638 C.3     1  UNL1        0.0252
     13 C          61.2763   86.5113   16.8338 C.3     1  UNL1        0.2054
     14 O          61.7544   85.1642   16.7893 O.3     1  UNL1       -0.4755
     15 C          63.2803   83.0618   14.0892 C.ar    1  UNL1        0.0105
     16 C          62.3328   83.5589   14.9956 C.ar    1  UNL1        0.0351
     17 C          62.6586   84.6235   15.8580 C.ar    1  UNL1        0.1385
     18 C          63.9412   85.1803   15.7989 C.ar    1  UNL1        0.0433
     19 C          64.9062   84.6846   14.9067 C.ar    1  UNL1        0.0782
     20 C          64.5680   83.6167   14.0587 C.ar    1  UNL1        0.0048
     21 C          66.2616   85.2781   14.8686 C.2     1  UNL1        0.3381
     22 O          66.4367   86.4911   15.1646 O.2     1  UNL1       -0.2451
     23 O          67.3585   84.5008   14.5051 O.3     1  UNL1       -0.4771
     24 H          68.2904   84.8971   14.4759 H       1  UNL1        0.2954
     25 C          62.9400   81.8894   13.2134 C.3     1  UNL1        0.1688
     26 C          63.7001   82.5450   11.1414 C.3     1  UNL1        0.1746
     27 O          63.9643   81.7242   12.2566 O.3     1  UNL1       -0.3463
     28 N          61.2338   90.3114    7.7877 N.am    1  UNL1       -0.2766
     29 C          60.1308   90.2326    6.8703 C.2     1  UNL1        0.2839
     30 O          59.0947   89.5840    7.1777 O.2     1  UNL1       -0.2665
     31 H          62.1698   90.5791    7.4071 H       1  UNL1        0.1553
     32 C          60.2297   90.8801    5.5484 C.ar    1  UNL1        0.1946
     33 O          61.3777   91.0505    4.9169 O.2     1  UNL1       -0.4492
     34 C          61.1268   91.6528    3.7803 C.ar    1  UNL1        0.1452
     35 C          62.0428   92.0275    2.8036 C.ar    1  UNL1        0.0375
     36 C          61.5547   92.6695    1.6524 C.ar    1  UNL1        0.0031
     37 C          60.1658   92.9261    1.4947 C.ar    1  UNL1        0.0002
     38 C          59.2667   92.5277    2.5131 C.ar    1  UNL1        0.0028
     39 C          59.7859   91.8926    3.6423 C.ar    1  UNL1        0.0337
     40 C          59.1801   91.3993    4.7821 C.ar    1  UNL1        0.0202
     41 C          57.7201   91.4172    5.1214 C.3     1  UNL1        0.0345
     42 C          59.6618   93.6052    0.2741 C.ar    1  UNL1        0.0000
     43 C          60.5566   94.2065   -0.6316 C.ar    1  UNL1        0.0000
     44 C          60.0792   94.8452   -1.7802 C.ar    1  UNL1        0.0000
     45 C          58.7074   94.8906   -2.0383 C.ar    1  UNL1        0.0000
     46 C          57.8096   94.2974   -1.1479 C.ar    1  UNL1        0.0000
     47 C          58.2813   93.6581    0.0027 C.ar    1  UNL1        0.0000
@<TRIPOS>BOND
     1    26    27    1
     2    27    25    1
     3    25    15    1
     4    15    16   ar
     5    16    17   ar
     6    17    14    1
     7    14    13    1
     8    13     7    1
     9     7     8    1
    10     8     9    1
    11     9    10    1
    12    10     1    1
    13     1     2   ar
    14     2     3   ar
    15     3     4   ar
    16     4    28    1
    17    28    29   am
    18    29    30    2
    19    29    32    1
    20    32    33   ar
    21    33    34   ar
    22    34    35   ar
    23    35    36   ar
    24    36    37   ar
    25    37    42    1
    26    42    43   ar
    27    43    44   ar
    28    44    45   ar
    29    45    46   ar
    30    46    47   ar
    31    37    38   ar
    32    38    39   ar
    33    39    40   ar
    34    40    41    1
    35     4     5   ar
    36     5     6   ar
    37    10    11    1
    38    11    12    1
    39    17    18   ar
    40    18    19   ar
    41    19    21    1
    42    21    22    2
    43    21    23    1
    44    19    20   ar
    45    20    15   ar
    46    12     7    1
    47     6     1   ar
    48    40    32   ar
    49    39    34   ar
    50    47    42   ar
    51    28    31    1
    52    23    24    1
@<TRIPOS>MOLECULE
*****
 47 52 0 0 0
SMALL
GASTEIGER

@<TRIPOS>ATOM
      1 C          61.3558   89.3038   12.0921 C.ar    1  UNL1        0.1318
      2 C          62.4295   88.9380   11.2650 C.ar    1  UNL1        0.0356
      3 C          62.4005   89.2742    9.9109 C.ar    1  UNL1        0.0191
      4 C          61.3063   89.9660    9.3781 C.ar    1  UNL1        0.0702
      5 C          60.2706   90.3495   10.2453 C.ar    1  UNL1        0.1149
      6 N          60.3215   90.0140   11.5616 N.ar    1  UNL1       -0.2279
      7 C          61.8598   87.2664   15.6580 C.3     1  UNL1        0.0472
      8 C          60.4424   87.2725   15.0171 C.3     1  UNL1        0.0252
      9 C          60.1459   88.5303   14.1855 C.3     1  UNL1        0.0923
     10 N          61.3585   88.9934   13.4986 N.pl3   1  UNL1       -0.2932
     11 C          62.5678   89.2686   14.2872 C.3     1  UNL1        0.0923
     12 C          62.4698   88.6820   15.7038 C.3     1  UNL1        0.0252
     13 C          61.8182   86.6002   17.0485 C.3     1  UNL1        0.2054
     14 O          62.0859   85.1977   16.9678 O.3     1  UNL1       -0.4755
     15 C          61.7233   84.0055   13.4341 C.ar    1  UNL1        0.0105
     16 C          61.6096   84.8239   14.5673 C.ar    1  UNL1        0.0351
     17 C          62.1680   84.4237   15.7966 C.ar    1  UNL1        0.1385
     18 C          62.8390   83.1979   15.8736 C.ar    1  UNL1        0.0433
     19 C          62.9493   82.3602   14.7514 C.ar    1  UNL1        0.0782
     20 C          62.3797   82.7702   13.5343 C.ar    1  UNL1        0.0048
     21 C          63.6512   81.0613   14.8562 C.2     1  UNL1        0.3381
     22 O          63.9616   80.4170   13.8178 O.2     1  UNL1       -0.2451
     23 O          63.9764   80.5377   16.1050 O.3     1  UNL1       -0.4771
     24 H          64.4567   79.6497   16.1879 H       1  UNL1        0.2954
     25 C          61.0755   84.4164   12.1423 C.3     1  UNL1        0.1688
     26 C          62.2981   85.3892   10.4512 C.3     1  UNL1        0.1746
     27 O          61.6732   85.6141   11.6947 O.3     1  UNL1       -0.3463
     28 N          61.3014   90.3268    7.9861 N.am    1  UNL1       -0.2766
     29 C          60.1672   90.1685    7.1182 C.2     1  UNL1        0.2839
     30 O          59.1863   89.4635    7.4782 O.2     1  UNL1       -0.2665
     31 H          62.2025   90.6445    7.5620 H       1  UNL1        0.1553
     32 C          60.1705   90.8010    5.7855 C.ar    1  UNL1        0.1946
     33 O          61.2815   91.1019    5.1367 O.2     1  UNL1       -0.4492
     34 C          60.9453   91.6493    3.9944 C.ar    1  UNL1        0.1452
     35 C          61.7970   92.1183    3.0003 C.ar    1  UNL1        0.0375
     36 C          61.2204   92.6755    1.8459 C.ar    1  UNL1        0.0031
     37 C          59.8088   92.7553    1.7023 C.ar    1  UNL1        0.0002
     38 C          58.9773   92.2656    2.7381 C.ar    1  UNL1        0.0028
     39 C          59.5836   91.7187    3.8701 C.ar    1  UNL1        0.0337
     40 C          59.0562   91.1732    5.0250 C.ar    1  UNL1        0.0202
     41 C          57.6091   91.0157    5.3829 C.3     1  UNL1        0.0345
     42 C          59.2111   93.3462    0.4781 C.ar    1  UNL1        0.0000
     43 C          59.9004   94.3352   -0.2493 C.ar    1  UNL1        0.0000
     44 C          59.3351   94.8898   -1.4017 C.ar    1  UNL1        0.0000
     45 C          58.0795   94.4646   -1.8412 C.ar    1  UNL1        0.0000
     46 C          57.3859   93.4839   -1.1287 C.ar    1  UNL1        0.0000
     47 C          57.9459   92.9264    0.0249 C.ar    1  UNL1        0.0000
@<TRIPOS>BOND
     1    26    27    1
     2    27    25    1
     3    25    15    1
     4    15    16   ar
     5    16    17   ar
     6    17    14    1
     7    14    13    1
     8    13     7    1
     9     7     8    1
    10     8     9    1
    11     9    10    1
    12    10     1    1
    13     1     2   ar
    14     2     3   ar
    15     3     4   ar
    16     4    28    1
    17    28    29   am
    18    29    30    2
    19    29    32    1
    20    32    33   ar
    21    33    34   ar
    22    34    35   ar
    23    35    36   ar
    24    36    37   ar
    25    37    42    1
    26    42    43   ar
    27    43    44   ar
    28    44    45   ar
    29    45    46   ar
    30    46    47   ar
    31    37    38   ar
    32    38    39   ar
    33    39    40   ar
    34    40    41    1
    35     4     5   ar
    36     5     6   ar
    37    10    11    1
    38    11    12    1
    39    17    18   ar
    40    18    19   ar
    41    19    21    1
    42    21    22    2
    43    21    23    1
    44    19    20   ar
    45    20    15   ar
    46    12     7    1
    47     6     1   ar
    48    40    32   ar
    49    39    34   ar
    50    47    42   ar
    51    28    31    1
    52    23    24    1
@<TRIPOS>MOLECULE
*****
 47 52 0 0 0
SMALL
GASTEIGER

@<TRIPOS>ATOM
      1 C          60.2075   86.2301    9.0713 C.ar    1  UNL1        0.1318
      2 C          60.0701   87.5710    8.6791 C.ar    1  UNL1        0.0356
      3 C          60.9394   88.5319    9.1973 C.ar    1  UNL1        0.0191
      4 C          61.9380   88.1640   10.1067 C.ar    1  UNL1        0.0702
      5 C          62.0693   86.8071   10.4434 C.ar    1  UNL1        0.1149
      6 N          61.2133   85.8878    9.9238 N.ar    1  UNL1       -0.2279
      7 C          58.2856   82.6028    8.5520 C.3     1  UNL1        0.0472
      8 C          59.5232   82.9053    7.6594 C.3     1  UNL1        0.0252
      9 C          59.7298   84.4015    7.3764 C.3     1  UNL1        0.0923
     10 N          59.3434   85.2063    8.5425 N.pl3   1  UNL1       -0.2932
     11 C          57.9939   85.0522    9.1038 C.3     1  UNL1        0.0923
     12 C          57.2987   83.7875    8.5768 C.3     1  UNL1        0.0252
     13 C          57.6123   81.2875    8.1095 C.3     1  UNL1        0.2054
     14 O          57.6667   80.2967    9.1394 O.3     1  UNL1       -0.4755
     15 C          59.5260   79.8845   12.3663 C.ar    1  UNL1        0.0105
     16 C          58.4591   80.0569   11.4725 C.ar    1  UNL1        0.0351
     17 C          58.6926   80.1230   10.0853 C.ar    1  UNL1        0.1385
     18 C          60.0041   80.0142    9.6090 C.ar    1  UNL1        0.0433
     19 C          61.0851   79.8555   10.4918 C.ar    1  UNL1        0.0782
     20 C          60.8362   79.7995   11.8734 C.ar    1  UNL1        0.0048
     21 C          62.4663   79.7557    9.9694 C.2     1  UNL1        0.3381
     22 O          63.3113   80.6573   10.2204 O.2     1  UNL1       -0.2451
     23 O          62.8467   78.6629    9.1944 O.3     1  UNL1       -0.4771
     24 H          63.7895   78.5849    8.8321 H       1  UNL1        0.2954
     25 C          59.2715   79.8716   13.8469 C.3     1  UNL1        0.1688
     26 C          61.1366   81.1367   14.3174 C.3     1  UNL1        0.1746
     27 O          59.7301   81.0874   14.3977 O.3     1  UNL1       -0.3463
     28 N          62.8417   89.1611   10.6136 N.am    1  UNL1       -0.2766
     29 C          62.6415   89.8773   11.8432 C.2     1  UNL1        0.2839
     30 O          61.5216   89.8458   12.4207 O.2     1  UNL1       -0.2665
     31 H          63.6478   89.4402   10.0095 H       1  UNL1        0.1553
     32 C          63.7397   90.6841   12.4082 C.ar    1  UNL1        0.1946
     33 O          64.1296   91.8326   11.8840 O.2     1  UNL1       -0.4492
     34 C          65.1179   92.2926   12.6115 C.ar    1  UNL1        0.1452
     35 C          65.8286   93.4723   12.4202 C.ar    1  UNL1        0.0375
     36 C          66.8605   93.7754   13.3251 C.ar    1  UNL1        0.0031
     37 C          67.1654   92.9000   14.4023 C.ar    1  UNL1        0.0002
     38 C          66.4170   91.7090   14.5616 C.ar    1  UNL1        0.0028
     39 C          65.3995   91.4398   13.6448 C.ar    1  UNL1        0.0337
     40 C          64.5157   90.3834   13.5333 C.ar    1  UNL1        0.0202
     41 C          64.4122   89.1810   14.4224 C.3     1  UNL1        0.0345
     42 C          68.2580   93.2307   15.3520 C.ar    1  UNL1        0.0000
     43 C          68.9860   92.2081   15.9897 C.ar    1  UNL1        0.0000
     44 C          70.0144   92.5224   16.8836 C.ar    1  UNL1        0.0000
     45 C          70.3282   93.8569   17.1500 C.ar    1  UNL1        0.0000
     46 C          69.6138   94.8805   16.5235 C.ar    1  UNL1        0.0000
     47 C          68.5838   94.5720   15.6294 C.ar    1  UNL1        0.0000
@<TRIPOS>BOND
     1    26    27    1
     2    27    25    1
     3    25    15    1
     4    15    16   ar
     5    16    17   ar
     6    17    14    1
     7    14    13    1
     8    13     7    1
     9     7     8    1
    10     8     9    1
    11     9    10    1
    12    10     1    1
    13     1     2   ar
    14     2     3   ar
    15     3     4   ar
    16     4    28    1
    17    28    29   am
    18    29    30    2
    19    29    32    1
    20    32    33   ar
    21    33    34   ar
    22    34    35   ar
    23    35    36   ar
    24    36    37   ar
    25    37    42    1
    26    42    43   ar
    27    43    44   ar
    28    44    45   ar
    29    45    46   ar
    30    46    47   ar
    31    37    38   ar
    32    38    39   ar
    33    39    40   ar
    34    40    41    1
    35     4     5   ar
    36     5     6   ar
    37    10    11    1
    38    11    12    1
    39    17    18   ar
    40    18    19   ar
    41    19    21    1
    42    21    22    2
    43    21    23    1
    44    19    20   ar
    45    20    15   ar
    46    12     7    1
    47     6     1   ar
    48    40    32   ar
    49    39    34   ar
    50    47    42   ar
    51    28    31    1
    52    23    24    1
@<TRIPOS>MOLECULE
*****
 47 52 0 0 0
SMALL
GASTEIGER

@<TRIPOS>ATOM
      1 C          59.5663   88.1583   10.5053 C.ar    1  UNL1        0.1318
      2 C          60.2203   89.3978   10.4241 C.ar    1  UNL1        0.0356
      3 C          60.5121   89.9412    9.1723 C.ar    1  UNL1        0.0191
      4 C          60.1613   89.2533    8.0045 C.ar    1  UNL1        0.0702
      5 C          59.4725   88.0358    8.1267 C.ar    1  UNL1        0.1149
      6 N          59.1958   87.5271    9.3565 N.ar    1  UNL1       -0.2279
      7 C          59.9094   86.6583   14.3463 C.3     1  UNL1        0.0472
      8 C          59.9011   85.6442   13.1667 C.3     1  UNL1        0.0252
      9 C          59.0977   86.1220   11.9470 C.3     1  UNL1        0.0923
     10 N          59.2293   87.5750   11.7784 N.pl3   1  UNL1       -0.2932
     11 C          58.8851   88.4604   12.8998 C.3     1  UNL1        0.0923
     12 C          58.7664   87.6860   14.2214 C.3     1  UNL1        0.0252
     13 C          59.8832   85.9128   15.6963 C.3     1  UNL1        0.2054
     14 O          61.0627   86.1714   16.4627 O.3     1  UNL1       -0.4755
     15 C          63.8005   88.5170   15.4416 C.ar    1  UNL1        0.0105
     16 C          62.5672   88.0647   15.9328 C.ar    1  UNL1        0.0351
     17 C          62.2801   86.6870   15.9836 C.ar    1  UNL1        0.1385
     18 C          63.2420   85.7734   15.5375 C.ar    1  UNL1        0.0433
     19 C          64.4764   86.2108   15.0294 C.ar    1  UNL1        0.0782
     20 C          64.7442   87.5890   14.9779 C.ar    1  UNL1        0.0048
     21 C          65.4754   85.2296   14.5499 C.2     1  UNL1        0.3381
     22 O          65.1312   84.2896   13.7833 O.2     1  UNL1       -0.2451
     23 O          66.8077   85.3357   14.9414 O.3     1  UNL1       -0.4771
     24 H          67.4994   84.6696   14.6189 H       1  UNL1        0.2954
     25 C          64.0741   89.9908   15.3398 C.3     1  UNL1        0.1688
     26 C          64.3142   91.4889   13.6081 C.3     1  UNL1        0.1746
     27 O          63.4924   90.4801   14.1506 O.3     1  UNL1       -0.3463
     28 N          60.4467   89.8369    6.7216 N.am    1  UNL1       -0.2766
     29 C          59.4892   90.5709    5.9411 C.2     1  UNL1        0.2839
     30 O          58.2638   90.5244    6.2325 O.2     1  UNL1       -0.2665
     31 H          61.3813   89.6432    6.2954 H       1  UNL1        0.1553
     32 C          59.9395   91.3481    4.7709 C.ar    1  UNL1        0.1946
     33 O          59.1555   92.1939    4.1263 O.2     1  UNL1       -0.4492
     34 C          59.8476   92.7159    3.1434 C.ar    1  UNL1        0.1452
     35 C          59.4152   93.6522    2.2109 C.ar    1  UNL1        0.0375
     36 C          60.3286   94.0789    1.2315 C.ar    1  UNL1        0.0031
     37 C          61.6537   93.5666    1.1985 C.ar    1  UNL1        0.0002
     38 C          62.0539   92.6147    2.1670 C.ar    1  UNL1        0.0028
     39 C          61.1212   92.2138    3.1249 C.ar    1  UNL1        0.0337
     40 C          61.2055   91.3196    4.1750 C.ar    1  UNL1        0.0202
     41 C          62.3921   90.5002    4.5842 C.3     1  UNL1        0.0345
     42 C          62.6099   94.0248    0.1589 C.ar    1  UNL1        0.0000
     43 C          63.9950   94.0285    0.4120 C.ar    1  UNL1        0.0000
     44 C          64.8931   94.4605   -0.5688 C.ar    1  UNL1        0.0000
     45 C          64.4212   94.8915   -1.8106 C.ar    1  UNL1        0.0000
     46 C          63.0496   94.8921   -2.0742 C.ar    1  UNL1        0.0000
     47 C          62.1469   94.4621   -1.0968 C.ar    1  UNL1        0.0000
@<TRIPOS>BOND
     1    26    27    1
     2    27    25    1
     3    25    15    1
     4    15    16   ar
     5    16    17   ar
     6    17    14    1
     7    14    13    1
     8    13     7    1
     9     7     8    1
    10     8     9    1
    11     9    10    1
    12    10     1    1
    13     1     2   ar
    14     2     3   ar
    15     3     4   ar
    16     4    28    1
    17    28    29   am
    18    29    30    2
    19    29    32    1
    20    32    33   ar
    21    33    34   ar
    22    34    35   ar
    23    35    36   ar
    24    36    37   ar
    25    37    42    1
    26    42    43   ar
    27    43    44   ar
    28    44    45   ar
    29    45    46   ar
    30    46    47   ar
    31    37    38   ar
    32    38    39   ar
    33    39    40   ar
    34    40    41    1
    35     4     5   ar
    36     5     6   ar
    37    10    11    1
    38    11    12    1
    39    17    18   ar
    40    18    19   ar
    41    19    21    1
    42    21    22    2
    43    21    23    1
    44    19    20   ar
    45    20    15   ar
    46    12     7    1
    47     6     1   ar
    48    40    32   ar
    49    39    34   ar
    50    47    42   ar
    51    28    31    1
    52    23    24    1
@<TRIPOS>MOLECULE
*****
 47 52 0 0 0
SMALL
GASTEIGER

@<TRIPOS>ATOM
      1 C          61.2888   87.5753   11.1754 C.ar    1  UNL1        0.1318
      2 C          61.4837   88.9458   10.9425 C.ar    1  UNL1        0.0356
      3 C          61.3461   89.4503    9.6487 C.ar    1  UNL1        0.0191
      4 C          61.0221   88.5959    8.5881 C.ar    1  UNL1        0.0702
      5 C          60.7955   87.2386    8.8678 C.ar    1  UNL1        0.1149
      6 N          60.9320   86.7698   10.1364 N.ar    1  UNL1       -0.2279
      7 C          62.0325   84.9315   14.2703 C.3     1  UNL1        0.0472
      8 C          60.5669   85.0706   13.7680 C.3     1  UNL1        0.0252
      9 C          60.2380   86.4598   13.1993 C.3     1  UNL1        0.0923
     10 N          61.4013   87.0205   12.4999 N.pl3   1  UNL1       -0.2932
     11 C          62.6803   87.1350   13.2147 C.3     1  UNL1        0.0923
     12 C          62.6852   86.3080   14.5096 C.3     1  UNL1        0.0252
     13 C          62.0890   84.0301   15.5206 C.3     1  UNL1        0.2054
     14 O          62.3834   82.6732   15.1777 O.3     1  UNL1       -0.4755
     15 C          62.2368   81.4127   11.6522 C.ar    1  UNL1        0.0105
     16 C          62.6795   82.1110   12.7849 C.ar    1  UNL1        0.0351
     17 C          61.9912   81.9977   14.0083 C.ar    1  UNL1        0.1385
     18 C          60.8588   81.1785   14.0800 C.ar    1  UNL1        0.0433
     19 C          60.3942   80.4837   12.9510 C.ar    1  UNL1        0.0782
     20 C          61.0873   80.6136   11.7359 C.ar    1  UNL1        0.0048
     21 C          59.1867   79.6327   13.0436 C.2     1  UNL1        0.3381
     22 O          58.8630   79.0995   14.1394 O.2     1  UNL1       -0.2451
     23 O          58.3949   79.4126   11.9192 O.3     1  UNL1       -0.4771
     24 H          57.5665   78.8320   11.9718 H       1  UNL1        0.2954
     25 C          62.9455   81.5848   10.3386 C.3     1  UNL1        0.1688
     26 C          63.5909   83.7056    9.7170 C.3     1  UNL1        0.1746
     27 O          63.9396   82.5759   10.4848 O.3     1  UNL1       -0.3463
     28 N          60.8599   89.1340    7.2645 N.am    1  UNL1       -0.2766
     29 C          59.9673   90.2118    6.9384 C.2     1  UNL1        0.2839
     30 O          59.0859   90.5770    7.7620 O.2     1  UNL1       -0.2665
     31 H          61.3589   88.6564    6.4799 H       1  UNL1        0.1553
     32 C          60.0585   90.8647    5.6187 C.ar    1  UNL1        0.1946
     33 O          61.2069   91.0769    5.0008 O.2     1  UNL1       -0.4492
     34 C          60.9479   91.6719    3.8622 C.ar    1  UNL1        0.1452
     35 C          61.8613   92.0806    2.8967 C.ar    1  UNL1        0.0375
     36 C          61.3641   92.7068    1.7408 C.ar    1  UNL1        0.0031
     37 C          59.9689   92.9142    1.5673 C.ar    1  UNL1        0.0002
     38 C          59.0728   92.4823    2.5745 C.ar    1  UNL1        0.0028
     39 C          59.6011   91.8640    3.7088 C.ar    1  UNL1        0.0337
     40 C          59.0000   91.3475    4.8408 C.ar    1  UNL1        0.0202
     41 C          57.5365   91.3129    5.1632 C.3     1  UNL1        0.0345
     42 C          59.4553   93.5770    0.3418 C.ar    1  UNL1        0.0000
     43 C          60.3302   94.2669   -0.5191 C.ar    1  UNL1        0.0000
     44 C          59.8437   94.8901   -1.6724 C.ar    1  UNL1        0.0000
     45 C          58.4827   94.8317   -1.9800 C.ar    1  UNL1        0.0000
     46 C          57.6047   94.1500   -1.1344 C.ar    1  UNL1        0.0000
     47 C          58.0854   93.5257    0.0208 C.ar    1  UNL1        0.0000
@<TRIPOS>BOND
     1    26    27    1
     2    27    25    1
     3    25    15    1
     4    15    16   ar
     5    16    17   ar
     6    17    14    1
     7    14    13    1
     8    13     7    1
     9     7     8    1
    10     8     9    1
    11     9    10    1
    12    10     1    1
    13     1     2   ar
    14     2     3   ar
    15     3     4   ar
    16     4    28    1
    17    28    29   am
    18    29    30    2
    19    29    32    1
    20    32    33   ar
    21    33    34   ar
    22    34    35   ar
    23    35    36   ar
    24    36    37   ar
    25    37    42    1
    26    42    43   ar
    27    43    44   ar
    28    44    45   ar
    29    45    46   ar
    30    46    47   ar
    31    37    38   ar
    32    38    39   ar
    33    39    40   ar
    34    40    41    1
    35     4     5   ar
    36     5     6   ar
    37    10    11    1
    38    11    12    1
    39    17    18   ar
    40    18    19   ar
    41    19    21    1
    42    21    22    2
    43    21    23    1
    44    19    20   ar
    45    20    15   ar
    46    12     7    1
    47     6     1   ar
    48    40    32   ar
    49    39    34   ar
    50    47    42   ar
    51    28    31    1
    52    23    24    1
@<TRIPOS>MOLECULE
*****
 47 52 0 0 0
SMALL
GASTEIGER

@<TRIPOS>ATOM
      1 C          59.0677   86.8548    9.3711 C.ar    1  UNL1        0.1318
      2 C          59.7664   88.0670    9.4848 C.ar    1  UNL1        0.0356
      3 C          60.0087   88.8314    8.3427 C.ar    1  UNL1        0.0191
      4 C          59.5642   88.3908    7.0905 C.ar    1  UNL1        0.0702
      5 C          58.8339   87.1932    7.0232 C.ar    1  UNL1        0.1149
      6 N          58.6069   86.4666    8.1494 N.ar    1  UNL1       -0.2279
      7 C          59.1572   83.7601   12.1162 C.3     1  UNL1        0.0472
      8 C          58.0276   83.7521   11.0467 C.3     1  UNL1        0.0252
      9 C          57.6154   85.1546   10.5731 C.3     1  UNL1        0.0923
     10 N          58.7799   86.0484   10.5293 N.pl3   1  UNL1       -0.2932
     11 C          59.5968   86.2205   11.7389 C.3     1  UNL1        0.0923
     12 C          59.2939   85.1408   12.7892 C.3     1  UNL1        0.0252
     13 C          58.9362   82.6278   13.1399 C.3     1  UNL1        0.2054
     14 O          60.1771   82.0976   13.6136 O.3     1  UNL1       -0.4755
     15 C          63.4487   83.8406   14.1597 C.ar    1  UNL1        0.0105
     16 C          62.1762   83.3132   14.4228 C.ar    1  UNL1        0.0351
     17 C          61.4565   82.6457   13.4131 C.ar    1  UNL1        0.1385
     18 C          62.0276   82.5147   12.1421 C.ar    1  UNL1        0.0433
     19 C          63.2951   83.0497   11.8583 C.ar    1  UNL1        0.0782
     20 C          63.9967   83.7198   12.8744 C.ar    1  UNL1        0.0048
     21 C          63.8765   82.9125   10.5041 C.2     1  UNL1        0.3381
     22 O          64.9405   82.2592   10.3286 O.2     1  UNL1       -0.2451
     23 O          63.2525   83.5045    9.4088 O.3     1  UNL1       -0.4771
     24 H          63.6420   83.4166    8.4778 H       1  UNL1        0.2954
     25 C          64.1835   84.5994   15.2281 C.3     1  UNL1        0.1688
     26 C          64.4603   86.8749   15.0136 C.3     1  UNL1        0.1746
     27 O          63.5653   85.8565   15.3998 O.3     1  UNL1       -0.3463
     28 N          59.8000   89.2007    5.9259 N.am    1  UNL1       -0.2766
     29 C          59.4421   90.5888    5.8259 C.2     1  UNL1        0.2839
     30 O          58.6667   91.1069    6.6738 O.2     1  UNL1       -0.2665
     31 H          60.1776   88.7292    5.0728 H       1  UNL1        0.1553
     32 C          59.9530   91.3980    4.7032 C.ar    1  UNL1        0.1946
     33 O          59.2663   92.3883    4.1615 O.2     1  UNL1       -0.4492
     34 C          59.9893   92.8985    3.1948 C.ar    1  UNL1        0.1452
     35 C          59.6538   93.9576    2.3587 C.ar    1  UNL1        0.0375
     36 C          60.5837   94.3452    1.3786 C.ar    1  UNL1        0.0031
     37 C          61.8288   93.6724    1.2490 C.ar    1  UNL1        0.0002
     38 C          62.1314   92.5990    2.1211 C.ar    1  UNL1        0.0028
     39 C          61.1851   92.2412    3.0826 C.ar    1  UNL1        0.0337
     40 C          61.1848   91.2583    4.0539 C.ar    1  UNL1        0.0202
     41 C          62.2664   90.2625    4.3462 C.3     1  UNL1        0.0345
     42 C          62.8033   94.0906    0.2096 C.ar    1  UNL1        0.0000
     43 C          62.3727   94.3850   -1.0982 C.ar    1  UNL1        0.0000
     44 C          63.2926   94.7786   -2.0750 C.ar    1  UNL1        0.0000
     45 C          64.6489   94.8838   -1.7589 C.ar    1  UNL1        0.0000
     46 C          65.0885   94.5951   -0.4651 C.ar    1  UNL1        0.0000
     47 C          64.1732   94.2001    0.5155 C.ar    1  UNL1        0.0000
@<TRIPOS>BOND
     1    26    27    1
     2    27    25    1
     3    25    15    1
     4    15    16   ar
     5    16    17   ar
     6    17    14    1
     7    14    13    1
     8    13     7    1
     9     7     8    1
    10     8     9    1
    11     9    10    1
    12    10     1    1
    13     1     2   ar
    14     2     3   ar
    15     3     4   ar
    16     4    28    1
    17    28    29   am
    18    29    30    2
    19    29    32    1
    20    32    33   ar
    21    33    34   ar
    22    34    35   ar
    23    35    36   ar
    24    36    37   ar
    25    37    42    1
    26    42    43   ar
    27    43    44   ar
    28    44    45   ar
    29    45    46   ar
    30    46    47   ar
    31    37    38   ar
    32    38    39   ar
    33    39    40   ar
    34    40    41    1
    35     4     5   ar
    36     5     6   ar
    37    10    11    1
    38    11    12    1
    39    17    18   ar
    40    18    19   ar
    41    19    21    1
    42    21    22    2
    43    21    23    1
    44    19    20   ar
    45    20    15   ar
    46    12     7    1
    47     6     1   ar
    48    40    32   ar
    49    39    34   ar
    50    47    42   ar
    51    28    31    1
    52    23    24    1
@<TRIPOS>MOLECULE
*****
 47 52 0 0 0
SMALL
GASTEIGER

@<TRIPOS>ATOM
      1 C          59.5003   87.4326    9.9684 C.ar    1  UNL1        0.1318
      2 C          59.5742   86.6994    8.7736 C.ar    1  UNL1        0.0356
      3 C          59.7835   87.3691    7.5672 C.ar    1  UNL1        0.0191
      4 C          59.9129   88.7629    7.5463 C.ar    1  UNL1        0.0702
      5 C          59.8735   89.4568    8.7664 C.ar    1  UNL1        0.1149
      6 N          59.6719   88.7833    9.9298 N.ar    1  UNL1       -0.2279
      7 C          59.8021   86.4957   13.9874 C.3     1  UNL1        0.0472
      8 C          60.6699   85.6840   12.9834 C.3     1  UNL1        0.0252
      9 C          60.0405   85.5535   11.5877 C.3     1  UNL1        0.0923
     10 N          59.3063   86.7757   11.2355 N.pl3   1  UNL1       -0.2932
     11 C          58.2584   87.2679   12.1408 C.3     1  UNL1        0.0923
     12 C          58.3359   86.5963   13.5205 C.3     1  UNL1        0.0252
     13 C          59.9267   85.9041   15.4064 C.3     1  UNL1        0.2054
     14 O          60.9988   86.5079   16.1354 O.3     1  UNL1       -0.4755
     15 C          64.5390   86.2847   14.9285 C.ar    1  UNL1        0.0105
     16 C          63.2885   85.8898   15.4254 C.ar    1  UNL1        0.0351
     17 C          62.2713   86.8403   15.6378 C.ar    1  UNL1        0.1385
     18 C          62.5239   88.1856   15.3461 C.ar    1  UNL1        0.0433
     19 C          63.7757   88.5994   14.8612 C.ar    1  UNL1        0.0782
     20 C          64.7825   87.6400   14.6625 C.ar    1  UNL1        0.0048
     21 C          64.0278   90.0288   14.5713 C.2     1  UNL1        0.3381
     22 O          65.2063   90.4757   14.5367 O.2     1  UNL1       -0.2451
     23 O          62.9639   90.8953   14.3332 O.3     1  UNL1       -0.4771
     24 H          63.1254   91.8753   14.1338 H       1  UNL1        0.2954
     25 C          65.6347   85.2708   14.7589 C.3     1  UNL1        0.1688
     26 C          64.6408   83.9117   13.1886 C.3     1  UNL1        0.1746
     27 O          65.0521   84.0052   14.5337 O.3     1  UNL1       -0.3463
     28 N          60.1524   89.4369    6.2988 N.am    1  UNL1       -0.2766
     29 C          59.4181   90.5889    5.8533 C.2     1  UNL1        0.2839
     30 O          58.3457   90.9189    6.4274 O.2     1  UNL1       -0.2665
     31 H          60.8448   89.0123    5.6408 H       1  UNL1        0.1553
     32 C          59.9019   91.3627    4.6942 C.ar    1  UNL1        0.1946
     33 O          59.1360   92.2048    4.0234 O.2     1  UNL1       -0.4492
     34 C          59.8563   92.7245    3.0597 C.ar    1  UNL1        0.1452
     35 C          59.4503   93.6567    2.1112 C.ar    1  UNL1        0.0375
     36 C          60.3917   94.0814    1.1579 C.ar    1  UNL1        0.0031
     37 C          61.7182   93.5714    1.1664 C.ar    1  UNL1        0.0002
     38 C          62.0908   92.6238    2.1499 C.ar    1  UNL1        0.0028
     39 C          61.1307   92.2246    3.0810 C.ar    1  UNL1        0.0337
     40 C          61.1851   91.3343    4.1364 C.ar    1  UNL1        0.0202
     41 C          62.3603   90.5185    4.5839 C.3     1  UNL1        0.0345
     42 C          62.7042   94.0275    0.1541 C.ar    1  UNL1        0.0000
     43 C          64.0815   94.0296    0.4465 C.ar    1  UNL1        0.0000
     44 C          65.0077   94.4596   -0.5086 C.ar    1  UNL1        0.0000
     45 C          64.5719   94.8904   -1.7636 C.ar    1  UNL1        0.0000
     46 C          63.2084   94.8925   -2.0662 C.ar    1  UNL1        0.0000
     47 C          62.2776   94.4645   -1.1145 C.ar    1  UNL1        0.0000
@<TRIPOS>BOND
     1    26    27    1
     2    27    25    1
     3    25    15    1
     4    15    16   ar
     5    16    17   ar
     6    17    14    1
     7    14    13    1
     8    13     7    1
     9     7     8    1
    10     8     9    1
    11     9    10    1
    12    10     1    1
    13     1     2   ar
    14     2     3   ar
    15     3     4   ar
    16     4    28    1
    17    28    29   am
    18    29    30    2
    19    29    32    1
    20    32    33   ar
    21    33    34   ar
    22    34    35   ar
    23    35    36   ar
    24    36    37   ar
    25    37    42    1
    26    42    43   ar
    27    43    44   ar
    28    44    45   ar
    29    45    46   ar
    30    46    47   ar
    31    37    38   ar
    32    38    39   ar
    33    39    40   ar
    34    40    41    1
    35     4     5   ar
    36     5     6   ar
    37    10    11    1
    38    11    12    1
    39    17    18   ar
    40    18    19   ar
    41    19    21    1
    42    21    22    2
    43    21    23    1
    44    19    20   ar
    45    20    15   ar
    46    12     7    1
    47     6     1   ar
    48    40    32   ar
    49    39    34   ar
    50    47    42   ar
    51    28    31    1
    52    23    24    1
