@<TRIPOS>MOLECULE
*****
 42 48 0 0 0
SMALL
GASTEIGER

@<TRIPOS>ATOM
      1 C         -30.2702   46.8838  -11.1531 C.3     1  UNL1        0.1158
      2 N         -30.2643   45.9127  -12.0995 N.3     1  UNL1       -0.2851
      3 C         -30.1738   46.5987  -13.2466 C.3     1  UNL1        0.0910
      4 C         -30.1460   46.0719  -14.5269 C.3     1  UNL1        0.1018
      5 C         -30.0658   46.9757  -15.5937 C.3     1  UNL1        0.3136
      6 N         -30.0160   48.3354  -15.3741 N.am    1  UNL1       -0.1294
      7 C         -30.0786   48.8412  -14.0900 C.2     1  UNL1        0.4047
      8 O         -30.0999   50.0851  -13.8953 O.2     1  UNL1       -0.2174
      9 C         -30.1321   47.9389  -13.0108 C.3     1  UNL1        0.2038
     10 N         -30.1742   48.1504  -11.6709 N.3     1  UNL1       -0.2473
     11 H         -31.1252   45.3666  -12.0677 H       1  UNL1        0.1244
     12 C         -30.1576   49.4455  -10.9557 C.3     1  UNL1        0.0817
     13 C         -31.5657   49.8888  -10.5002 C.3     1  UNL1        0.0252
     14 C         -31.4448   50.3126   -9.0223 C.3     1  UNL1        0.0278
     15 C         -30.0654   49.9183   -8.6427 C.ar    1  UNL1       -0.0248
     16 C         -29.4728   50.0665   -7.3873 C.ar    1  UNL1       -0.0045
     17 C         -28.1273   49.6823   -7.2155 C.ar    1  UNL1       -0.0002
     18 C         -27.4043   49.1744   -8.3191 C.ar    1  UNL1       -0.0003
     19 C         -28.0202   49.0427   -9.5721 C.ar    1  UNL1       -0.0033
     20 C         -29.3622   49.4048   -9.7034 C.ar    1  UNL1       -0.0117
     21 C         -27.4581   49.8775   -5.9072 C.ar    1  UNL1        0.0030
     22 C         -26.9728   51.1600   -5.5926 C.ar    1  UNL1        0.0001
     23 C         -26.2423   51.3784   -4.4241 C.ar    1  UNL1        0.0000
     24 C         -25.9797   50.3200   -3.5564 C.ar    1  UNL1        0.0001
     25 C         -26.4631   49.0428   -3.8440 C.ar    1  UNL1        0.0031
     26 C         -27.2217   48.8068   -5.0040 C.ar    1  UNL1        0.0371
     27 C         -27.7782   47.4512   -5.2116 C.ar    1  UNL1        0.1806
     28 N         -28.9658   47.0359   -4.7316 N.ar    1  UNL1       -0.1084
     29 N         -29.1096   45.8010   -5.1922 N.ar    1  UNL1       -0.0229
     30 N         -28.0646   45.4717   -5.9361 N.ar    1  UNL1       -0.0464
     31 N         -27.2220   46.4880   -5.9651 N.ar    1  UNL1       -0.2388
     32 H         -26.3332   46.5180   -6.5111 H       1  UNL1        0.1923
     33 C         -29.3732   45.4392   -9.3296 C.3     1  UNL1        0.0029
     34 C         -30.3772   46.5259   -9.6950 C.3     1  UNL1        0.0326
     35 C         -29.9382   49.2276  -16.5469 C.3     1  UNL1        0.3394
     36 C         -28.5458   49.2243  -17.1481 C.ar    1  UNL1        0.0505
     37 C         -27.5740   50.0840  -16.6026 C.ar    1  UNL1        0.0021
     38 C         -26.2866   50.1364  -17.1379 C.ar    1  UNL1       -0.0001
     39 C         -25.9503   49.3372  -18.2286 C.ar    1  UNL1       -0.0003
     40 C         -26.8995   48.4805  -18.7872 C.ar    1  UNL1       -0.0044
     41 C         -28.1994   48.4049  -18.2550 C.ar    1  UNL1       -0.0193
     42 C         -29.1968   47.4852  -18.9086 C.3     1  UNL1        0.0309
@<TRIPOS>BOND
     1    33    34    1
     2    34     1    1
     3     1     2    1
     4     2     3    1
     5     3     4    1
     6     4     5    1
     7     5     6    1
     8     6    35    1
     9    35    36    1
    10    36    37   ar
    11    37    38   ar
    12    38    39   ar
    13    39    40   ar
    14    40    41   ar
    15    41    42    1
    16     6     7    1
    17     7     8    2
    18     7     9    1
    19     9    10    1
    20    10    12    1
    21    12    13    1
    22    13    14    1
    23    14    15    1
    24    15    16   ar
    25    16    17   ar
    26    17    21    1
    27    21    22   ar
    28    22    23   ar
    29    23    24   ar
    30    24    25   ar
    31    25    26   ar
    32    26    27    1
    33    27    28   ar
    34    28    29   ar
    35    29    30   ar
    36    30    31   ar
    37    17    18   ar
    38    18    19   ar
    39    19    20   ar
    40    10     1    1
    41    20    12    1
    42     9     3    1
    43    20    15   ar
    44    41    36   ar
    45    26    21   ar
    46    31    27   ar
    47    31    32    1
    48     2    11    1
@<TRIPOS>MOLECULE
*****
 42 48 0 0 0
SMALL
GASTEIGER

@<TRIPOS>ATOM
      1 C         -26.5655   51.4215   -9.7261 C.3     1  UNL1        0.1158
      2 N         -26.1004   51.6304  -10.9826 N.3     1  UNL1       -0.2851
      3 C         -24.7735   51.7040  -10.8134 C.3     1  UNL1        0.0910
      4 C         -23.8241   51.9258  -11.7967 C.3     1  UNL1        0.1018
      5 C         -22.4834   51.9842  -11.3961 C.3     1  UNL1        0.3136
      6 N         -22.1266   51.8260  -10.0743 N.am    1  UNL1       -0.1294
      7 C         -23.0927   51.6387   -9.1047 C.2     1  UNL1        0.4047
      8 O         -22.7700   51.5607   -7.8900 O.2     1  UNL1       -0.2174
      9 C         -24.4404   51.5518   -9.5022 C.3     1  UNL1        0.2038
     10 N         -25.5729   51.3502   -8.7821 N.3     1  UNL1       -0.2473
     11 H         -26.4681   52.5003  -11.3681 H       1  UNL1        0.1244
     12 C         -25.6951   51.1422   -7.3224 C.3     1  UNL1        0.0817
     13 C         -26.6591   52.1507   -6.6588 C.3     1  UNL1        0.0252
     14 C         -27.6043   51.3360   -5.7525 C.3     1  UNL1        0.0278
     15 C         -27.2889   49.9224   -6.0758 C.ar    1  UNL1       -0.0248
     16 C         -27.8984   48.7887   -5.5351 C.ar    1  UNL1       -0.0045
     17 C         -27.4363   47.5135   -5.9196 C.ar    1  UNL1       -0.0002
     18 C         -26.3572   47.4110   -6.8269 C.ar    1  UNL1       -0.0003
     19 C         -25.7565   48.5653   -7.3499 C.ar    1  UNL1       -0.0033
     20 C         -26.2554   49.8133   -6.9721 C.ar    1  UNL1       -0.0117
     21 C         -28.0305   46.2943   -5.3212 C.ar    1  UNL1        0.0030
     22 C         -29.2147   45.7854   -5.8850 C.ar    1  UNL1        0.0001
     23 C         -29.8754   44.7048   -5.2994 C.ar    1  UNL1        0.0000
     24 C         -29.3684   44.1211   -4.1401 C.ar    1  UNL1        0.0001
     25 C         -28.1880   44.6029   -3.5724 C.ar    1  UNL1        0.0031
     26 C         -27.4943   45.6751   -4.1605 C.ar    1  UNL1        0.0371
     27 C         -26.2050   46.0863   -3.5612 C.ar    1  UNL1        0.1806
     28 N         -26.0047   47.2508   -2.9152 N.ar    1  UNL1       -0.1084
     29 N         -24.7514   47.1946   -2.4865 N.ar    1  UNL1       -0.0229
     30 N         -24.2047   46.0409   -2.8388 N.ar    1  UNL1       -0.0464
     31 N         -25.0950   45.3315   -3.5079 N.ar    1  UNL1       -0.2388
     32 H         -24.9458   44.3637   -3.8688 H       1  UNL1        0.1923
     33 C         -28.5403   49.9051   -9.8587 C.3     1  UNL1        0.0029
     34 C         -28.0436   51.2931   -9.4725 C.3     1  UNL1        0.0326
     35 C         -20.6950   51.9056   -9.7253 C.3     1  UNL1        0.3394
     36 C         -20.3312   53.2848   -9.2100 C.ar    1  UNL1        0.0505
     37 C         -20.7074   54.4089   -9.9689 C.ar    1  UNL1        0.0021
     38 C         -20.3726   55.6970   -9.5500 C.ar    1  UNL1       -0.0001
     39 C         -19.6528   55.8836   -8.3718 C.ar    1  UNL1       -0.0003
     40 C         -19.2667   54.7829   -7.6060 C.ar    1  UNL1       -0.0044
     41 C         -19.6041   53.4771   -8.0054 C.ar    1  UNL1       -0.0193
     42 C         -19.1421   52.3195   -7.1601 C.3     1  UNL1        0.0309
@<TRIPOS>BOND
     1    33    34    1
     2    34     1    1
     3     1     2    1
     4     2     3    1
     5     3     4    1
     6     4     5    1
     7     5     6    1
     8     6    35    1
     9    35    36    1
    10    36    37   ar
    11    37    38   ar
    12    38    39   ar
    13    39    40   ar
    14    40    41   ar
    15    41    42    1
    16     6     7    1
    17     7     8    2
    18     7     9    1
    19     9    10    1
    20    10    12    1
    21    12    13    1
    22    13    14    1
    23    14    15    1
    24    15    16   ar
    25    16    17   ar
    26    17    21    1
    27    21    22   ar
    28    22    23   ar
    29    23    24   ar
    30    24    25   ar
    31    25    26   ar
    32    26    27    1
    33    27    28   ar
    34    28    29   ar
    35    29    30   ar
    36    30    31   ar
    37    17    18   ar
    38    18    19   ar
    39    19    20   ar
    40    10     1    1
    41    20    12    1
    42     9     3    1
    43    20    15   ar
    44    41    36   ar
    45    26    21   ar
    46    31    27   ar
    47    31    32    1
    48     2    11    1
@<TRIPOS>MOLECULE
*****
 42 48 0 0 0
SMALL
GASTEIGER

@<TRIPOS>ATOM
      1 C         -27.5808   50.8979   -8.4271 C.3     1  UNL1        0.1158
      2 N         -27.9371   51.8548   -9.3194 N.3     1  UNL1       -0.2851
      3 C         -28.8153   51.2270  -10.1125 C.3     1  UNL1        0.0910
      4 C         -29.4738   51.7628  -11.2065 C.3     1  UNL1        0.1018
      5 C         -30.3418   50.9201  -11.9121 C.3     1  UNL1        0.3136
      6 N         -30.5313   49.6098  -11.5293 N.am    1  UNL1       -0.1294
      7 C         -29.8390   49.0860  -10.4546 C.2     1  UNL1        0.4047
      8 O         -29.9633   47.8711  -10.1473 O.2     1  UNL1       -0.2174
      9 C         -28.9851   49.9334   -9.7236 C.3     1  UNL1        0.2038
     10 N         -28.2163   49.6993   -8.6300 N.3     1  UNL1       -0.2473
     11 H         -27.1289   52.1763   -9.8521 H       1  UNL1        0.1244
     12 C         -28.0784   48.4368   -7.8712 C.3     1  UNL1        0.0817
     13 C         -26.6026   48.0400   -7.6445 C.3     1  UNL1        0.0252
     14 C         -26.4608   47.6791   -6.1518 C.3     1  UNL1        0.0278
     15 C         -27.7657   48.0641   -5.5592 C.ar    1  UNL1       -0.0248
     16 C         -28.1334   47.9600   -4.2163 C.ar    1  UNL1       -0.0045
     17 C         -29.4399   48.3264   -3.8337 C.ar    1  UNL1       -0.0002
     18 C         -30.3519   48.7720   -4.8176 C.ar    1  UNL1       -0.0003
     19 C         -29.9605   48.8600   -6.1613 C.ar    1  UNL1       -0.0033
     20 C         -28.6512   48.5175   -6.5044 C.ar    1  UNL1       -0.0117
     21 C         -29.8728   48.1762   -2.4239 C.ar    1  UNL1        0.0030
     22 C         -30.6569   49.1969   -1.8560 C.ar    1  UNL1        0.0001
     23 C         -31.0039   49.1606   -0.5050 C.ar    1  UNL1        0.0000
     24 C         -30.5683   48.1099    0.3000 C.ar    1  UNL1        0.0001
     25 C         -29.8003   47.0809   -0.2469 C.ar    1  UNL1        0.0031
     26 C         -29.4603   47.0864   -1.6112 C.ar    1  UNL1        0.0371
     27 C         -28.7166   45.9263   -2.1510 C.ar    1  UNL1        0.1806
     28 N         -27.4664   45.5874   -1.7827 N.ar    1  UNL1       -0.1084
     29 N         -27.2043   44.4694   -2.4454 N.ar    1  UNL1       -0.0229
     30 N         -28.2507   44.1237   -3.1799 N.ar    1  UNL1       -0.0464
     31 N         -29.2080   45.0170   -3.0092 N.ar    1  UNL1       -0.2388
     32 H         -30.1590   44.9697   -3.4363 H       1  UNL1        0.1923
     33 C         -27.2471   51.8693   -6.1551 C.3     1  UNL1        0.0029
     34 C         -26.5758   51.1990   -7.3478 C.3     1  UNL1        0.0326
     35 C         -31.4567   48.7792  -12.3239 C.3     1  UNL1        0.3394
     36 C         -30.9457   48.5877  -13.7389 C.ar    1  UNL1        0.0505
     37 C         -31.1475   49.6202  -14.6740 C.ar    1  UNL1        0.0021
     38 C         -30.7191   49.4804  -15.9945 C.ar    1  UNL1       -0.0001
     39 C         -30.0887   48.3074  -16.4042 C.ar    1  UNL1       -0.0003
     40 C         -29.8820   47.2698  -15.4944 C.ar    1  UNL1       -0.0044
     41 C         -30.2964   47.3957  -14.1561 C.ar    1  UNL1       -0.0193
     42 C         -30.0755   46.2385  -13.2180 C.3     1  UNL1        0.0309
@<TRIPOS>BOND
     1    33    34    1
     2    34     1    1
     3     1     2    1
     4     2     3    1
     5     3     4    1
     6     4     5    1
     7     5     6    1
     8     6    35    1
     9    35    36    1
    10    36    37   ar
    11    37    38   ar
    12    38    39   ar
    13    39    40   ar
    14    40    41   ar
    15    41    42    1
    16     6     7    1
    17     7     8    2
    18     7     9    1
    19     9    10    1
    20    10    12    1
    21    12    13    1
    22    13    14    1
    23    14    15    1
    24    15    16   ar
    25    16    17   ar
    26    17    21    1
    27    21    22   ar
    28    22    23   ar
    29    23    24   ar
    30    24    25   ar
    31    25    26   ar
    32    26    27    1
    33    27    28   ar
    34    28    29   ar
    35    29    30   ar
    36    30    31   ar
    37    17    18   ar
    38    18    19   ar
    39    19    20   ar
    40    10     1    1
    41    20    12    1
    42     9     3    1
    43    20    15   ar
    44    41    36   ar
    45    26    21   ar
    46    31    27   ar
    47    31    32    1
    48     2    11    1
@<TRIPOS>MOLECULE
*****
 42 48 0 0 0
SMALL
GASTEIGER

@<TRIPOS>ATOM
      1 C         -30.2823   49.6611   -4.2199 C.3     1  UNL1        0.1158
      2 N         -31.2479   50.1224   -3.3871 N.3     1  UNL1       -0.2851
      3 C         -30.9049   49.6065   -2.1994 C.3     1  UNL1        0.0910
      4 C         -31.5809   49.7645   -1.0012 C.3     1  UNL1        0.1018
      5 C         -31.0551   49.1191    0.1250 C.3     1  UNL1        0.3136
      6 N         -29.9093   48.3579    0.0405 N.am    1  UNL1       -0.1294
      7 C         -29.2691   48.1863   -1.1717 C.2     1  UNL1        0.4047
      8 O         -28.2608   47.4370   -1.2596 O.2     1  UNL1       -0.2174
      9 C         -29.7755   48.8534   -2.3032 C.3     1  UNL1        0.2038
     10 N         -29.3428   48.8858   -3.5890 N.3     1  UNL1       -0.2473
     11 H         -32.1683   49.7917   -3.6767 H       1  UNL1        0.1244
     12 C         -28.1596   48.2103   -4.1656 C.3     1  UNL1        0.0817
     13 C         -28.5308   46.9324   -4.9505 C.3     1  UNL1        0.0252
     14 C         -27.7881   47.0051   -6.3002 C.3     1  UNL1        0.0278
     15 C         -27.2022   48.3684   -6.3198 C.ar    1  UNL1       -0.0248
     16 C         -26.4504   48.9367   -7.3498 C.ar    1  UNL1       -0.0045
     17 C         -25.9245   50.2335   -7.1787 C.ar    1  UNL1       -0.0002
     18 C         -26.1535   50.9205   -5.9646 C.ar    1  UNL1       -0.0003
     19 C         -26.9054   50.3245   -4.9418 C.ar    1  UNL1       -0.0033
     20 C         -27.4371   49.0509   -5.1526 C.ar    1  UNL1       -0.0117
     21 C         -25.0791   50.8398   -8.2347 C.ar    1  UNL1        0.0030
     22 C         -23.6911   50.9115   -8.0168 C.ar    1  UNL1        0.0001
     23 C         -22.8600   51.5657   -8.9269 C.ar    1  UNL1        0.0000
     24 C         -23.4019   52.1633  -10.0631 C.ar    1  UNL1        0.0001
     25 C         -24.7747   52.0924  -10.3041 C.ar    1  UNL1        0.0031
     26 C         -25.6261   51.4172   -9.4119 C.ar    1  UNL1        0.0371
     27 C         -27.0591   51.3030   -9.7640 C.ar    1  UNL1        0.1806
     28 N         -27.8775   52.3531   -9.9664 N.ar    1  UNL1       -0.1084
     29 N         -29.0394   51.8201  -10.3181 N.ar    1  UNL1       -0.0229
     30 N         -28.9408   50.4997  -10.3464 N.ar    1  UNL1       -0.0464
     31 N         -27.7122   50.1545  -10.0072 N.ar    1  UNL1       -0.2388
     32 H         -27.3450   49.1778   -9.9867 H       1  UNL1        0.1923
     33 C         -30.6889   51.4707   -5.8864 C.3     1  UNL1        0.0029
     34 C         -30.3093   50.0087   -5.6842 C.3     1  UNL1        0.0326
     35 C         -29.4170   47.7023    1.2674 C.3     1  UNL1        0.3394
     36 C         -29.9937   48.3558    2.5086 C.ar    1  UNL1        0.0505
     37 C         -29.4829   49.6035    2.9127 C.ar    1  UNL1        0.0021
     38 C         -29.9625   50.2322    4.0623 C.ar    1  UNL1       -0.0001
     39 C         -30.9537   49.6241    4.8295 C.ar    1  UNL1       -0.0003
     40 C         -31.4715   48.3854    4.4491 C.ar    1  UNL1       -0.0044
     41 C         -31.0093   47.7406    3.2875 C.ar    1  UNL1       -0.0193
     42 C         -31.5793   46.3927    2.9324 C.3     1  UNL1        0.0309
@<TRIPOS>BOND
     1    33    34    1
     2    34     1    1
     3     1     2    1
     4     2     3    1
     5     3     4    1
     6     4     5    1
     7     5     6    1
     8     6    35    1
     9    35    36    1
    10    36    37   ar
    11    37    38   ar
    12    38    39   ar
    13    39    40   ar
    14    40    41   ar
    15    41    42    1
    16     6     7    1
    17     7     8    2
    18     7     9    1
    19     9    10    1
    20    10    12    1
    21    12    13    1
    22    13    14    1
    23    14    15    1
    24    15    16   ar
    25    16    17   ar
    26    17    21    1
    27    21    22   ar
    28    22    23   ar
    29    23    24   ar
    30    24    25   ar
    31    25    26   ar
    32    26    27    1
    33    27    28   ar
    34    28    29   ar
    35    29    30   ar
    36    30    31   ar
    37    17    18   ar
    38    18    19   ar
    39    19    20   ar
    40    10     1    1
    41    20    12    1
    42     9     3    1
    43    20    15   ar
    44    41    36   ar
    45    26    21   ar
    46    31    27   ar
    47    31    32    1
    48     2    11    1
@<TRIPOS>MOLECULE
*****
 42 48 0 0 0
SMALL
GASTEIGER

@<TRIPOS>ATOM
      1 C         -25.3492   51.4553   -9.6454 C.3     1  UNL1        0.1158
      2 N         -25.8196   51.5336  -10.9148 N.3     1  UNL1       -0.2851
      3 C         -27.1099   51.1962  -10.7884 C.3     1  UNL1        0.0910
      4 C         -28.0458   51.1052  -11.8049 C.3     1  UNL1        0.1018
      5 C         -29.3438   50.7150  -11.4523 C.3     1  UNL1        0.3136
      6 N         -29.6733   50.4341  -10.1440 N.am    1  UNL1       -0.1294
      7 C         -28.7158   50.4990   -9.1501 C.2     1  UNL1        0.4047
      8 O         -29.0026   50.1779   -7.9667 O.2     1  UNL1       -0.2174
      9 C         -27.4155   50.9165   -9.4915 C.3     1  UNL1        0.2038
     10 N         -26.3053   51.0927   -8.7311 N.3     1  UNL1       -0.2473
     11 H         -25.3298   50.8807  -11.5266 H       1  UNL1        0.1244
     12 C         -26.1656   50.8996   -7.2709 C.3     1  UNL1        0.0817
     13 C         -26.9292   51.9673   -6.4563 C.3     1  UNL1        0.0252
     14 C         -27.7348   51.2151   -5.3775 C.3     1  UNL1        0.0278
     15 C         -27.5676   49.7836   -5.7311 C.ar    1  UNL1       -0.0248
     16 C         -28.1306   48.6911   -5.0687 C.ar    1  UNL1       -0.0045
     17 C         -27.8229   47.3887   -5.5118 C.ar    1  UNL1       -0.0002
     18 C         -26.9392   47.2172   -6.6018 C.ar    1  UNL1       -0.0003
     19 C         -26.3804   48.3309   -7.2454 C.ar    1  UNL1       -0.0033
     20 C         -26.7271   49.6084   -6.8017 C.ar    1  UNL1       -0.0117
     21 C         -28.3650   46.2102   -4.7943 C.ar    1  UNL1        0.0030
     22 C         -29.5971   45.6808   -5.2195 C.ar    1  UNL1        0.0001
     23 C         -30.2061   44.6406   -4.5166 C.ar    1  UNL1        0.0000
     24 C         -29.5986   44.1185   -3.3763 C.ar    1  UNL1        0.0001
     25 C         -28.3702   44.6212   -2.9452 C.ar    1  UNL1        0.0031
     26 C         -27.7284   45.6526   -3.6532 C.ar    1  UNL1        0.0371
     27 C         -26.3889   46.0856   -3.1965 C.ar    1  UNL1        0.1806
     28 N         -25.2317   45.5264   -3.5989 N.ar    1  UNL1       -0.1084
     29 N         -24.2823   46.2417   -3.0119 N.ar    1  UNL1       -0.0229
     30 N         -24.8266   47.2093   -2.2899 N.ar    1  UNL1       -0.0464
     31 N         -26.1409   47.1333   -2.3930 N.ar    1  UNL1       -0.2388
     32 H         -26.8184   47.7983   -1.9598 H       1  UNL1        0.1923
     33 C         -23.1552   52.1237  -10.6234 C.3     1  UNL1        0.0029
     34 C         -23.9034   51.7507   -9.3492 C.3     1  UNL1        0.0326
     35 C         -31.0593   50.0231   -9.8479 C.3     1  UNL1        0.3394
     36 C         -31.1580   48.5219   -9.6560 C.ar    1  UNL1        0.0505
     37 C         -31.0278   47.6883  -10.7826 C.ar    1  UNL1        0.0021
     38 C         -31.1374   46.3027  -10.6611 C.ar    1  UNL1       -0.0001
     39 C         -31.3844   45.7277   -9.4163 C.ar    1  UNL1       -0.0003
     40 C         -31.5206   46.5359   -8.2870 C.ar    1  UNL1       -0.0044
     41 C         -31.4023   47.9339   -8.3866 C.ar    1  UNL1       -0.0193
     42 C         -31.5835   48.7661   -7.1446 C.3     1  UNL1        0.0309
@<TRIPOS>BOND
     1    33    34    1
     2    34     1    1
     3     1     2    1
     4     2     3    1
     5     3     4    1
     6     4     5    1
     7     5     6    1
     8     6    35    1
     9    35    36    1
    10    36    37   ar
    11    37    38   ar
    12    38    39   ar
    13    39    40   ar
    14    40    41   ar
    15    41    42    1
    16     6     7    1
    17     7     8    2
    18     7     9    1
    19     9    10    1
    20    10    12    1
    21    12    13    1
    22    13    14    1
    23    14    15    1
    24    15    16   ar
    25    16    17   ar
    26    17    21    1
    27    21    22   ar
    28    22    23   ar
    29    23    24   ar
    30    24    25   ar
    31    25    26   ar
    32    26    27    1
    33    27    28   ar
    34    28    29   ar
    35    29    30   ar
    36    30    31   ar
    37    17    18   ar
    38    18    19   ar
    39    19    20   ar
    40    10     1    1
    41    20    12    1
    42     9     3    1
    43    20    15   ar
    44    41    36   ar
    45    26    21   ar
    46    31    27   ar
    47    31    32    1
    48     2    11    1
@<TRIPOS>MOLECULE
*****
 42 48 0 0 0
SMALL
GASTEIGER

@<TRIPOS>ATOM
      1 C         -25.3347   51.3987   -9.6667 C.3     1  UNL1        0.1158
      2 N         -25.7885   51.4782  -10.9421 N.3     1  UNL1       -0.2851
      3 C         -27.1007   51.2381  -10.8194 C.3     1  UNL1        0.0910
      4 C         -28.0329   51.1889  -11.8421 C.3     1  UNL1        0.1018
      5 C         -29.3584   50.9023  -11.4922 C.3     1  UNL1        0.3136
      6 N         -29.7173   50.6794  -10.1804 N.am    1  UNL1       -0.1294
      7 C         -28.7652   50.7006   -9.1795 C.2     1  UNL1        0.4047
      8 O         -29.0835   50.4314   -7.9912 O.2     1  UNL1       -0.2174
      9 C         -27.4355   51.0144   -9.5189 C.3     1  UNL1        0.2038
     10 N         -26.3214   51.1296   -8.7526 N.3     1  UNL1       -0.2473
     11 H         -25.3425   50.7763  -11.5327 H       1  UNL1        0.1244
     12 C         -26.2071   50.9642   -7.2869 C.3     1  UNL1        0.0817
     13 C         -27.0306   52.0128   -6.5064 C.3     1  UNL1        0.0252
     14 C         -27.8299   51.2455   -5.4336 C.3     1  UNL1        0.0278
     15 C         -27.5983   49.8166   -5.7605 C.ar    1  UNL1       -0.0248
     16 C         -28.1323   48.7126   -5.0932 C.ar    1  UNL1       -0.0045
     17 C         -27.7634   47.4169   -5.5086 C.ar    1  UNL1       -0.0002
     18 C         -26.8492   47.2645   -6.5760 C.ar    1  UNL1       -0.0003
     19 C         -26.3206   48.3897   -7.2250 C.ar    1  UNL1       -0.0033
     20 C         -26.7275   49.6589   -6.8094 C.ar    1  UNL1       -0.0117
     21 C         -28.2745   46.2288   -4.7843 C.ar    1  UNL1        0.0030
     22 C         -29.5297   45.7126   -5.1545 C.ar    1  UNL1        0.0001
     23 C         -30.1076   44.6633   -4.4390 C.ar    1  UNL1        0.0000
     24 C         -29.4452   44.1186   -3.3407 C.ar    1  UNL1        0.0001
     25 C         -28.1934   44.6079   -2.9649 C.ar    1  UNL1        0.0031
     26 C         -27.5832   45.6484   -3.6873 C.ar    1  UNL1        0.0371
     27 C         -26.2195   46.0670   -3.2930 C.ar    1  UNL1        0.1806
     28 N         -25.9069   47.2883   -2.8195 N.ar    1  UNL1       -0.1084
     29 N         -24.6140   47.2250   -2.5328 N.ar    1  UNL1       -0.0229
     30 N         -24.1500   46.0144   -2.8030 N.ar    1  UNL1       -0.0464
     31 N         -25.1356   45.2734   -3.2756 N.ar    1  UNL1       -0.2388
     32 H         -25.0612   44.2645   -3.5315 H       1  UNL1        0.1923
     33 C         -23.1071   51.9791  -10.6247 C.3     1  UNL1        0.0029
     34 C         -23.8735   51.5967   -9.3643 C.3     1  UNL1        0.0326
     35 C         -31.1316   50.3772   -9.8873 C.3     1  UNL1        0.3394
     36 C         -31.2878   48.9813   -9.3152 C.ar    1  UNL1        0.0505
     37 C         -31.3812   48.8317   -7.9188 C.ar    1  UNL1        0.0021
     38 C         -31.4994   47.5661   -7.3433 C.ar    1  UNL1       -0.0001
     39 C         -31.5202   46.4307   -8.1504 C.ar    1  UNL1       -0.0003
     40 C         -31.4252   46.5560   -9.5369 C.ar    1  UNL1       -0.0044
     41 C         -31.3167   47.8235  -10.1370 C.ar    1  UNL1       -0.0193
     42 C         -31.1900   47.9066  -11.6353 C.3     1  UNL1        0.0309
@<TRIPOS>BOND
     1    33    34    1
     2    34     1    1
     3     1     2    1
     4     2     3    1
     5     3     4    1
     6     4     5    1
     7     5     6    1
     8     6    35    1
     9    35    36    1
    10    36    37   ar
    11    37    38   ar
    12    38    39   ar
    13    39    40   ar
    14    40    41   ar
    15    41    42    1
    16     6     7    1
    17     7     8    2
    18     7     9    1
    19     9    10    1
    20    10    12    1
    21    12    13    1
    22    13    14    1
    23    14    15    1
    24    15    16   ar
    25    16    17   ar
    26    17    21    1
    27    21    22   ar
    28    22    23   ar
    29    23    24   ar
    30    24    25   ar
    31    25    26   ar
    32    26    27    1
    33    27    28   ar
    34    28    29   ar
    35    29    30   ar
    36    30    31   ar
    37    17    18   ar
    38    18    19   ar
    39    19    20   ar
    40    10     1    1
    41    20    12    1
    42     9     3    1
    43    20    15   ar
    44    41    36   ar
    45    26    21   ar
    46    31    27   ar
    47    31    32    1
    48     2    11    1
@<TRIPOS>MOLECULE
*****
 42 48 0 0 0
SMALL
GASTEIGER

@<TRIPOS>ATOM
      1 C         -30.1799   49.0310   -6.9158 C.3     1  UNL1        0.1158
      2 N         -31.2220   49.5016   -6.1869 N.3     1  UNL1       -0.2851
      3 C         -30.8410   49.2787   -4.9221 C.3     1  UNL1        0.0910
      4 C         -31.5634   49.5667   -3.7763 C.3     1  UNL1        0.1018
      5 C         -30.9818   49.2322   -2.5471 C.3     1  UNL1        0.3136
      6 N         -29.7388   48.6403   -2.4839 N.am    1  UNL1       -0.1294
      7 C         -29.0496   48.3313   -3.6406 C.2     1  UNL1        0.4047
      8 O         -27.9442   47.7308   -3.5829 O.2     1  UNL1       -0.2174
      9 C         -29.6149   48.6886   -4.8794 C.3     1  UNL1        0.2038
     10 N         -29.1577   48.5339   -6.1478 N.3     1  UNL1       -0.2473
     11 H         -32.0791   48.9935   -6.4050 H       1  UNL1        0.1244
     12 C         -27.8768   47.9358   -6.5840 C.3     1  UNL1        0.0817
     13 C         -28.0626   46.8918   -7.7076 C.3     1  UNL1        0.0252
     14 C         -27.0255   47.2216   -8.8004 C.3     1  UNL1        0.0278
     15 C         -26.4430   48.5168   -8.3697 C.ar    1  UNL1       -0.0248
     16 C         -25.4684   49.2561   -9.0426 C.ar    1  UNL1       -0.0045
     17 C         -24.9891   50.4472   -8.4604 C.ar    1  UNL1       -0.0002
     18 C         -25.4904   50.8559   -7.2034 C.ar    1  UNL1       -0.0003
     19 C         -26.4635   50.0912   -6.5439 C.ar    1  UNL1       -0.0033
     20 C         -26.9392   48.9319   -7.1595 C.ar    1  UNL1       -0.0117
     21 C         -23.9172   51.2238   -9.1280 C.ar    1  UNL1        0.0030
     22 C         -22.6954   51.3903   -8.4508 C.ar    1  UNL1        0.0001
     23 C         -21.6904   52.1987   -8.9830 C.ar    1  UNL1        0.0000
     24 C         -21.8921   52.8577  -10.1942 C.ar    1  UNL1        0.0001
     25 C         -23.0921   52.6955  -10.8879 C.ar    1  UNL1        0.0031
     26 C         -24.1079   51.8662  -10.3806 C.ar    1  UNL1        0.0371
     27 C         -25.3230   51.6670  -11.2018 C.ar    1  UNL1        0.1806
     28 N         -25.3118   51.3706  -12.5154 N.ar    1  UNL1       -0.1084
     29 N         -26.5870   51.2156  -12.8433 N.ar    1  UNL1       -0.0229
     30 N         -27.3526   51.3938  -11.7775 N.ar    1  UNL1       -0.0464
     31 N         -26.5846   51.6733  -10.7403 N.ar    1  UNL1       -0.2388
     32 H         -26.9216   51.8194   -9.7635 H       1  UNL1        0.1923
     33 C         -29.7874   50.4542   -8.9251 C.3     1  UNL1        0.0029
     34 C         -30.2173   49.0822   -8.4196 C.3     1  UNL1        0.0326
     35 C         -29.1915   48.3106   -1.1537 C.3     1  UNL1        0.3394
     36 C         -30.0095   47.2281   -0.4761 C.ar    1  UNL1        0.0505
     37 C         -30.0097   45.9354   -1.0328 C.ar    1  UNL1        0.0021
     38 C         -30.7673   44.9126   -0.4611 C.ar    1  UNL1       -0.0001
     39 C         -31.5405   45.1645    0.6702 C.ar    1  UNL1       -0.0003
     40 C         -31.5577   46.4398    1.2361 C.ar    1  UNL1       -0.0044
     41 C         -30.7923   47.4814    0.6814 C.ar    1  UNL1       -0.0193
     42 C         -30.8641   48.8473    1.3114 C.3     1  UNL1        0.0309
@<TRIPOS>BOND
     1    33    34    1
     2    34     1    1
     3     1     2    1
     4     2     3    1
     5     3     4    1
     6     4     5    1
     7     5     6    1
     8     6    35    1
     9    35    36    1
    10    36    37   ar
    11    37    38   ar
    12    38    39   ar
    13    39    40   ar
    14    40    41   ar
    15    41    42    1
    16     6     7    1
    17     7     8    2
    18     7     9    1
    19     9    10    1
    20    10    12    1
    21    12    13    1
    22    13    14    1
    23    14    15    1
    24    15    16   ar
    25    16    17   ar
    26    17    21    1
    27    21    22   ar
    28    22    23   ar
    29    23    24   ar
    30    24    25   ar
    31    25    26   ar
    32    26    27    1
    33    27    28   ar
    34    28    29   ar
    35    29    30   ar
    36    30    31   ar
    37    17    18   ar
    38    18    19   ar
    39    19    20   ar
    40    10     1    1
    41    20    12    1
    42     9     3    1
    43    20    15   ar
    44    41    36   ar
    45    26    21   ar
    46    31    27   ar
    47    31    32    1
    48     2    11    1
@<TRIPOS>MOLECULE
*****
 42 48 0 0 0
SMALL
GASTEIGER

@<TRIPOS>ATOM
      1 C         -31.1353   45.7723   -8.8646 C.3     1  UNL1        0.1158
      2 N         -31.1375   44.6111   -8.1643 N.3     1  UNL1       -0.2851
      3 C         -30.6828   44.9759   -6.9582 C.3     1  UNL1        0.0910
      4 C         -30.4787   44.1504   -5.8654 C.3     1  UNL1        0.1018
      5 C         -29.9760   44.7391   -4.6984 C.3     1  UNL1        0.3136
      6 N         -29.6973   46.0877   -4.6431 N.am    1  UNL1       -0.1294
      7 C         -29.8770   46.8871   -5.7554 C.2     1  UNL1        0.4047
      8 O         -29.5593   48.1053   -5.7230 O.2     1  UNL1       -0.2174
      9 C         -30.4072   46.3087   -6.9242 C.3     1  UNL1        0.2038
     10 N         -30.7064   46.8499   -8.1323 N.3     1  UNL1       -0.2473
     11 H         -30.5192   43.9237   -8.5951 H       1  UNL1        0.1244
     12 C         -30.5631   48.2603   -8.5552 C.3     1  UNL1        0.0817
     13 C         -31.1443   49.2508   -7.5217 C.3     1  UNL1        0.0252
     14 C         -30.0814   50.3474   -7.3065 C.3     1  UNL1        0.0278
     15 C         -28.8933   49.8519   -8.0448 C.ar    1  UNL1       -0.0248
     16 C         -27.6486   50.4779   -8.1354 C.ar    1  UNL1       -0.0045
     17 C         -26.6416   49.8885   -8.9266 C.ar    1  UNL1       -0.0002
     18 C         -26.9190   48.6903   -9.6235 C.ar    1  UNL1       -0.0003
     19 C         -28.1801   48.0852   -9.5224 C.ar    1  UNL1       -0.0033
     20 C         -29.1471   48.6777   -8.7082 C.ar    1  UNL1       -0.0117
     21 C         -25.3287   50.5590   -9.0822 C.ar    1  UNL1        0.0030
     22 C         -24.4133   50.4856   -8.0165 C.ar    1  UNL1        0.0001
     23 C         -23.2069   51.1850   -8.0642 C.ar    1  UNL1        0.0000
     24 C         -22.8994   51.9726   -9.1719 C.ar    1  UNL1        0.0001
     25 C         -23.7883   52.0486  -10.2451 C.ar    1  UNL1        0.0031
     26 C         -24.9981   51.3325  -10.2271 C.ar    1  UNL1        0.0371
     27 C         -25.8600   51.3856  -11.4291 C.ar    1  UNL1        0.1806
     28 N         -25.4300   51.1491  -12.6831 N.ar    1  UNL1       -0.1084
     29 N         -26.5150   51.2349  -13.4401 N.ar    1  UNL1       -0.0229
     30 N         -27.5719   51.4984  -12.6869 N.ar    1  UNL1       -0.0464
     31 N         -27.1872   51.5935  -11.4272 N.ar    1  UNL1       -0.2388
     32 H         -27.8216   51.7540  -10.6143 H       1  UNL1        0.1923
     33 C         -30.3742   45.6733  -11.2369 C.3     1  UNL1        0.0029
     34 C         -31.5735   45.7944  -10.3045 C.3     1  UNL1        0.0326
     35 C         -29.1644   46.6374   -3.3816 C.3     1  UNL1        0.3394
     36 C         -27.7193   46.2278   -3.1711 C.ar    1  UNL1        0.0505
     37 C         -27.4486   44.9294   -2.6999 C.ar    1  UNL1        0.0021
     38 C         -26.1371   44.5147   -2.4655 C.ar    1  UNL1       -0.0001
     39 C         -25.0766   45.3896   -2.6913 C.ar    1  UNL1       -0.0003
     40 C         -25.3229   46.6825   -3.1548 C.ar    1  UNL1       -0.0044
     41 C         -26.6369   47.1159   -3.4079 C.ar    1  UNL1       -0.0193
     42 C         -26.8545   48.5287   -3.8818 C.3     1  UNL1        0.0309
@<TRIPOS>BOND
     1    33    34    1
     2    34     1    1
     3     1     2    1
     4     2     3    1
     5     3     4    1
     6     4     5    1
     7     5     6    1
     8     6    35    1
     9    35    36    1
    10    36    37   ar
    11    37    38   ar
    12    38    39   ar
    13    39    40   ar
    14    40    41   ar
    15    41    42    1
    16     6     7    1
    17     7     8    2
    18     7     9    1
    19     9    10    1
    20    10    12    1
    21    12    13    1
    22    13    14    1
    23    14    15    1
    24    15    16   ar
    25    16    17   ar
    26    17    21    1
    27    21    22   ar
    28    22    23   ar
    29    23    24   ar
    30    24    25   ar
    31    25    26   ar
    32    26    27    1
    33    27    28   ar
    34    28    29   ar
    35    29    30   ar
    36    30    31   ar
    37    17    18   ar
    38    18    19   ar
    39    19    20   ar
    40    10     1    1
    41    20    12    1
    42     9     3    1
    43    20    15   ar
    44    41    36   ar
    45    26    21   ar
    46    31    27   ar
    47    31    32    1
    48     2    11    1
@<TRIPOS>MOLECULE
*****
 42 48 0 0 0
SMALL
GASTEIGER

@<TRIPOS>ATOM
      1 C         -31.3320   45.7224   -8.6605 C.3     1  UNL1        0.1158
      2 N         -31.5171   45.0704   -7.4860 N.3     1  UNL1       -0.2851
      3 C         -31.1878   45.9879   -6.5672 C.3     1  UNL1        0.0910
      4 C         -31.1902   45.8216   -5.1925 C.3     1  UNL1        0.1018
      5 C         -30.7902   46.9126   -4.4109 C.3     1  UNL1        0.3136
      6 N         -30.4104   48.1039   -4.9906 N.am    1  UNL1       -0.1294
      7 C         -30.3836   48.2377   -6.3654 C.2     1  UNL1        0.4047
      8 O         -29.9732   49.3044   -6.8942 O.2     1  UNL1       -0.2174
      9 C         -30.8098   47.1549   -7.1577 C.3     1  UNL1        0.2038
     10 N         -30.9104   47.0184   -8.5042 N.3     1  UNL1       -0.2473
     11 H         -30.9086   44.2543   -7.4216 H       1  UNL1        0.1244
     12 C         -30.5999   48.0240   -9.5439 C.3     1  UNL1        0.0817
     13 C         -31.4889   49.2828   -9.4350 C.3     1  UNL1        0.0252
     14 C         -30.5493   50.5027   -9.5209 C.3     1  UNL1        0.0278
     15 C         -29.1869   49.9162   -9.4732 C.ar    1  UNL1       -0.0248
     16 C         -27.9784   50.6150   -9.4939 C.ar    1  UNL1       -0.0045
     17 C         -26.7687   49.8912   -9.4938 C.ar    1  UNL1       -0.0002
     18 C         -26.8056   48.4780   -9.4915 C.ar    1  UNL1       -0.0003
     19 C         -28.0328   47.7994   -9.4787 C.ar    1  UNL1       -0.0033
     20 C         -29.2132   48.5443   -9.4500 C.ar    1  UNL1       -0.0117
     21 C         -25.4725   50.6067   -9.5685 C.ar    1  UNL1        0.0030
     22 C         -24.5974   50.5151   -8.4708 C.ar    1  UNL1        0.0001
     23 C         -23.4127   51.2516   -8.4408 C.ar    1  UNL1        0.0000
     24 C         -23.0874   52.0948   -9.5015 C.ar    1  UNL1        0.0001
     25 C         -23.9359   52.1901  -10.6055 C.ar    1  UNL1        0.0031
     26 C         -25.1222   51.4380  -10.6659 C.ar    1  UNL1        0.0371
     27 C         -25.9379   51.5169  -11.8984 C.ar    1  UNL1        0.1806
     28 N         -25.4510   51.3536  -13.1433 N.ar    1  UNL1       -0.1084
     29 N         -26.5081   51.4367  -13.9391 N.ar    1  UNL1       -0.0229
     30 N         -27.6024   51.6285  -13.2183 N.ar    1  UNL1       -0.0464
     31 N         -27.2709   51.6784  -11.9411 N.ar    1  UNL1       -0.2388
     32 H         -27.9419   51.7792  -11.1483 H       1  UNL1        0.1923
     33 C         -30.5979   45.4904  -11.0321 C.3     1  UNL1        0.0029
     34 C         -31.5839   45.0219   -9.9687 C.3     1  UNL1        0.0326
     35 C         -29.9955   49.2084   -4.1043 C.3     1  UNL1        0.3394
     36 C         -28.9272   50.0646   -4.7570 C.ar    1  UNL1        0.0505
     37 C         -27.6116   49.5684   -4.8210 C.ar    1  UNL1        0.0021
     38 C         -26.5889   50.3297   -5.3879 C.ar    1  UNL1       -0.0001
     39 C         -26.8609   51.5990   -5.8938 C.ar    1  UNL1       -0.0003
     40 C         -28.1574   52.1117   -5.8372 C.ar    1  UNL1       -0.0044
     41 C         -29.2044   51.3555   -5.2799 C.ar    1  UNL1       -0.0193
     42 C         -30.5814   51.9619   -5.2168 C.3     1  UNL1        0.0309
@<TRIPOS>BOND
     1    33    34    1
     2    34     1    1
     3     1     2    1
     4     2     3    1
     5     3     4    1
     6     4     5    1
     7     5     6    1
     8     6    35    1
     9    35    36    1
    10    36    37   ar
    11    37    38   ar
    12    38    39   ar
    13    39    40   ar
    14    40    41   ar
    15    41    42    1
    16     6     7    1
    17     7     8    2
    18     7     9    1
    19     9    10    1
    20    10    12    1
    21    12    13    1
    22    13    14    1
    23    14    15    1
    24    15    16   ar
    25    16    17   ar
    26    17    21    1
    27    21    22   ar
    28    22    23   ar
    29    23    24   ar
    30    24    25   ar
    31    25    26   ar
    32    26    27    1
    33    27    28   ar
    34    28    29   ar
    35    29    30   ar
    36    30    31   ar
    37    17    18   ar
    38    18    19   ar
    39    19    20   ar
    40    10     1    1
    41    20    12    1
    42     9     3    1
    43    20    15   ar
    44    41    36   ar
    45    26    21   ar
    46    31    27   ar
    47    31    32    1
    48     2    11    1
