@<TRIPOS>MOLECULE
*****
 37 41 0 0 0
SMALL
GASTEIGER

@<TRIPOS>ATOM
      1 C         -24.8608   -9.2830  -13.5895 C.2     1  UNL1        0.2491
      2 O         -26.1074   -9.4659  -13.5335 O.2     1  UNL1       -0.2699
      3 N         -24.2992   -8.0211  -13.1631 N.am    1  UNL1       -0.2760
      4 C         -25.1793   -7.0543  -12.4870 C.3     1  UNL1        0.0954
      5 C         -24.4088   -5.8159  -11.9991 C.3     1  UNL1        0.0399
      6 C         -23.0276   -6.1956  -11.4152 C.3     1  UNL1        0.0645
      7 C         -22.1674   -6.8936  -12.5148 C.3     1  UNL1        0.0399
      8 C         -22.9782   -7.5763  -13.6344 C.3     1  UNL1        0.0954
      9 C         -23.2242   -7.1534  -10.1849 C.3     1  UNL1        0.0477
     10 C         -21.9679   -7.2405   -9.3760 C.ar    1  UNL1        0.0220
     11 C         -21.5131   -8.2069   -8.5113 C.ar    1  UNL1        0.0923
     12 N         -20.3599   -7.7552   -7.9571 N.ar    1  UNL1       -0.2534
     13 N         -20.0855   -6.5384   -8.4215 N.ar    1  UNL1       -0.1651
     14 C         -21.0695   -6.2247   -9.2819 C.ar    1  UNL1        0.1515
     15 C         -21.2379   -5.0038  -10.0560 C.2     1  UNL1        0.2650
     16 O         -20.4706   -4.0174   -9.9024 O.2     1  UNL1       -0.2684
     17 N         -22.3281   -4.9572  -10.9915 N.am    1  UNL1       -0.3023
     18 H         -22.5060   -4.0612  -11.5004 H       1  UNL1        0.1497
     19 C         -21.2526  -12.7929  -13.1707 C.ar    1  UNL1        0.2249
     20 N         -20.5190  -13.7502  -13.8046 N.ar    1  UNL1       -0.2101
     21 C         -20.6878  -14.0545  -15.1136 C.ar    1  UNL1        0.1021
     22 C         -21.6498  -13.3906  -15.8633 C.ar    1  UNL1        0.0209
     23 C         -22.4312  -12.3964  -15.2622 C.ar    1  UNL1        0.0061
     24 C         -23.4148  -11.7494  -16.0175 C.ar    1  UNL1        0.0003
     25 C         -24.2056  -10.7611  -15.4457 C.ar    1  UNL1        0.0046
     26 C         -24.0178  -10.3786  -14.1151 C.ar    1  UNL1        0.0565
     27 C         -23.0346  -11.0219  -13.3210 C.ar    1  UNL1        0.0436
     28 C         -22.2334  -12.0569  -13.8954 C.ar    1  UNL1        0.0561
     29 C         -22.8698  -10.6041  -11.9116 C.2     1  UNL1        0.1738
     30 C         -23.9424  -10.8727  -10.9043 C.3     1  UNL1        0.0773
     31 O         -21.8242   -9.9949  -11.5615 O.2     1  UNL1       -0.2913
     32 C         -19.7935  -12.8320  -11.1618 C.3     1  UNL1        0.2542
     33 O         -21.0325  -12.5643  -11.8076 O.3     1  UNL1       -0.4561
     34 C         -19.5281   -8.4847   -6.9793 C.3     1  UNL1        0.0867
     35 C         -18.8170   -9.6567   -7.6830 C.3     1  UNL1        0.0244
     36 C         -20.4219   -9.0234   -5.8466 C.3     1  UNL1        0.0244
     37 C         -18.4605   -7.5508   -6.3695 C.3     1  UNL1        0.0244
@<TRIPOS>BOND
     1    32    33    1
     2    33    19    1
     3    19    20   ar
     4    20    21   ar
     5    21    22   ar
     6    22    23   ar
     7    23    24   ar
     8    24    25   ar
     9    25    26   ar
    10    26     1    1
    11     1     2    2
    12     1     3   am
    13     3     4    1
    14     4     5    1
    15     5     6    1
    16     6     7    1
    17     7     8    1
    18     6     9    1
    19     9    10    1
    20    10    11   ar
    21    11    12   ar
    22    12    34    1
    23    34    35    1
    24    34    36    1
    25    34    37    1
    26    12    13   ar
    27    13    14   ar
    28    14    15    1
    29    15    16    2
    30    15    17   am
    31    26    27   ar
    32    27    29    1
    33    29    30    1
    34    29    31    2
    35    27    28   ar
    36    28    19   ar
    37    28    23   ar
    38     8     3    1
    39    14    10   ar
    40    17     6    1
    41    17    18    1
@<TRIPOS>MOLECULE
*****
 37 41 0 0 0
SMALL
GASTEIGER

@<TRIPOS>ATOM
      1 C         -21.4819  -10.6439  -11.5256 C.2     1  UNL1        0.2491
      2 O         -20.3910  -10.3988  -10.9422 O.2     1  UNL1       -0.2699
      3 N         -22.7275  -10.2124  -10.9326 N.am    1  UNL1       -0.2760
      4 C         -22.6757   -9.3227   -9.7612 C.3     1  UNL1        0.0954
      5 C         -24.0769   -8.8671   -9.3204 C.3     1  UNL1        0.0399
      6 C         -24.9834   -8.5522  -10.5336 C.3     1  UNL1        0.0645
      7 C         -25.1490   -9.8325  -11.4107 C.3     1  UNL1        0.0399
      8 C         -24.0030  -10.8562  -11.2845 C.3     1  UNL1        0.0954
      9 C         -24.3449   -7.3902  -11.3771 C.3     1  UNL1        0.0477
     10 C         -25.3490   -6.8094  -12.3229 C.ar    1  UNL1        0.0220
     11 C         -25.1899   -6.1147  -13.4978 C.ar    1  UNL1        0.0923
     12 N         -26.4199   -5.7222  -13.9151 N.ar    1  UNL1       -0.2534
     13 N         -27.3395   -6.1228  -13.0401 N.ar    1  UNL1       -0.1651
     14 C         -26.6840   -6.7803  -12.0680 C.ar    1  UNL1        0.1515
     15 C         -27.2313   -7.4119  -10.8766 C.2     1  UNL1        0.2650
     16 O         -28.4497   -7.3054  -10.5773 O.2     1  UNL1       -0.2684
     17 N         -26.3234   -8.1481  -10.0400 N.am    1  UNL1       -0.3023
     18 H         -26.6870   -8.5444   -9.1434 H       1  UNL1        0.1497
     19 C         -22.0559  -11.0600  -16.5268 C.ar    1  UNL1        0.2249
     20 N         -22.0145  -11.8841  -17.6110 N.ar    1  UNL1       -0.2101
     21 C         -21.6844  -13.1947  -17.5221 C.ar    1  UNL1        0.1021
     22 C         -21.3559  -13.7469  -16.2910 C.ar    1  UNL1        0.0209
     23 C         -21.3834  -12.9454  -15.1434 C.ar    1  UNL1        0.0061
     24 C         -21.0275  -13.5028  -13.9109 C.ar    1  UNL1        0.0003
     25 C         -21.0438  -12.7299  -12.7570 C.ar    1  UNL1        0.0046
     26 C         -21.4383  -11.3903  -12.8016 C.ar    1  UNL1        0.0565
     27 C         -21.7965  -10.7941  -14.0375 C.ar    1  UNL1        0.0436
     28 C         -21.7586  -11.5765  -15.2331 C.ar    1  UNL1        0.0561
     29 C         -22.1959   -9.3699  -14.0539 C.2     1  UNL1        0.1738
     30 C         -21.1716   -8.2872  -13.9280 C.3     1  UNL1        0.0773
     31 O         -23.4147   -9.0667  -14.1517 O.2     1  UNL1       -0.2913
     32 C         -23.3091   -9.2600  -17.6911 C.3     1  UNL1        0.2542
     33 O         -22.3781   -9.7111  -16.7146 O.3     1  UNL1       -0.4561
     34 C         -26.7117   -4.9588  -15.1448 C.3     1  UNL1        0.0867
     35 C         -28.2261   -4.9987  -15.4269 C.3     1  UNL1        0.0244
     36 C         -25.9458   -5.5799  -16.3278 C.3     1  UNL1        0.0244
     37 C         -26.2752   -3.4863  -14.9872 C.3     1  UNL1        0.0244
@<TRIPOS>BOND
     1    32    33    1
     2    33    19    1
     3    19    20   ar
     4    20    21   ar
     5    21    22   ar
     6    22    23   ar
     7    23    24   ar
     8    24    25   ar
     9    25    26   ar
    10    26     1    1
    11     1     2    2
    12     1     3   am
    13     3     4    1
    14     4     5    1
    15     5     6    1
    16     6     7    1
    17     7     8    1
    18     6     9    1
    19     9    10    1
    20    10    11   ar
    21    11    12   ar
    22    12    34    1
    23    34    35    1
    24    34    36    1
    25    34    37    1
    26    12    13   ar
    27    13    14   ar
    28    14    15    1
    29    15    16    2
    30    15    17   am
    31    26    27   ar
    32    27    29    1
    33    29    30    1
    34    29    31    2
    35    27    28   ar
    36    28    19   ar
    37    28    23   ar
    38     8     3    1
    39    14    10   ar
    40    17     6    1
    41    17    18    1
@<TRIPOS>MOLECULE
*****
 37 41 0 0 0
SMALL
GASTEIGER

@<TRIPOS>ATOM
      1 C         -20.4922   -8.0997   -8.2557 C.2     1  UNL1        0.2491
      2 O         -20.1903   -7.0207   -7.6767 O.2     1  UNL1       -0.2699
      3 N         -21.8172   -8.2741   -8.8064 N.am    1  UNL1       -0.2760
      4 C         -22.7167   -7.1100   -8.8521 C.3     1  UNL1        0.0954
      5 C         -24.0410   -7.4318   -9.5648 C.3     1  UNL1        0.0399
      6 C         -23.8192   -8.3295  -10.8048 C.3     1  UNL1        0.0645
      7 C         -23.1702   -9.6793  -10.3656 C.3     1  UNL1        0.0399
      8 C         -22.3721   -9.6153   -9.0481 C.3     1  UNL1        0.0954
      9 C         -22.8911   -7.5850  -11.8314 C.3     1  UNL1        0.0477
     10 C         -22.9560   -8.2403  -13.1754 C.ar    1  UNL1        0.0220
     11 C         -22.0701   -8.2411  -14.2259 C.ar    1  UNL1        0.0923
     12 N         -22.6517   -8.9057  -15.2559 N.ar    1  UNL1       -0.2534
     13 N         -23.8723   -9.3016  -14.9022 N.ar    1  UNL1       -0.1651
     14 C         -24.0576   -8.8902  -13.6359 C.ar    1  UNL1        0.1515
     15 C         -25.2278   -9.0696  -12.7895 C.2     1  UNL1        0.2650
     16 O         -26.2894   -9.5791  -13.2356 O.2     1  UNL1       -0.2684
     17 N         -25.1344   -8.6243  -11.4260 N.am    1  UNL1       -0.3023
     18 H         -25.9900   -8.6789  -10.8276 H       1  UNL1        0.1497
     19 C         -16.6665  -10.8112   -6.3780 C.ar    1  UNL1        0.2249
     20 N         -15.7439  -11.7869   -6.6089 N.ar    1  UNL1       -0.2101
     21 C         -15.6600  -12.4510   -7.7863 C.ar    1  UNL1        0.1021
     22 C         -16.5459  -12.1577   -8.8148 C.ar    1  UNL1        0.0209
     23 C         -17.5136  -11.1626   -8.6318 C.ar    1  UNL1        0.0061
     24 C         -18.4180  -10.8899   -9.6635 C.ar    1  UNL1        0.0003
     25 C         -19.3895   -9.9096   -9.5080 C.ar    1  UNL1        0.0046
     26 C         -19.4663   -9.1624   -8.3298 C.ar    1  UNL1        0.0565
     27 C         -18.5692   -9.4212   -7.2624 C.ar    1  UNL1        0.0436
     28 C         -17.5823  -10.4453   -7.4057 C.ar    1  UNL1        0.0561
     29 C         -18.6853   -8.6227   -6.0227 C.2     1  UNL1        0.1738
     30 C         -19.6539   -9.0111   -4.9511 C.3     1  UNL1        0.0773
     31 O         -17.9767   -7.5912   -5.8785 O.2     1  UNL1       -0.2913
     32 C         -15.5626   -9.6001   -4.5124 C.3     1  UNL1        0.2542
     33 O         -16.7014  -10.1974   -5.1207 O.3     1  UNL1       -0.4561
     34 C         -22.0423   -9.1535  -16.5778 C.3     1  UNL1        0.0867
     35 C         -20.7166   -8.3754  -16.6861 C.3     1  UNL1        0.0244
     36 C         -23.0092   -8.6898  -17.6832 C.3     1  UNL1        0.0244
     37 C         -21.7516  -10.6576  -16.7693 C.3     1  UNL1        0.0244
@<TRIPOS>BOND
     1    32    33    1
     2    33    19    1
     3    19    20   ar
     4    20    21   ar
     5    21    22   ar
     6    22    23   ar
     7    23    24   ar
     8    24    25   ar
     9    25    26   ar
    10    26     1    1
    11     1     2    2
    12     1     3   am
    13     3     4    1
    14     4     5    1
    15     5     6    1
    16     6     7    1
    17     7     8    1
    18     6     9    1
    19     9    10    1
    20    10    11   ar
    21    11    12   ar
    22    12    34    1
    23    34    35    1
    24    34    36    1
    25    34    37    1
    26    12    13   ar
    27    13    14   ar
    28    14    15    1
    29    15    16    2
    30    15    17   am
    31    26    27   ar
    32    27    29    1
    33    29    30    1
    34    29    31    2
    35    27    28   ar
    36    28    19   ar
    37    28    23   ar
    38     8     3    1
    39    14    10   ar
    40    17     6    1
    41    17    18    1
@<TRIPOS>MOLECULE
*****
 37 41 0 0 0
SMALL
GASTEIGER

@<TRIPOS>ATOM
      1 C         -28.5477   -6.0171  -13.9016 C.2     1  UNL1        0.2491
      2 O         -29.7309   -6.4034  -13.6980 O.2     1  UNL1       -0.2699
      3 N         -27.5039   -6.3738  -12.9674 N.am    1  UNL1       -0.2760
      4 C         -27.8136   -7.3470  -11.9076 C.3     1  UNL1        0.0954
      5 C         -26.5734   -7.7023  -11.0703 C.3     1  UNL1        0.0399
      6 C         -25.3101   -7.8436  -11.9517 C.3     1  UNL1        0.0645
      7 C         -25.0260   -6.4932  -12.6811 C.3     1  UNL1        0.0399
      8 C         -26.2610   -5.5914  -12.8775 C.3     1  UNL1        0.0954
      9 C         -25.5277   -8.9953  -12.9986 C.3     1  UNL1        0.0477
     10 C         -24.2247   -9.4110  -13.6064 C.ar    1  UNL1        0.0220
     11 C         -23.9390  -10.0304  -14.7993 C.ar    1  UNL1        0.0923
     12 N         -22.6050  -10.2765  -14.8275 N.ar    1  UNL1       -0.2534
     13 N         -22.0474   -9.8574  -13.6939 N.ar    1  UNL1       -0.1651
     14 C         -23.0372   -9.3353  -12.9491 C.ar    1  UNL1        0.1515
     15 C         -22.9539   -8.7439  -11.6220 C.2     1  UNL1        0.2650
     16 O         -21.8817   -8.7591  -10.9620 O.2     1  UNL1       -0.2684
     17 N         -24.1496   -8.1572  -11.0814 N.am    1  UNL1       -0.3023
     18 H         -24.1239   -7.7950  -10.1009 H       1  UNL1        0.1497
     19 C         -29.9356   -2.9105  -17.6348 C.ar    1  UNL1        0.2249
     20 N         -29.5492   -2.2303  -18.7503 N.ar    1  UNL1       -0.2101
     21 C         -28.2797   -2.2581  -19.2216 C.ar    1  UNL1        0.1021
     22 C         -27.3062   -2.9898  -18.5542 C.ar    1  UNL1        0.0209
     23 C         -27.6488   -3.7090  -17.4029 C.ar    1  UNL1        0.0061
     24 C         -26.6574   -4.4236  -16.7224 C.ar    1  UNL1        0.0003
     25 C         -26.9691   -5.1437  -15.5764 C.ar    1  UNL1        0.0046
     26 C         -28.2805   -5.1874  -15.0963 C.ar    1  UNL1        0.0565
     27 C         -29.3061   -4.4662  -15.7592 C.ar    1  UNL1        0.0436
     28 C         -28.9883   -3.7030  -16.9252 C.ar    1  UNL1        0.0561
     29 C         -30.6816   -4.5211  -15.2180 C.2     1  UNL1        0.1738
     30 C         -31.1813   -3.4589  -14.2909 C.3     1  UNL1        0.0773
     31 O         -31.4323   -5.4855  -15.5234 O.2     1  UNL1       -0.2913
     32 C         -32.1753   -1.8417  -17.7200 C.3     1  UNL1        0.2542
     33 O         -31.2619   -2.8012  -17.2016 O.3     1  UNL1       -0.4561
     34 C         -21.8685  -10.9187  -15.9345 C.3     1  UNL1        0.0867
     35 C         -21.2696  -12.2523  -15.4474 C.3     1  UNL1        0.0244
     36 C         -20.7400   -9.9845  -16.4095 C.3     1  UNL1        0.0244
     37 C         -22.8123  -11.2034  -17.1227 C.3     1  UNL1        0.0244
@<TRIPOS>BOND
     1    32    33    1
     2    33    19    1
     3    19    20   ar
     4    20    21   ar
     5    21    22   ar
     6    22    23   ar
     7    23    24   ar
     8    24    25   ar
     9    25    26   ar
    10    26     1    1
    11     1     2    2
    12     1     3   am
    13     3     4    1
    14     4     5    1
    15     5     6    1
    16     6     7    1
    17     7     8    1
    18     6     9    1
    19     9    10    1
    20    10    11   ar
    21    11    12   ar
    22    12    34    1
    23    34    35    1
    24    34    36    1
    25    34    37    1
    26    12    13   ar
    27    13    14   ar
    28    14    15    1
    29    15    16    2
    30    15    17   am
    31    26    27   ar
    32    27    29    1
    33    29    30    1
    34    29    31    2
    35    27    28   ar
    36    28    19   ar
    37    28    23   ar
    38     8     3    1
    39    14    10   ar
    40    17     6    1
    41    17    18    1
@<TRIPOS>MOLECULE
*****
 37 41 0 0 0
SMALL
GASTEIGER

@<TRIPOS>ATOM
      1 C         -24.1854   -9.9447  -13.1794 C.2     1  UNL1        0.2491
      2 O         -25.4155  -10.2222  -13.1607 O.2     1  UNL1       -0.2699
      3 N         -23.7395   -8.6263  -12.7890 N.am    1  UNL1       -0.2760
      4 C         -24.7172   -7.7042  -12.1888 C.3     1  UNL1        0.0954
      5 C         -24.0638   -6.3903  -11.7284 C.3     1  UNL1        0.0399
      6 C         -22.6818   -6.6363  -11.0784 C.3     1  UNL1        0.0645
      7 C         -21.7278   -7.3096  -12.1141 C.3     1  UNL1        0.0399
      8 C         -22.4388   -8.0992  -13.2312 C.3     1  UNL1        0.0954
      9 C         -22.8531   -7.5550   -9.8150 C.3     1  UNL1        0.0477
     10 C         -21.6269   -7.5101   -8.9579 C.ar    1  UNL1        0.0220
     11 C         -21.1341   -8.4014   -8.0354 C.ar    1  UNL1        0.0923
     12 N         -20.0418   -7.8384   -7.4601 N.ar    1  UNL1       -0.2534
     13 N         -19.8432   -6.6240   -7.9675 N.ar    1  UNL1       -0.1651
     14 C         -20.8135   -6.4240   -8.8762 C.ar    1  UNL1        0.1515
     15 C         -21.0441   -5.2531   -9.7090 C.2     1  UNL1        0.2650
     16 O         -20.3613   -4.2041   -9.5715 O.2     1  UNL1       -0.2684
     17 N         -22.0967   -5.3305  -10.6848 N.am    1  UNL1       -0.3023
     18 H         -22.3224   -4.4730  -11.2388 H       1  UNL1        0.1497
     19 C         -22.0856  -12.9324  -16.6692 C.ar    1  UNL1        0.2249
     20 N         -21.2023  -13.9387  -16.9215 N.ar    1  UNL1       -0.2101
     21 C         -20.4535  -14.5156  -15.9515 C.ar    1  UNL1        0.1021
     22 C         -20.5578  -14.0757  -14.6384 C.ar    1  UNL1        0.0209
     23 C         -21.4513  -13.0450  -14.3228 C.ar    1  UNL1        0.0061
     24 C         -21.5328  -12.5908  -13.0024 C.ar    1  UNL1        0.0003
     25 C         -22.4088  -11.5682  -12.6619 C.ar    1  UNL1        0.0046
     26 C         -23.2407  -10.9917  -13.6251 C.ar    1  UNL1        0.0565
     27 C         -23.1751  -11.4246  -14.9740 C.ar    1  UNL1        0.0436
     28 C         -22.2586  -12.4596  -15.3368 C.ar    1  UNL1        0.0561
     29 C         -24.0587  -10.7846  -15.9728 C.2     1  UNL1        0.1738
     30 C         -23.6148   -9.5647  -16.7161 C.3     1  UNL1        0.0773
     31 O         -25.2067  -11.2591  -16.1827 O.2     1  UNL1       -0.2913
     32 C         -22.3376  -12.4072  -19.0831 C.3     1  UNL1        0.2542
     33 O         -22.7968  -12.3733  -17.7371 O.3     1  UNL1       -0.4561
     34 C         -19.1960   -8.4596   -6.4214 C.3     1  UNL1        0.0867
     35 C         -18.5146   -9.7159   -6.9975 C.3     1  UNL1        0.0244
     36 C         -20.0694   -8.8490   -5.2142 C.3     1  UNL1        0.0244
     37 C         -18.1040   -7.4756   -5.9491 C.3     1  UNL1        0.0244
@<TRIPOS>BOND
     1    32    33    1
     2    33    19    1
     3    19    20   ar
     4    20    21   ar
     5    21    22   ar
     6    22    23   ar
     7    23    24   ar
     8    24    25   ar
     9    25    26   ar
    10    26     1    1
    11     1     2    2
    12     1     3   am
    13     3     4    1
    14     4     5    1
    15     5     6    1
    16     6     7    1
    17     7     8    1
    18     6     9    1
    19     9    10    1
    20    10    11   ar
    21    11    12   ar
    22    12    34    1
    23    34    35    1
    24    34    36    1
    25    34    37    1
    26    12    13   ar
    27    13    14   ar
    28    14    15    1
    29    15    16    2
    30    15    17   am
    31    26    27   ar
    32    27    29    1
    33    29    30    1
    34    29    31    2
    35    27    28   ar
    36    28    19   ar
    37    28    23   ar
    38     8     3    1
    39    14    10   ar
    40    17     6    1
    41    17    18    1
@<TRIPOS>MOLECULE
*****
 37 41 0 0 0
SMALL
GASTEIGER

@<TRIPOS>ATOM
      1 C         -20.8828   -6.9483   -9.2418 C.2     1  UNL1        0.2491
      2 O         -20.4958   -5.7751   -9.4957 O.2     1  UNL1       -0.2699
      3 N         -22.1406   -7.4216   -9.7739 N.am    1  UNL1       -0.2760
      4 C         -22.8420   -6.5877  -10.7634 C.3     1  UNL1        0.0954
      5 C         -24.1013   -7.2795  -11.3119 C.3     1  UNL1        0.0399
      6 C         -23.8657   -8.7895  -11.5510 C.3     1  UNL1        0.0645
      7 C         -23.4866   -9.4807  -10.2039 C.3     1  UNL1        0.0399
      8 C         -22.8570   -8.5462   -9.1516 C.3     1  UNL1        0.0954
      9 C         -22.7164   -8.9799  -12.6057 C.3     1  UNL1        0.0477
     10 C         -22.7126  -10.3789  -13.1375 C.ar    1  UNL1        0.0220
     11 C         -21.7140  -11.1248  -13.7161 C.ar    1  UNL1        0.0923
     12 N         -22.2573  -12.3016  -14.1171 N.ar    1  UNL1       -0.2534
     13 N         -23.5579  -12.3149  -13.8340 N.ar    1  UNL1       -0.1651
     14 C         -23.8341  -11.1401  -13.2420 C.ar    1  UNL1        0.1515
     15 C         -25.1135  -10.6584  -12.7430 C.2     1  UNL1        0.2650
     16 O         -26.1764  -11.3088  -12.9241 O.2     1  UNL1       -0.2684
     17 N         -25.1233   -9.3988  -12.0506 N.am    1  UNL1       -0.3023
     18 H         -26.0447   -9.0052  -11.7517 H       1  UNL1        0.1497
     19 C         -17.9104  -10.9384   -8.3713 C.ar    1  UNL1        0.2249
     20 N         -17.1927  -11.6421   -7.4513 N.ar    1  UNL1       -0.2101
     21 C         -17.0978  -11.2659   -6.1536 C.ar    1  UNL1        0.1021
     22 C         -17.7355  -10.1127   -5.7155 C.ar    1  UNL1        0.0209
     23 C         -18.4878   -9.3522   -6.6188 C.ar    1  UNL1        0.0061
     24 C         -19.1069   -8.1788   -6.1756 C.ar    1  UNL1        0.0003
     25 C         -19.8573   -7.4042   -7.0509 C.ar    1  UNL1        0.0046
     26 C         -20.0274   -7.7943   -8.3817 C.ar    1  UNL1        0.0565
     27 C         -19.4052   -8.9742   -8.8632 C.ar    1  UNL1        0.0436
     28 C         -18.6113   -9.7636   -7.9746 C.ar    1  UNL1        0.0561
     29 C         -19.5928   -9.3527  -10.2808 C.2     1  UNL1        0.1738
     30 C         -19.0251   -8.5101  -11.3786 C.3     1  UNL1        0.0773
     31 O         -20.2578  -10.3837  -10.5667 O.2     1  UNL1       -0.2913
     32 C         -17.8671  -12.7573  -10.0612 C.3     1  UNL1        0.2542
     33 O         -17.9296  -11.3833   -9.6981 O.3     1  UNL1       -0.4561
     34 C         -21.5335  -13.4066  -14.7769 C.3     1  UNL1        0.0867
     35 C         -20.2311  -13.6993  -14.0072 C.3     1  UNL1        0.0244
     36 C         -21.2022  -13.0086  -16.2273 C.3     1  UNL1        0.0244
     37 C         -22.3964  -14.6867  -14.7967 C.3     1  UNL1        0.0244
@<TRIPOS>BOND
     1    32    33    1
     2    33    19    1
     3    19    20   ar
     4    20    21   ar
     5    21    22   ar
     6    22    23   ar
     7    23    24   ar
     8    24    25   ar
     9    25    26   ar
    10    26     1    1
    11     1     2    2
    12     1     3   am
    13     3     4    1
    14     4     5    1
    15     5     6    1
    16     6     7    1
    17     7     8    1
    18     6     9    1
    19     9    10    1
    20    10    11   ar
    21    11    12   ar
    22    12    34    1
    23    34    35    1
    24    34    36    1
    25    34    37    1
    26    12    13   ar
    27    13    14   ar
    28    14    15    1
    29    15    16    2
    30    15    17   am
    31    26    27   ar
    32    27    29    1
    33    29    30    1
    34    29    31    2
    35    27    28   ar
    36    28    19   ar
    37    28    23   ar
    38     8     3    1
    39    14    10   ar
    40    17     6    1
    41    17    18    1
@<TRIPOS>MOLECULE
*****
 37 41 0 0 0
SMALL
GASTEIGER

@<TRIPOS>ATOM
      1 C         -20.4442   -7.5244   -9.1418 C.2     1  UNL1        0.2491
      2 O         -19.9524   -6.3862   -8.9111 O.2     1  UNL1       -0.2699
      3 N         -21.8303   -7.6429   -9.5342 N.am    1  UNL1       -0.2760
      4 C         -22.5781   -6.4145   -9.8477 C.3     1  UNL1        0.0954
      5 C         -23.9986   -6.7171  -10.3536 C.3     1  UNL1        0.0399
      6 C         -24.0193   -7.9389  -11.3021 C.3     1  UNL1        0.0645
      7 C         -23.5011   -9.2006  -10.5433 C.3     1  UNL1        0.0399
      8 C         -22.5696   -8.9020   -9.3517 C.3     1  UNL1        0.0954
      9 C         -23.1168   -7.6451  -12.5547 C.3     1  UNL1        0.0477
     10 C         -23.4011   -8.6219  -13.6525 C.ar    1  UNL1        0.0220
     11 C         -22.6354   -9.0375  -14.7152 C.ar    1  UNL1        0.0923
     12 N         -23.3983   -9.8619  -15.4763 N.ar    1  UNL1       -0.2534
     13 N         -24.6155   -9.9623  -14.9472 N.ar    1  UNL1       -0.1651
     14 C         -24.6165   -9.2015  -13.8389 C.ar    1  UNL1        0.1515
     15 C         -25.7062   -8.9704  -12.9024 C.2     1  UNL1        0.2650
     16 O         -26.8633   -9.4184  -13.1172 O.2     1  UNL1       -0.2684
     17 N         -25.4180   -8.1924  -11.7287 N.am    1  UNL1       -0.3023
     18 H         -26.2073   -7.9560  -11.0850 H       1  UNL1        0.1497
     19 C         -17.4591  -10.5903   -6.4579 C.ar    1  UNL1        0.2249
     20 N         -16.6439  -11.6820   -6.4723 N.ar    1  UNL1       -0.2101
     21 C         -16.4126  -12.4080   -7.5921 C.ar    1  UNL1        0.1021
     22 C         -17.0282  -12.0586   -8.7869 C.ar    1  UNL1        0.0209
     23 C         -17.8751  -10.9445   -8.8290 C.ar    1  UNL1        0.0061
     24 C         -18.5108  -10.6134  -10.0302 C.ar    1  UNL1        0.0003
     25 C         -19.3577   -9.5149  -10.0997 C.ar    1  UNL1        0.0046
     26 C         -19.5715   -8.7074   -8.9797 C.ar    1  UNL1        0.0565
     27 C         -18.9482   -9.0221   -7.7453 C.ar    1  UNL1        0.0436
     28 C         -18.0945  -10.1652   -7.6597 C.ar    1  UNL1        0.0561
     29 C         -19.2058   -8.1559   -6.5743 C.2     1  UNL1        0.1738
     30 C         -18.1642   -7.1992   -6.0871 C.3     1  UNL1        0.0773
     31 O         -20.3062   -8.2417   -5.9670 O.2     1  UNL1       -0.2913
     32 C         -18.0511  -10.5715   -4.0464 C.3     1  UNL1        0.2542
     33 O         -17.6654   -9.9164   -5.2488 O.3     1  UNL1       -0.4561
     34 C         -22.9642  -10.5448  -16.7113 C.3     1  UNL1        0.0867
     35 C         -23.2413   -9.6366  -17.9250 C.3     1  UNL1        0.0244
     36 C         -23.7373  -11.8679  -16.8645 C.3     1  UNL1        0.0244
     37 C         -21.4526  -10.8547  -16.6587 C.3     1  UNL1        0.0244
@<TRIPOS>BOND
     1    32    33    1
     2    33    19    1
     3    19    20   ar
     4    20    21   ar
     5    21    22   ar
     6    22    23   ar
     7    23    24   ar
     8    24    25   ar
     9    25    26   ar
    10    26     1    1
    11     1     2    2
    12     1     3   am
    13     3     4    1
    14     4     5    1
    15     5     6    1
    16     6     7    1
    17     7     8    1
    18     6     9    1
    19     9    10    1
    20    10    11   ar
    21    11    12   ar
    22    12    34    1
    23    34    35    1
    24    34    36    1
    25    34    37    1
    26    12    13   ar
    27    13    14   ar
    28    14    15    1
    29    15    16    2
    30    15    17   am
    31    26    27   ar
    32    27    29    1
    33    29    30    1
    34    29    31    2
    35    27    28   ar
    36    28    19   ar
    37    28    23   ar
    38     8     3    1
    39    14    10   ar
    40    17     6    1
    41    17    18    1
@<TRIPOS>MOLECULE
*****
 37 41 0 0 0
SMALL
GASTEIGER

@<TRIPOS>ATOM
      1 C         -22.4266   -6.4219  -11.4728 C.2     1  UNL1        0.2491
      2 O         -22.1456   -5.2947  -11.9640 O.2     1  UNL1       -0.2699
      3 N         -23.5595   -7.1641  -11.9778 N.am    1  UNL1       -0.2760
      4 C         -24.2366   -6.6730  -13.1889 C.3     1  UNL1        0.0954
      5 C         -25.3452   -7.6300  -13.6583 C.3     1  UNL1        0.0399
      6 C         -24.9205   -9.1106  -13.5153 C.3     1  UNL1        0.0645
      7 C         -24.6163   -9.4264  -12.0174 C.3     1  UNL1        0.0399
      8 C         -24.2113   -8.2053  -11.1677 C.3     1  UNL1        0.0954
      9 C         -23.6494   -9.3788  -14.3997 C.3     1  UNL1        0.0477
     10 C         -23.4342  -10.8483  -14.5850 C.ar    1  UNL1        0.0220
     11 C         -22.3028  -11.5662  -14.8894 C.ar    1  UNL1        0.0923
     12 N         -22.6667  -12.8641  -15.0444 N.ar    1  UNL1       -0.2534
     13 N         -23.9808  -12.9853  -14.8715 N.ar    1  UNL1       -0.1651
     14 C         -24.4472  -11.7548  -14.5970 C.ar    1  UNL1        0.1515
     15 C         -25.8184  -11.3468  -14.3299 C.2     1  UNL1        0.2650
     16 O         -26.7773  -12.1558  -14.4375 O.2     1  UNL1       -0.2684
     17 N         -26.0417   -9.9768  -13.9567 N.am    1  UNL1       -0.3023
     18 H         -27.0278   -9.6515  -13.8339 H       1  UNL1        0.1497
     19 C         -19.2499   -9.7609   -9.4055 C.ar    1  UNL1        0.2249
     20 N         -18.5572  -10.1324   -8.2926 N.ar    1  UNL1       -0.2101
     21 C         -18.5915   -9.4239   -7.1387 C.ar    1  UNL1        0.1021
     22 C         -19.3435   -8.2590   -7.0601 C.ar    1  UNL1        0.0209
     23 C         -20.0761   -7.8317   -8.1741 C.ar    1  UNL1        0.0061
     24 C         -20.8113   -6.6444   -8.0949 C.ar    1  UNL1        0.0003
     25 C         -21.5452   -6.1961   -9.1855 C.ar    1  UNL1        0.0046
     26 C         -21.5820   -6.9334  -10.3718 C.ar    1  UNL1        0.0565
     27 C         -20.8401   -8.1366  -10.4860 C.ar    1  UNL1        0.0436
     28 C         -20.0630   -8.5918   -9.3760 C.ar    1  UNL1        0.0561
     29 C         -20.8884   -8.8869  -11.7598 C.2     1  UNL1        0.1738
     30 C         -20.2923   -8.3151  -13.0069 C.3     1  UNL1        0.0773
     31 O         -21.4583  -10.0097  -11.7994 O.2     1  UNL1       -0.2913
     32 C         -19.1596  -11.9584  -10.5583 C.3     1  UNL1        0.2542
     33 O         -19.1330  -10.5361  -10.5649 O.3     1  UNL1       -0.4561
     34 C         -21.7584  -13.9833  -15.3650 C.3     1  UNL1        0.0867
     35 C         -21.2835  -13.8571  -16.8255 C.3     1  UNL1        0.0244
     36 C         -22.5022  -15.3182  -15.1735 C.3     1  UNL1        0.0244
     37 C         -20.5236  -13.9641  -14.4384 C.3     1  UNL1        0.0244
@<TRIPOS>BOND
     1    32    33    1
     2    33    19    1
     3    19    20   ar
     4    20    21   ar
     5    21    22   ar
     6    22    23   ar
     7    23    24   ar
     8    24    25   ar
     9    25    26   ar
    10    26     1    1
    11     1     2    2
    12     1     3   am
    13     3     4    1
    14     4     5    1
    15     5     6    1
    16     6     7    1
    17     7     8    1
    18     6     9    1
    19     9    10    1
    20    10    11   ar
    21    11    12   ar
    22    12    34    1
    23    34    35    1
    24    34    36    1
    25    34    37    1
    26    12    13   ar
    27    13    14   ar
    28    14    15    1
    29    15    16    2
    30    15    17   am
    31    26    27   ar
    32    27    29    1
    33    29    30    1
    34    29    31    2
    35    27    28   ar
    36    28    19   ar
    37    28    23   ar
    38     8     3    1
    39    14    10   ar
    40    17     6    1
    41    17    18    1
@<TRIPOS>MOLECULE
*****
 37 41 0 0 0
SMALL
GASTEIGER

@<TRIPOS>ATOM
      1 C         -25.6648   -6.5623  -13.5203 C.2     1  UNL1        0.2491
      2 O         -26.7520   -6.2610  -12.9564 O.2     1  UNL1       -0.2699
      3 N         -24.6266   -7.2316  -12.7696 N.am    1  UNL1       -0.2760
      4 C         -24.9432   -7.7225  -11.4186 C.3     1  UNL1        0.0954
      5 C         -23.7729   -8.5057  -10.8004 C.3     1  UNL1        0.0399
      6 C         -23.0749   -9.4089  -11.8443 C.3     1  UNL1        0.0645
      7 C         -22.5059   -8.5296  -13.0016 C.3     1  UNL1        0.0399
      8 C         -23.2201   -7.1775  -13.1984 C.3     1  UNL1        0.0954
      9 C         -24.1060  -10.4528  -12.4070 C.3     1  UNL1        0.0477
     10 C         -23.3996  -11.5626  -13.1207 C.ar    1  UNL1        0.0220
     11 C         -23.8308  -12.4327  -14.0930 C.ar    1  UNL1        0.0923
     12 N         -22.8288  -13.3164  -14.3299 N.ar    1  UNL1       -0.2534
     13 N         -21.7975  -13.0499  -13.5318 N.ar    1  UNL1       -0.1651
     14 C         -22.1497  -11.9842  -12.7920 C.ar    1  UNL1        0.1515
     15 C         -21.3760  -11.3006  -11.7663 C.2     1  UNL1        0.2650
     16 O         -20.2607  -11.7409  -11.3820 O.2     1  UNL1       -0.2684
     17 N         -21.9421  -10.1111  -11.1913 N.am    1  UNL1       -0.3023
     18 H         -21.4325   -9.6515  -10.4025 H       1  UNL1        0.1497
     19 C         -26.9685   -4.0939  -17.7299 C.ar    1  UNL1        0.2249
     20 N         -26.7127   -3.8879  -19.0523 N.ar    1  UNL1       -0.2101
     21 C         -25.7047   -4.5106  -19.7085 C.ar    1  UNL1        0.1021
     22 C         -24.8717   -5.3901  -19.0294 C.ar    1  UNL1        0.0209
     23 C         -25.0904   -5.6397  -17.6692 C.ar    1  UNL1        0.0061
     24 C         -24.2321   -6.5079  -16.9864 C.ar    1  UNL1        0.0003
     25 C         -24.4246   -6.7715  -15.6364 C.ar    1  UNL1        0.0046
     26 C         -25.4911   -6.1945  -14.9422 C.ar    1  UNL1        0.0565
     27 C         -26.3732   -5.3033  -15.6045 C.ar    1  UNL1        0.0436
     28 C         -26.1671   -5.0080  -16.9878 C.ar    1  UNL1        0.0561
     29 C         -27.4842   -4.6977  -14.8385 C.2     1  UNL1        0.1738
     30 C         -28.8391   -5.3314  -14.8263 C.3     1  UNL1        0.0773
     31 O         -27.2926   -3.6239  -14.2082 O.2     1  UNL1       -0.2913
     32 C         -29.1267   -2.8711  -17.8446 C.3     1  UNL1        0.2542
     33 O         -28.0125   -3.3850  -17.1247 O.3     1  UNL1       -0.4561
     34 C         -22.8632  -14.4177  -15.3127 C.3     1  UNL1        0.0867
     35 C         -21.8755  -14.1165  -16.4565 C.3     1  UNL1        0.0244
     36 C         -24.2887  -14.5550  -15.8794 C.3     1  UNL1        0.0244
     37 C         -22.4609  -15.7522  -14.6485 C.3     1  UNL1        0.0244
@<TRIPOS>BOND
     1    32    33    1
     2    33    19    1
     3    19    20   ar
     4    20    21   ar
     5    21    22   ar
     6    22    23   ar
     7    23    24   ar
     8    24    25   ar
     9    25    26   ar
    10    26     1    1
    11     1     2    2
    12     1     3   am
    13     3     4    1
    14     4     5    1
    15     5     6    1
    16     6     7    1
    17     7     8    1
    18     6     9    1
    19     9    10    1
    20    10    11   ar
    21    11    12   ar
    22    12    34    1
    23    34    35    1
    24    34    36    1
    25    34    37    1
    26    12    13   ar
    27    13    14   ar
    28    14    15    1
    29    15    16    2
    30    15    17   am
    31    26    27   ar
    32    27    29    1
    33    29    30    1
    34    29    31    2
    35    27    28   ar
    36    28    19   ar
    37    28    23   ar
    38     8     3    1
    39    14    10   ar
    40    17     6    1
    41    17    18    1
