@<TRIPOS>MOLECULE
*****
 45 49 0 0 0
SMALL
GASTEIGER

@<TRIPOS>ATOM
      1 C         -27.8220   50.8214   -8.6422 C.3     1  UNL1        0.1562
      2 C         -29.2693   50.8475   -9.1438 C.3     1  UNL1        0.0623
      3 C         -29.2174   50.9352  -10.6964 C.3     1  UNL1        0.1322
      4 O         -29.9554   52.0665  -11.0972 O.3     1  UNL1       -0.3807
      5 C         -27.7351   51.1727  -11.0486 C.3     1  UNL1        0.1265
      6 N         -26.9862   51.0921   -9.8041 N.am    1  UNL1       -0.2544
      7 C         -25.5469   51.1038   -9.7544 C.2     1  UNL1        0.3081
      8 O         -24.9570   50.6665   -8.7289 O.2     1  UNL1       -0.2522
      9 N         -24.7813   51.6033  -10.8641 N.am    1  UNL1       -0.2681
     10 H         -30.8916   51.9405  -10.7873 H       1  UNL1        0.2107
     11 H         -25.2165   51.5963  -11.8131 H       1  UNL1        0.1564
     12 C         -29.7293   49.6551  -11.4033 C.ar    1  UNL1        0.0647
     13 C         -30.2500   49.6870  -12.7293 C.ar    1  UNL1        0.1363
     14 O         -30.3030   50.8750  -13.4589 O.3     1  UNL1       -0.5056
     15 C         -30.7044   48.5086  -13.3402 C.ar    1  UNL1        0.0661
     16 C         -30.6066   47.2857  -12.6834 C.ar    1  UNL1        0.1454
     17 F         -31.0405   46.1529  -13.2891 F       1  UNL1       -0.2040
     18 C         -30.0303   47.2226  -11.4193 C.ar    1  UNL1        0.0592
     19 C         -29.5776   48.3841  -10.7894 C.ar    1  UNL1        0.1435
     20 F         -28.9570   48.2456   -9.5938 F       1  UNL1       -0.2042
     21 H         -30.6649   50.9074  -14.4049 H       1  UNL1        0.2922
     22 C         -23.4285   52.0808  -10.7580 C.ar    1  UNL1        0.0516
     23 C         -22.3672   51.1697  -10.8785 C.ar    1  UNL1        0.0156
     24 C         -21.0423   51.6111  -10.8125 C.ar    1  UNL1        0.0127
     25 C         -20.7640   52.9702  -10.6397 C.ar    1  UNL1        0.0578
     26 CL        -19.1013   53.5236  -10.5621 Cl      1  UNL1       -0.0822
     27 C         -21.8131   53.8888  -10.5392 C.ar    1  UNL1        0.0127
     28 C         -23.1391   53.4501  -10.6030 C.ar    1  UNL1        0.0156
     29 O         -27.1769   52.9512   -7.7768 O.2     1  UNL1       -0.2730
     30 C         -27.5887   51.7932   -7.4998 C.2     1  UNL1        0.2454
     31 N         -27.8965   51.4811   -6.1325 N.am    1  UNL1       -0.2680
     32 H         -28.3216   52.2363   -5.5485 H       1  UNL1        0.1563
     33 C         -27.5781   50.2352   -5.5002 C.ar    1  UNL1        0.1346
     34 C         -26.6800   50.2068   -4.4271 C.ar    1  UNL1        0.0406
     35 C         -26.3823   48.9906   -3.8123 C.ar    1  UNL1        0.0736
     36 C         -26.9575   47.8036   -4.2877 C.ar    1  UNL1        0.2466
     37 C         -27.8300   47.8727   -5.3841 C.ar    1  UNL1        0.1691
     38 N         -28.1174   49.0721   -5.9562 N.ar    1  UNL1       -0.2228
     39 N         -26.6753   46.5431   -3.6476 N.am    1  UNL1       -0.0841
     40 C         -27.2636   46.2699   -2.4420 C.2     1  UNL1        0.2905
     41 C         -27.0278   45.0567   -1.7926 C.2     1  UNL1        0.0758
     42 C         -26.1831   44.1186   -2.3804 C.2     1  UNL1        0.0161
     43 C         -25.5814   44.4021   -3.6046 C.2     1  UNL1        0.1156
     44 C         -25.8334   45.6275   -4.2312 C.2     1  UNL1        0.4230
     45 O         -25.2648   45.8815   -5.3285 O.2     1  UNL1       -0.2135
@<TRIPOS>BOND
     1    29    30    2
     2    30    31   am
     3    31    33    1
     4    33    34   ar
     5    34    35   ar
     6    35    36   ar
     7    36    39    1
     8    39    40    1
     9    40    41    2
    10    41    42    1
    11    42    43    2
    12    43    44    1
    13    44    45    2
    14    36    37   ar
    15    37    38   ar
    16    30     1    1
    17     1     2    1
    18     2     3    1
    19     3     4    1
    20     3    12    1
    21    12    13   ar
    22    13    14    1
    23    13    15   ar
    24    15    16   ar
    25    16    17    1
    26    16    18   ar
    27    18    19   ar
    28    19    20    1
    29     3     5    1
    30     5     6    1
    31     6     7   am
    32     7     8    2
    33     7     9   am
    34     9    22    1
    35    22    23   ar
    36    23    24   ar
    37    24    25   ar
    38    25    26    1
    39    25    27   ar
    40    27    28   ar
    41    38    33   ar
    42     6     1    1
    43    28    22   ar
    44    44    39    1
    45    19    12   ar
    46    31    32    1
    47     4    10    1
    48    14    21    1
    49     9    11    1
@<TRIPOS>MOLECULE
*****
 45 49 0 0 0
SMALL
GASTEIGER

@<TRIPOS>ATOM
      1 C         -28.1383   48.8999   -6.3648 C.3     1  UNL1        0.1562
      2 C         -28.2931   48.7484   -4.8482 C.3     1  UNL1        0.0623
      3 C         -28.7359   47.2821   -4.5743 C.3     1  UNL1        0.1322
      4 O         -29.9360   47.3164   -3.8370 O.3     1  UNL1       -0.3807
      5 C         -29.0341   46.6739   -5.9594 C.3     1  UNL1        0.1265
      6 N         -28.6617   47.6725   -6.9494 N.am    1  UNL1       -0.2544
      7 C         -28.6480   47.4051   -8.3645 C.2     1  UNL1        0.3081
      8 O         -27.9805   48.1514   -9.1315 O.2     1  UNL1       -0.2522
      9 N         -29.3826   46.2938   -8.9053 N.am    1  UNL1       -0.2681
     10 H         -29.7508   47.7890   -2.9822 H       1  UNL1        0.2107
     11 H         -29.5987   45.4870   -8.2789 H       1  UNL1        0.1564
     12 C         -27.6581   46.4384   -3.8483 C.ar    1  UNL1        0.0647
     13 C         -27.9274   45.7768   -2.6153 C.ar    1  UNL1        0.1363
     14 O         -29.1855   45.8444   -2.0161 O.3     1  UNL1       -0.5056
     15 C         -26.9285   45.0200   -1.9849 C.ar    1  UNL1        0.0661
     16 C         -25.6792   44.8608   -2.5768 C.ar    1  UNL1        0.1454
     17 F         -24.7258   44.1184   -1.9615 F       1  UNL1       -0.2040
     18 C         -25.4221   45.4347   -3.8171 C.ar    1  UNL1        0.0592
     19 C         -26.3996   46.1981   -4.4595 C.ar    1  UNL1        0.1435
     20 F         -26.1143   46.6646   -5.6984 F       1  UNL1       -0.2042
     21 H         -29.3896   45.3720   -1.1431 H       1  UNL1        0.2922
     22 C         -29.8099   46.2027  -10.2760 C.ar    1  UNL1        0.0516
     23 C         -31.1448   46.4927  -10.5999 C.ar    1  UNL1        0.0156
     24 C         -31.5791   46.4443  -11.9279 C.ar    1  UNL1        0.0127
     25 C         -30.6802   46.1195  -12.9481 C.ar    1  UNL1        0.0578
     26 CL        -31.2249   46.0641  -14.6145 Cl      1  UNL1       -0.0822
     27 C         -29.3438   45.8491  -12.6390 C.ar    1  UNL1        0.0127
     28 C         -28.9069   45.8949  -11.3116 C.ar    1  UNL1        0.0156
     29 O         -30.0617   50.1129   -7.0928 O.2     1  UNL1       -0.2730
     30 C         -28.8183   50.1497   -6.8931 C.2     1  UNL1        0.2454
     31 N         -28.1259   51.3916   -7.0929 N.am    1  UNL1       -0.2680
     32 H         -28.6262   52.2712   -6.8321 H       1  UNL1        0.1563
     33 C         -26.8351   51.5037   -7.7051 C.ar    1  UNL1        0.1346
     34 C         -26.6715   52.2935   -8.8489 C.ar    1  UNL1        0.0406
     35 C         -25.4098   52.4035   -9.4333 C.ar    1  UNL1        0.0736
     36 C         -24.3219   51.7028   -8.8935 C.ar    1  UNL1        0.2466
     37 C         -24.5351   50.8992   -7.7635 C.ar    1  UNL1        0.1691
     38 N         -25.7709   50.8211   -7.2020 N.ar    1  UNL1       -0.2228
     39 N         -23.0083   51.8250   -9.4748 N.am    1  UNL1       -0.0841
     40 C         -21.9474   52.0991   -8.6540 C.2     1  UNL1        0.2905
     41 C         -20.6563   52.2141   -9.1726 C.2     1  UNL1        0.0758
     42 C         -20.4508   52.0492  -10.5399 C.2     1  UNL1        0.0161
     43 C         -21.5333   51.7760  -11.3733 C.2     1  UNL1        0.1156
     44 C         -22.8168   51.6694  -10.8264 C.2     1  UNL1        0.4230
     45 O         -23.7921   51.4441  -11.5945 O.2     1  UNL1       -0.2135
@<TRIPOS>BOND
     1    29    30    2
     2    30    31   am
     3    31    33    1
     4    33    34   ar
     5    34    35   ar
     6    35    36   ar
     7    36    39    1
     8    39    40    1
     9    40    41    2
    10    41    42    1
    11    42    43    2
    12    43    44    1
    13    44    45    2
    14    36    37   ar
    15    37    38   ar
    16    30     1    1
    17     1     2    1
    18     2     3    1
    19     3     4    1
    20     3    12    1
    21    12    13   ar
    22    13    14    1
    23    13    15   ar
    24    15    16   ar
    25    16    17    1
    26    16    18   ar
    27    18    19   ar
    28    19    20    1
    29     3     5    1
    30     5     6    1
    31     6     7   am
    32     7     8    2
    33     7     9   am
    34     9    22    1
    35    22    23   ar
    36    23    24   ar
    37    24    25   ar
    38    25    26    1
    39    25    27   ar
    40    27    28   ar
    41    38    33   ar
    42     6     1    1
    43    28    22   ar
    44    44    39    1
    45    19    12   ar
    46    31    32    1
    47     4    10    1
    48    14    21    1
    49     9    11    1
@<TRIPOS>MOLECULE
*****
 45 49 0 0 0
SMALL
GASTEIGER

@<TRIPOS>ATOM
      1 C         -30.0155   49.2156   -7.7182 C.3     1  UNL1        0.1562
      2 C         -29.9074   49.8071   -9.1272 C.3     1  UNL1        0.0623
      3 C         -28.9629   48.8797   -9.9451 C.3     1  UNL1        0.1322
      4 O         -27.9110   49.6652  -10.4564 O.3     1  UNL1       -0.3807
      5 C         -28.3743   47.8844   -8.9250 C.3     1  UNL1        0.1265
      6 N         -29.0344   48.1407   -7.6543 N.am    1  UNL1       -0.2544
      7 C         -28.8606   47.2997   -6.4981 C.2     1  UNL1        0.3081
      8 O         -29.7120   47.3378   -5.5683 O.2     1  UNL1       -0.2522
      9 N         -27.7304   46.4163   -6.4002 N.am    1  UNL1       -0.2681
     10 H         -28.3118   50.3590  -11.0448 H       1  UNL1        0.2107
     11 H         -27.2651   46.1030   -7.2808 H       1  UNL1        0.1564
     12 C         -29.6859   48.1086  -11.0779 C.ar    1  UNL1        0.0647
     13 C         -30.0439   48.7386  -12.3049 C.ar    1  UNL1        0.1363
     14 O         -29.7394   50.0783  -12.5477 O.3     1  UNL1       -0.5056
     15 C         -30.6974   48.0106  -13.3104 C.ar    1  UNL1        0.0661
     16 C         -30.9593   46.6536  -13.1476 C.ar    1  UNL1        0.1454
     17 F         -31.5827   45.9594  -14.1314 F       1  UNL1       -0.2040
     18 C         -30.5486   46.0030  -11.9891 C.ar    1  UNL1        0.0592
     19 C         -29.9027   46.7097  -10.9721 C.ar    1  UNL1        0.1435
     20 F         -29.4598   46.0040   -9.9045 F       1  UNL1       -0.2042
     21 H         -29.9833   50.5340  -13.4194 H       1  UNL1        0.2922
     22 C         -27.2180   45.9003   -5.1590 C.ar    1  UNL1        0.0516
     23 C         -27.7795   44.7337   -4.6162 C.ar    1  UNL1        0.0156
     24 C         -27.2792   44.1918   -3.4286 C.ar    1  UNL1        0.0127
     25 C         -26.2026   44.8022   -2.7784 C.ar    1  UNL1        0.0578
     26 CL        -25.5723   44.1185   -1.2911 Cl      1  UNL1       -0.0822
     27 C         -25.6225   45.9526   -3.3211 C.ar    1  UNL1        0.0127
     28 C         -26.1219   46.4980   -4.5077 C.ar    1  UNL1        0.0156
     29 O         -30.8513   50.7687   -6.1087 O.2     1  UNL1       -0.2730
     30 C         -29.8250   50.2624   -6.6358 C.2     1  UNL1        0.2454
     31 N         -28.5350   50.6370   -6.1285 N.am    1  UNL1       -0.2680
     32 H         -28.4495   50.8017   -5.1001 H       1  UNL1        0.1563
     33 C         -27.3874   50.8826   -6.9507 C.ar    1  UNL1        0.1346
     34 C         -27.3688   51.9866   -7.8109 C.ar    1  UNL1        0.0406
     35 C         -26.2442   52.2227   -8.6016 C.ar    1  UNL1        0.0736
     36 C         -25.1545   51.3417   -8.5542 C.ar    1  UNL1        0.2466
     37 C         -25.2257   50.2312   -7.6999 C.ar    1  UNL1        0.1691
     38 N         -26.3261   50.0314   -6.9268 N.ar    1  UNL1       -0.2228
     39 N         -23.9774   51.5862   -9.3499 N.am    1  UNL1       -0.0841
     40 C         -22.8037   51.8904   -8.7141 C.2     1  UNL1        0.2905
     41 C         -21.6369   52.1228   -9.4447 C.2     1  UNL1        0.0758
     42 C         -21.6728   52.0449  -10.8345 C.2     1  UNL1        0.0161
     43 C         -22.8700   51.7408  -11.4788 C.2     1  UNL1        0.1156
     44 C         -24.0247   51.5158  -10.7212 C.2     1  UNL1        0.4230
     45 O         -25.1077   51.2634  -11.3173 O.2     1  UNL1       -0.2135
@<TRIPOS>BOND
     1    29    30    2
     2    30    31   am
     3    31    33    1
     4    33    34   ar
     5    34    35   ar
     6    35    36   ar
     7    36    39    1
     8    39    40    1
     9    40    41    2
    10    41    42    1
    11    42    43    2
    12    43    44    1
    13    44    45    2
    14    36    37   ar
    15    37    38   ar
    16    30     1    1
    17     1     2    1
    18     2     3    1
    19     3     4    1
    20     3    12    1
    21    12    13   ar
    22    13    14    1
    23    13    15   ar
    24    15    16   ar
    25    16    17    1
    26    16    18   ar
    27    18    19   ar
    28    19    20    1
    29     3     5    1
    30     5     6    1
    31     6     7   am
    32     7     8    2
    33     7     9   am
    34     9    22    1
    35    22    23   ar
    36    23    24   ar
    37    24    25   ar
    38    25    26    1
    39    25    27   ar
    40    27    28   ar
    41    38    33   ar
    42     6     1    1
    43    28    22   ar
    44    44    39    1
    45    19    12   ar
    46    31    32    1
    47     4    10    1
    48    14    21    1
    49     9    11    1
@<TRIPOS>MOLECULE
*****
 45 49 0 0 0
SMALL
GASTEIGER

@<TRIPOS>ATOM
      1 C         -27.8411   50.9648   -8.3656 C.3     1  UNL1        0.1562
      2 C         -29.2267   51.0943   -9.0063 C.3     1  UNL1        0.0623
      3 C         -29.0279   51.0426  -10.5486 C.3     1  UNL1        0.1322
      4 O         -29.5998   52.2042  -11.1042 O.3     1  UNL1       -0.3807
      5 C         -27.5032   51.0975  -10.7719 C.3     1  UNL1        0.1265
      6 N         -26.8810   51.0486   -9.4579 N.am    1  UNL1       -0.2544
      7 C         -25.4591   50.9186   -9.2694 C.2     1  UNL1        0.3081
      8 O         -25.0137   50.5136   -8.1610 O.2     1  UNL1       -0.2522
      9 N         -24.5482   51.2409  -10.3341 N.am    1  UNL1       -0.2681
     10 H         -30.5680   52.2008  -10.8782 H       1  UNL1        0.2107
     11 H         -24.8956   51.1965  -11.3176 H       1  UNL1        0.1564
     12 C         -29.6114   49.7650  -11.2026 C.ar    1  UNL1        0.0647
     13 C         -30.1369   49.7726  -12.5271 C.ar    1  UNL1        0.1363
     14 O         -30.1302   50.9321  -13.3029 O.3     1  UNL1       -0.5056
     15 C         -30.6570   48.5972  -13.0893 C.ar    1  UNL1        0.0661
     16 C         -30.6212   47.3976  -12.3849 C.ar    1  UNL1        0.1454
     17 F         -31.1184   46.2667  -12.9439 F       1  UNL1       -0.2040
     18 C         -30.0423   47.3534  -11.1213 C.ar    1  UNL1        0.0592
     19 C         -29.5246   48.5128  -10.5393 C.ar    1  UNL1        0.1435
     20 F         -28.9058   48.3884   -9.3413 F       1  UNL1       -0.2042
     21 H         -30.4951   50.9466  -14.2482 H       1  UNL1        0.2922
     22 C         -23.1662   51.5861  -10.1334 C.ar    1  UNL1        0.0516
     23 C         -22.3036   51.6380  -11.2399 C.ar    1  UNL1        0.0156
     24 C         -20.9637   52.0029  -11.0783 C.ar    1  UNL1        0.0127
     25 C         -20.4752   52.3337   -9.8109 C.ar    1  UNL1        0.0578
     26 CL        -18.7952   52.7963   -9.6102 Cl      1  UNL1       -0.0822
     27 C         -21.3305   52.3053   -8.7054 C.ar    1  UNL1        0.0127
     28 C         -22.6705   51.9390   -8.8635 C.ar    1  UNL1        0.0156
     29 O         -26.7293   52.8851   -7.4839 O.2     1  UNL1       -0.2730
     30 C         -27.6057   52.0024   -7.2833 C.2     1  UNL1        0.2454
     31 N         -28.3923   52.0740   -6.0841 N.am    1  UNL1       -0.2680
     32 H         -28.6546   53.0231   -5.7343 H       1  UNL1        0.1563
     33 C         -28.7624   50.9362   -5.2956 C.ar    1  UNL1        0.1346
     34 C         -30.0582   50.8393   -4.7756 C.ar    1  UNL1        0.0406
     35 C         -30.4123   49.7242   -4.0161 C.ar    1  UNL1        0.0736
     36 C         -29.4655   48.7242   -3.7526 C.ar    1  UNL1        0.2466
     37 C         -28.1695   48.8742   -4.2682 C.ar    1  UNL1        0.1691
     38 N         -27.8530   49.9623   -5.0196 N.ar    1  UNL1       -0.2228
     39 N         -29.8246   47.5563   -2.9875 N.am    1  UNL1       -0.0841
     40 C         -30.6493   46.6235   -3.5567 C.2     1  UNL1        0.2905
     41 C         -31.0130   45.4717   -2.8565 C.2     1  UNL1        0.0758
     42 C         -30.5307   45.2751   -1.5651 C.2     1  UNL1        0.0161
     43 C         -29.6962   46.2290   -0.9864 C.2     1  UNL1        0.1156
     44 C         -29.3508   47.3753   -1.7106 C.2     1  UNL1        0.4230
     45 O         -28.6127   48.2425   -1.1673 O.2     1  UNL1       -0.2135
@<TRIPOS>BOND
     1    29    30    2
     2    30    31   am
     3    31    33    1
     4    33    34   ar
     5    34    35   ar
     6    35    36   ar
     7    36    39    1
     8    39    40    1
     9    40    41    2
    10    41    42    1
    11    42    43    2
    12    43    44    1
    13    44    45    2
    14    36    37   ar
    15    37    38   ar
    16    30     1    1
    17     1     2    1
    18     2     3    1
    19     3     4    1
    20     3    12    1
    21    12    13   ar
    22    13    14    1
    23    13    15   ar
    24    15    16   ar
    25    16    17    1
    26    16    18   ar
    27    18    19   ar
    28    19    20    1
    29     3     5    1
    30     5     6    1
    31     6     7   am
    32     7     8    2
    33     7     9   am
    34     9    22    1
    35    22    23   ar
    36    23    24   ar
    37    24    25   ar
    38    25    26    1
    39    25    27   ar
    40    27    28   ar
    41    38    33   ar
    42     6     1    1
    43    28    22   ar
    44    44    39    1
    45    19    12   ar
    46    31    32    1
    47     4    10    1
    48    14    21    1
    49     9    11    1
@<TRIPOS>MOLECULE
*****
 45 49 0 0 0
SMALL
GASTEIGER

@<TRIPOS>ATOM
      1 C         -26.5433   51.1812   -8.3132 C.3     1  UNL1        0.1562
      2 C         -26.7006   51.9510   -6.9981 C.3     1  UNL1        0.0623
      3 C         -27.7305   51.1730   -6.1291 C.3     1  UNL1        0.1322
      4 O         -28.7711   52.0579   -5.7840 O.3     1  UNL1       -0.3807
      5 C         -28.3081   50.0799   -7.0505 C.3     1  UNL1        0.1265
      6 N         -27.5684   50.1463   -8.3013 N.am    1  UNL1       -0.2544
      7 C         -27.7176   49.1724   -9.3518 C.2     1  UNL1        0.3081
      8 O         -26.8158   49.0585  -10.2263 O.2     1  UNL1       -0.2522
      9 N         -28.8805   48.3288   -9.4065 N.am    1  UNL1       -0.2681
     10 H         -28.3712   52.8046   -5.2637 H       1  UNL1        0.2107
     11 H         -29.4073   48.1486   -8.5233 H       1  UNL1        0.1564
     12 C         -27.1071   50.5246   -4.8675 C.ar    1  UNL1        0.0647
     13 C         -27.2760   49.1407   -4.5733 C.ar    1  UNL1        0.1363
     14 O         -27.9971   48.3017   -5.4234 O.3     1  UNL1       -0.5056
     15 C         -26.6970   48.5856   -3.4224 C.ar    1  UNL1        0.0661
     16 C         -25.9079   49.3626   -2.5798 C.ar    1  UNL1        0.1454
     17 F         -25.3459   48.8111   -1.4759 F       1  UNL1       -0.2040
     18 C         -25.6675   50.6965   -2.8911 C.ar    1  UNL1        0.0592
     19 C         -26.2396   51.2718   -4.0281 C.ar    1  UNL1        0.1435
     20 F         -25.9048   52.5517   -4.3170 F       1  UNL1       -0.2042
     21 H         -28.1174   47.3148   -5.2271 H       1  UNL1        0.2922
     22 C         -29.3478   47.6795  -10.6021 C.ar    1  UNL1        0.0516
     23 C         -30.1279   48.4042  -11.5171 C.ar    1  UNL1        0.0156
     24 C         -30.5676   47.8081  -12.7028 C.ar    1  UNL1        0.0127
     25 C         -30.2201   46.4856  -12.9933 C.ar    1  UNL1        0.0578
     26 CL        -30.7680   45.7403  -14.4837 Cl      1  UNL1       -0.0822
     27 C         -29.4264   45.7613  -12.0989 C.ar    1  UNL1        0.0127
     28 C         -28.9867   46.3541  -10.9114 C.ar    1  UNL1        0.0156
     29 O         -27.6468   52.0119  -10.2609 O.2     1  UNL1       -0.2730
     30 C         -26.6254   52.0885   -9.5272 C.2     1  UNL1        0.2454
     31 N         -25.6361   53.0850   -9.8271 N.am    1  UNL1       -0.2680
     32 H         -25.9722   54.0062  -10.1882 H       1  UNL1        0.1563
     33 C         -24.2224   52.8654   -9.7456 C.ar    1  UNL1        0.1346
     34 C         -23.3473   53.6728  -10.4814 C.ar    1  UNL1        0.0406
     35 C         -21.9723   53.4573  -10.3896 C.ar    1  UNL1        0.0736
     36 C         -21.4757   52.4194   -9.5884 C.ar    1  UNL1        0.2466
     37 C         -22.3886   51.6148   -8.8902 C.ar    1  UNL1        0.1691
     38 N         -23.7236   51.8550   -8.9828 N.ar    1  UNL1       -0.2228
     39 N         -20.0560   52.1998   -9.4677 N.am    1  UNL1       -0.0841
     40 C         -19.4650   52.3674   -8.2442 C.2     1  UNL1        0.2905
     41 C         -18.0952   52.1537   -8.0792 C.2     1  UNL1        0.0758
     42 C         -17.3260   51.7679   -9.1740 C.2     1  UNL1        0.0161
     43 C         -17.9294   51.6039  -10.4190 C.2     1  UNL1        0.1156
     44 C         -19.3038   51.8280  -10.5556 C.2     1  UNL1        0.4230
     45 O         -19.8345   51.6981  -11.6930 O.2     1  UNL1       -0.2135
@<TRIPOS>BOND
     1    29    30    2
     2    30    31   am
     3    31    33    1
     4    33    34   ar
     5    34    35   ar
     6    35    36   ar
     7    36    39    1
     8    39    40    1
     9    40    41    2
    10    41    42    1
    11    42    43    2
    12    43    44    1
    13    44    45    2
    14    36    37   ar
    15    37    38   ar
    16    30     1    1
    17     1     2    1
    18     2     3    1
    19     3     4    1
    20     3    12    1
    21    12    13   ar
    22    13    14    1
    23    13    15   ar
    24    15    16   ar
    25    16    17    1
    26    16    18   ar
    27    18    19   ar
    28    19    20    1
    29     3     5    1
    30     5     6    1
    31     6     7   am
    32     7     8    2
    33     7     9   am
    34     9    22    1
    35    22    23   ar
    36    23    24   ar
    37    24    25   ar
    38    25    26    1
    39    25    27   ar
    40    27    28   ar
    41    38    33   ar
    42     6     1    1
    43    28    22   ar
    44    44    39    1
    45    19    12   ar
    46    31    32    1
    47     4    10    1
    48    14    21    1
    49     9    11    1
@<TRIPOS>MOLECULE
*****
 45 49 0 0 0
SMALL
GASTEIGER

@<TRIPOS>ATOM
      1 C         -29.8078   49.3088   -6.9998 C.3     1  UNL1        0.1562
      2 C         -28.8798   49.3813   -8.2166 C.3     1  UNL1        0.0623
      3 C         -28.3222   47.9487   -8.4570 C.3     1  UNL1        0.1322
      4 O         -26.9150   48.0179   -8.4471 O.3     1  UNL1       -0.3807
      5 C         -28.7761   47.1179   -7.2400 C.3     1  UNL1        0.1265
      6 N         -29.6360   47.9753   -6.4390 N.am    1  UNL1       -0.2544
      7 C         -30.3801   47.4961   -5.3029 C.2     1  UNL1        0.3081
      8 O         -31.3685   48.1578   -4.8834 O.2     1  UNL1       -0.2522
      9 N         -30.0083   46.2702   -4.6500 N.am    1  UNL1       -0.2681
     10 H         -26.6383   48.6266   -9.1828 H       1  UNL1        0.2107
     11 H         -29.4765   45.5565   -5.1958 H       1  UNL1        0.1564
     12 C         -28.8403   47.2972   -9.7638 C.ar    1  UNL1        0.0647
     13 C         -28.1737   46.1915  -10.3668 C.ar    1  UNL1        0.1363
     14 O         -27.0315   45.6328   -9.7926 O.3     1  UNL1       -0.5056
     15 C         -28.6705   45.6247  -11.5500 C.ar    1  UNL1        0.0661
     16 C         -29.8468   46.0976  -12.1239 C.ar    1  UNL1        0.1454
     17 F         -30.3213   45.5343  -13.2623 F       1  UNL1       -0.2040
     18 C         -30.5535   47.1250  -11.5083 C.ar    1  UNL1        0.0592
     19 C         -30.0737   47.7087  -10.3335 C.ar    1  UNL1        0.1435
     20 F         -30.8467   48.6504   -9.7424 F       1  UNL1       -0.2042
     21 H         -26.5539   44.8422  -10.2095 H       1  UNL1        0.2922
     22 C         -30.3577   45.9433   -3.2934 C.ar    1  UNL1        0.0516
     23 C         -31.1630   44.8209   -3.0430 C.ar    1  UNL1        0.0156
     24 C         -31.4906   44.4610   -1.7325 C.ar    1  UNL1        0.0127
     25 C         -31.0048   45.2108   -0.6573 C.ar    1  UNL1        0.0578
     26 CL        -31.4122   44.7553    0.9869 Cl      1  UNL1       -0.0822
     27 C         -30.1851   46.3183   -0.8943 C.ar    1  UNL1        0.0127
     28 C         -29.8573   46.6819   -2.2040 C.ar    1  UNL1        0.0156
     29 O         -30.5177   50.9434   -5.4108 O.2     1  UNL1       -0.2730
     30 C         -29.5358   50.4167   -5.9987 C.2     1  UNL1        0.2454
     31 N         -28.2109   50.8301   -5.6306 N.am    1  UNL1       -0.2680
     32 H         -28.0364   51.0533   -4.6248 H       1  UNL1        0.1563
     33 C         -27.1443   51.0384   -6.5647 C.ar    1  UNL1        0.1346
     34 C         -27.2234   52.0834   -7.4924 C.ar    1  UNL1        0.0406
     35 C         -26.1769   52.2840   -8.3924 C.ar    1  UNL1        0.0736
     36 C         -25.0691   51.4246   -8.3846 C.ar    1  UNL1        0.2466
     37 C         -25.0428   50.3718   -7.4578 C.ar    1  UNL1        0.1691
     38 N         -26.0675   50.2067   -6.5796 N.ar    1  UNL1       -0.2228
     39 N         -23.9708   51.6339   -9.2948 N.am    1  UNL1       -0.0841
     40 C         -22.7364   51.9285   -8.7813 C.2     1  UNL1        0.2905
     41 C         -21.6423   52.1271   -9.6256 C.2     1  UNL1        0.0758
     42 C         -21.8138   52.0251  -11.0037 C.2     1  UNL1        0.0161
     43 C         -23.0726   51.7308  -11.5233 C.2     1  UNL1        0.1156
     44 C         -24.1519   51.5399  -10.6535 C.2     1  UNL1        0.4230
     45 O         -25.2914   51.2963  -11.1373 O.2     1  UNL1       -0.2135
@<TRIPOS>BOND
     1    29    30    2
     2    30    31   am
     3    31    33    1
     4    33    34   ar
     5    34    35   ar
     6    35    36   ar
     7    36    39    1
     8    39    40    1
     9    40    41    2
    10    41    42    1
    11    42    43    2
    12    43    44    1
    13    44    45    2
    14    36    37   ar
    15    37    38   ar
    16    30     1    1
    17     1     2    1
    18     2     3    1
    19     3     4    1
    20     3    12    1
    21    12    13   ar
    22    13    14    1
    23    13    15   ar
    24    15    16   ar
    25    16    17    1
    26    16    18   ar
    27    18    19   ar
    28    19    20    1
    29     3     5    1
    30     5     6    1
    31     6     7   am
    32     7     8    2
    33     7     9   am
    34     9    22    1
    35    22    23   ar
    36    23    24   ar
    37    24    25   ar
    38    25    26    1
    39    25    27   ar
    40    27    28   ar
    41    38    33   ar
    42     6     1    1
    43    28    22   ar
    44    44    39    1
    45    19    12   ar
    46    31    32    1
    47     4    10    1
    48    14    21    1
    49     9    11    1
@<TRIPOS>MOLECULE
*****
 45 49 0 0 0
SMALL
GASTEIGER

@<TRIPOS>ATOM
      1 C         -27.8384   47.2248   -7.5466 C.3     1  UNL1        0.1562
      2 C         -27.6955   47.8204   -8.9508 C.3     1  UNL1        0.0623
      3 C         -27.8222   49.3649   -8.8114 C.3     1  UNL1        0.1322
      4 O         -28.8616   49.7984   -9.6581 O.3     1  UNL1       -0.3807
      5 C         -28.2492   49.6154   -7.3510 C.3     1  UNL1        0.1265
      6 N         -28.2354   48.3254   -6.6788 N.am    1  UNL1       -0.2544
      7 C         -28.4245   48.1807   -5.2584 C.2     1  UNL1        0.3081
      8 O         -28.0419   47.1244   -4.6850 O.2     1  UNL1       -0.2522
      9 N         -29.0387   49.2308   -4.4922 N.am    1  UNL1       -0.2681
     10 H         -28.6138   49.5527  -10.5890 H       1  UNL1        0.2107
     11 H         -28.9981   50.2064   -4.8616 H       1  UNL1        0.1564
     12 C         -26.5039   50.1210   -9.1129 C.ar    1  UNL1        0.0647
     13 C         -26.3318   50.8843  -10.3038 C.ar    1  UNL1        0.1363
     14 O         -27.3555   51.0003  -11.2446 O.3     1  UNL1       -0.5056
     15 C         -25.1249   51.5575  -10.5452 C.ar    1  UNL1        0.0661
     16 C         -24.0990   51.5337   -9.6053 C.ar    1  UNL1        0.1454
     17 F         -22.9412   52.1969   -9.8468 F       1  UNL1       -0.2040
     18 C         -24.2768   50.8583   -8.4028 C.ar    1  UNL1        0.0592
     19 C         -25.4675   50.1753   -8.1444 C.ar    1  UNL1        0.1435
     20 F         -25.6080   49.6033   -6.9250 F       1  UNL1       -0.2042
     21 H         -27.2459   51.5462  -12.0914 H       1  UNL1        0.2922
     22 C         -29.6779   49.0293   -3.2192 C.ar    1  UNL1        0.0516
     23 C         -28.9459   48.4586   -2.1659 C.ar    1  UNL1        0.0156
     24 C         -29.5319   48.2819   -0.9090 C.ar    1  UNL1        0.0127
     25 C         -30.8514   48.6870   -0.6875 C.ar    1  UNL1        0.0578
     26 CL        -31.5841   48.4694    0.8914 Cl      1  UNL1       -0.0822
     27 C         -31.5828   49.2753   -1.7236 C.ar    1  UNL1        0.0127
     28 C         -31.0001   49.4518   -2.9822 C.ar    1  UNL1        0.0156
     29 O         -28.5946   45.1318   -6.6814 O.2     1  UNL1       -0.2730
     30 C         -28.8069   46.0568   -7.5100 C.2     1  UNL1        0.2454
     31 N         -29.9954   46.0009   -8.3139 N.am    1  UNL1       -0.2680
     32 H         -30.8608   45.6180   -7.8709 H       1  UNL1        0.1563
     33 C         -30.0451   46.3534   -9.7020 C.ar    1  UNL1        0.1346
     34 C         -29.2950   45.6267  -10.6337 C.ar    1  UNL1        0.0406
     35 C         -29.3559   45.9715  -11.9839 C.ar    1  UNL1        0.0736
     36 C         -30.1406   47.0575  -12.3970 C.ar    1  UNL1        0.2466
     37 C         -30.8541   47.7775  -11.4271 C.ar    1  UNL1        0.1691
     38 N         -30.7916   47.4119  -10.1191 N.ar    1  UNL1       -0.2228
     39 N         -30.2295   47.4108  -13.7919 N.am    1  UNL1       -0.0841
     40 C         -30.4422   46.4184  -14.7107 C.2     1  UNL1        0.2905
     41 C         -30.5468   46.7168  -16.0706 C.2     1  UNL1        0.0758
     42 C         -30.4311   48.0390  -16.4920 C.2     1  UNL1        0.0161
     43 C         -30.2090   49.0459  -15.5550 C.2     1  UNL1        0.1156
     44 C         -30.1052   48.7172  -14.1989 C.2     1  UNL1        0.4230
     45 O         -29.8814   49.6350  -13.3626 O.2     1  UNL1       -0.2135
@<TRIPOS>BOND
     1    29    30    2
     2    30    31   am
     3    31    33    1
     4    33    34   ar
     5    34    35   ar
     6    35    36   ar
     7    36    39    1
     8    39    40    1
     9    40    41    2
    10    41    42    1
    11    42    43    2
    12    43    44    1
    13    44    45    2
    14    36    37   ar
    15    37    38   ar
    16    30     1    1
    17     1     2    1
    18     2     3    1
    19     3     4    1
    20     3    12    1
    21    12    13   ar
    22    13    14    1
    23    13    15   ar
    24    15    16   ar
    25    16    17    1
    26    16    18   ar
    27    18    19   ar
    28    19    20    1
    29     3     5    1
    30     5     6    1
    31     6     7   am
    32     7     8    2
    33     7     9   am
    34     9    22    1
    35    22    23   ar
    36    23    24   ar
    37    24    25   ar
    38    25    26    1
    39    25    27   ar
    40    27    28   ar
    41    38    33   ar
    42     6     1    1
    43    28    22   ar
    44    44    39    1
    45    19    12   ar
    46    31    32    1
    47     4    10    1
    48    14    21    1
    49     9    11    1
@<TRIPOS>MOLECULE
*****
 45 49 0 0 0
SMALL
GASTEIGER

@<TRIPOS>ATOM
      1 C         -29.2151   49.7405   -7.6163 C.3     1  UNL1        0.1562
      2 C         -28.7037   51.0311   -8.2644 C.3     1  UNL1        0.0623
      3 C         -27.5622   51.5797   -7.3605 C.3     1  UNL1        0.1322
      4 O         -27.8891   52.9000   -6.9932 O.3     1  UNL1       -0.3807
      5 C         -27.5812   50.7037   -6.0917 C.3     1  UNL1        0.1265
      6 N         -28.5659   49.6566   -6.3149 N.am    1  UNL1       -0.2544
      7 C         -28.7505   48.5500   -5.4118 C.2     1  UNL1        0.3081
      8 O         -29.3272   47.5049   -5.8193 O.2     1  UNL1       -0.2522
      9 N         -28.2783   48.6266   -4.0560 N.am    1  UNL1       -0.2681
     10 H         -27.9597   53.4359   -7.8275 H       1  UNL1        0.2107
     11 H         -27.4975   49.2841   -3.8367 H       1  UNL1        0.1564
     12 C         -26.1644   51.5147   -8.0258 C.ar    1  UNL1        0.0647
     13 C         -25.8327   52.3175   -9.1554 C.ar    1  UNL1        0.1363
     14 O         -26.7504   53.2155   -9.7011 O.3     1  UNL1       -0.5056
     15 C         -24.5569   52.2344   -9.7330 C.ar    1  UNL1        0.0661
     16 C         -23.5814   51.4084   -9.1829 C.ar    1  UNL1        0.1454
     17 F         -22.3492   51.3449   -9.7453 F       1  UNL1       -0.2040
     18 C         -23.8615   50.6754   -8.0348 C.ar    1  UNL1        0.0592
     19 C         -25.1271   50.7374   -7.4470 C.ar    1  UNL1        0.1435
     20 F         -25.3121   50.0612   -6.2885 F       1  UNL1       -0.2042
     21 H         -26.5223   53.7959  -10.4999 H       1  UNL1        0.2922
     22 C         -28.7897   47.8210   -2.9794 C.ar    1  UNL1        0.0516
     23 C         -30.0084   48.1725   -2.3777 C.ar    1  UNL1        0.0156
     24 C         -30.5451   47.3889   -1.3518 C.ar    1  UNL1        0.0127
     25 C         -29.8763   46.2374   -0.9263 C.ar    1  UNL1        0.0578
     26 CL        -30.5530   45.2521    0.3575 Cl      1  UNL1       -0.0822
     27 C         -28.6724   45.8668   -1.5326 C.ar    1  UNL1        0.0127
     28 C         -28.1322   46.6495   -2.5576 C.ar    1  UNL1        0.0156
     29 O         -31.2585   49.4970   -6.4055 O.2     1  UNL1       -0.2730
     30 C         -30.7299   49.6973   -7.5314 C.2     1  UNL1        0.2454
     31 N         -31.5839   49.9586   -8.6558 N.am    1  UNL1       -0.2680
     32 H         -32.4496   50.5184   -8.4852 H       1  UNL1        0.1563
     33 C         -31.3689   49.4287   -9.9697 C.ar    1  UNL1        0.1346
     34 C         -31.5044   50.2596  -11.0879 C.ar    1  UNL1        0.0406
     35 C         -31.2851   49.7374  -12.3626 C.ar    1  UNL1        0.0736
     36 C         -30.9608   48.3825  -12.5206 C.ar    1  UNL1        0.2466
     37 C         -30.8635   47.5777  -11.3756 C.ar    1  UNL1        0.1691
     38 N         -31.0656   48.1136  -10.1426 N.ar    1  UNL1       -0.2228
     39 N         -30.7103   47.8353  -13.8306 N.am    1  UNL1       -0.0841
     40 C         -30.9551   46.5058  -14.0472 C.2     1  UNL1        0.2905
     41 C         -30.7380   45.9367  -15.3035 C.2     1  UNL1        0.0758
     42 C         -30.2659   46.7334  -16.3434 C.2     1  UNL1        0.0161
     43 C         -30.0124   48.0847  -16.1182 C.2     1  UNL1        0.1156
     44 C         -30.2360   48.6275  -14.8481 C.2     1  UNL1        0.4230
     45 O         -29.9812   49.8473  -14.6508 O.2     1  UNL1       -0.2135
@<TRIPOS>BOND
     1    29    30    2
     2    30    31   am
     3    31    33    1
     4    33    34   ar
     5    34    35   ar
     6    35    36   ar
     7    36    39    1
     8    39    40    1
     9    40    41    2
    10    41    42    1
    11    42    43    2
    12    43    44    1
    13    44    45    2
    14    36    37   ar
    15    37    38   ar
    16    30     1    1
    17     1     2    1
    18     2     3    1
    19     3     4    1
    20     3    12    1
    21    12    13   ar
    22    13    14    1
    23    13    15   ar
    24    15    16   ar
    25    16    17    1
    26    16    18   ar
    27    18    19   ar
    28    19    20    1
    29     3     5    1
    30     5     6    1
    31     6     7   am
    32     7     8    2
    33     7     9   am
    34     9    22    1
    35    22    23   ar
    36    23    24   ar
    37    24    25   ar
    38    25    26    1
    39    25    27   ar
    40    27    28   ar
    41    38    33   ar
    42     6     1    1
    43    28    22   ar
    44    44    39    1
    45    19    12   ar
    46    31    32    1
    47     4    10    1
    48    14    21    1
    49     9    11    1
@<TRIPOS>MOLECULE
*****
 45 49 0 0 0
SMALL
GASTEIGER

@<TRIPOS>ATOM
      1 C         -28.7884   48.5433   -8.8715 C.3     1  UNL1        0.1562
      2 C         -28.5634   49.7348   -9.8078 C.3     1  UNL1        0.0623
      3 C         -27.7347   50.7900   -9.0199 C.3     1  UNL1        0.1322
      4 O         -28.4471   52.0055   -9.0315 O.3     1  UNL1       -0.3807
      5 C         -27.6794   50.2734   -7.5681 C.3     1  UNL1        0.1265
      6 N         -28.3111   48.9631   -7.5607 N.am    1  UNL1       -0.2544
      7 C         -28.3057   48.0979   -6.4094 C.2     1  UNL1        0.3081
      8 O         -28.5249   46.8647   -6.5579 O.2     1  UNL1       -0.2522
      9 N         -28.0473   48.6278   -5.0982 N.am    1  UNL1       -0.2681
     10 H         -28.5522   52.2838   -9.9801 H       1  UNL1        0.2107
     11 H         -27.5055   49.5167   -5.0178 H       1  UNL1        0.1564
     12 C         -26.2979   50.9794   -9.5679 C.ar    1  UNL1        0.0647
     13 C         -26.0505   51.2737  -10.9400 C.ar    1  UNL1        0.1363
     14 O         -27.0979   51.4245  -11.8493 O.3     1  UNL1       -0.5056
     15 C         -24.7367   51.4399  -11.4028 C.ar    1  UNL1        0.0661
     16 C         -23.6606   51.3718  -10.5231 C.ar    1  UNL1        0.1454
     17 F         -22.3963   51.5441  -10.9820 F       1  UNL1       -0.2040
     18 C         -23.8867   51.1622   -9.1671 C.ar    1  UNL1        0.0592
     19 C         -25.1860   50.9871   -8.6854 C.ar    1  UNL1        0.1435
     20 F         -25.3450   50.8644   -7.3462 F       1  UNL1       -0.2042
     21 H         -26.9332   51.6406  -12.8256 H       1  UNL1        0.2922
     22 C         -28.4567   47.9875   -3.8767 C.ar    1  UNL1        0.0516
     23 C         -29.6285   48.4182   -3.2348 C.ar    1  UNL1        0.0156
     24 C         -30.0675   47.7919   -2.0645 C.ar    1  UNL1        0.0127
     25 C         -29.3475   46.7188   -1.5313 C.ar    1  UNL1        0.0578
     26 CL        -29.9020   45.9304   -0.0658 Cl      1  UNL1       -0.0822
     27 C         -28.1904   46.2684   -2.1738 C.ar    1  UNL1        0.0127
     28 C         -27.7479   46.8939   -3.3433 C.ar    1  UNL1        0.0156
     29 O         -30.6543   47.4608   -7.8480 O.2     1  UNL1       -0.2730
     30 C         -30.2344   48.0821   -8.8604 C.2     1  UNL1        0.2454
     31 N         -31.1632   48.3954   -9.9096 N.am    1  UNL1       -0.2680
     32 H         -32.1401   48.6422   -9.6323 H       1  UNL1        0.1563
     33 C         -30.8588   48.3057  -11.3070 C.ar    1  UNL1        0.1346
     34 C         -30.3615   47.1097  -11.8373 C.ar    1  UNL1        0.0406
     35 C         -30.0758   47.0287  -13.2002 C.ar    1  UNL1        0.0736
     36 C         -30.2585   48.1483  -14.0241 C.ar    1  UNL1        0.2466
     37 C         -30.7313   49.3364  -13.4470 C.ar    1  UNL1        0.1691
     38 N         -31.0183   49.3858  -12.1190 N.ar    1  UNL1       -0.2228
     39 N         -29.9877   48.0716  -15.4380 N.am    1  UNL1       -0.0841
     40 C         -30.4740   47.0050  -16.1452 C.2     1  UNL1        0.2905
     41 C         -30.2459   46.8966  -17.5183 C.2     1  UNL1        0.0758
     42 C         -29.5140   47.8855  -18.1706 C.2     1  UNL1        0.0161
     43 C         -29.0156   48.9668  -17.4470 C.2     1  UNL1        0.1156
     44 C         -29.2570   49.0478  -16.0712 C.2     1  UNL1        0.4230
     45 O         -28.7811   50.0201  -15.4231 O.2     1  UNL1       -0.2135
@<TRIPOS>BOND
     1    29    30    2
     2    30    31   am
     3    31    33    1
     4    33    34   ar
     5    34    35   ar
     6    35    36   ar
     7    36    39    1
     8    39    40    1
     9    40    41    2
    10    41    42    1
    11    42    43    2
    12    43    44    1
    13    44    45    2
    14    36    37   ar
    15    37    38   ar
    16    30     1    1
    17     1     2    1
    18     2     3    1
    19     3     4    1
    20     3    12    1
    21    12    13   ar
    22    13    14    1
    23    13    15   ar
    24    15    16   ar
    25    16    17    1
    26    16    18   ar
    27    18    19   ar
    28    19    20    1
    29     3     5    1
    30     5     6    1
    31     6     7   am
    32     7     8    2
    33     7     9   am
    34     9    22    1
    35    22    23   ar
    36    23    24   ar
    37    24    25   ar
    38    25    26    1
    39    25    27   ar
    40    27    28   ar
    41    38    33   ar
    42     6     1    1
    43    28    22   ar
    44    44    39    1
    45    19    12   ar
    46    31    32    1
    47     4    10    1
    48    14    21    1
    49     9    11    1
