@<TRIPOS>MOLECULE
*****
 35 39 0 0 0
SMALL
GASTEIGER

@<TRIPOS>ATOM
      1 C         -21.0836   -6.5258   -9.4049 C.2     1  UNL1        0.2490
      2 O         -20.7202   -5.3312   -9.2255 O.2     1  UNL1       -0.2699
      3 N         -22.2972   -6.7901  -10.1337 N.am    1  UNL1       -0.2760
      4 C         -23.2784   -7.7609   -9.6380 C.3     1  UNL1        0.0954
      5 C         -23.7398   -8.7039  -10.7646 C.3     1  UNL1        0.0407
      6 C         -23.6185   -8.0908  -12.2006 C.3     1  UNL1        0.0731
      7 C         -23.7537   -6.5439  -12.1338 C.3     1  UNL1        0.0407
      8 C         -22.6884   -5.8948  -11.2285 C.3     1  UNL1        0.0954
      9 N         -22.2816   -8.4475  -12.7467 N.am    1  UNL1       -0.3015
     10 C         -22.0261   -9.7586  -13.2745 C.2     1  UNL1        0.2650
     11 O         -20.8515  -10.1446  -13.5136 O.2     1  UNL1       -0.2684
     12 C         -23.1770  -10.6013  -13.5640 C.ar    1  UNL1        0.1523
     13 N         -23.1801  -11.8503  -14.0589 N.ar    1  UNL1       -0.1650
     14 N         -24.4523  -12.1747  -14.2688 N.ar    1  UNL1       -0.2533
     15 C         -25.2489  -11.1254  -13.9449 C.ar    1  UNL1        0.0931
     16 C         -24.4473  -10.1157  -13.4573 C.ar    1  UNL1        0.0313
     17 C         -24.7344   -8.6693  -13.1536 C.3     1  UNL1        0.0945
     18 I         -26.7696   -8.3831  -12.4805 I       1  UNL1       -0.0687
     19 H         -21.4824   -7.7771  -12.7057 H       1  UNL1        0.1497
     20 C         -18.6507   -8.7370   -5.6855 C.ar    1  UNL1        0.2248
     21 N         -17.8634   -9.7602   -5.2487 N.ar    1  UNL1       -0.2101
     22 C         -17.4486  -10.7574   -6.0726 C.ar    1  UNL1        0.1021
     23 C         -17.8208  -10.7580   -7.4168 C.ar    1  UNL1        0.0209
     24 C         -18.6289   -9.7246   -7.9069 C.ar    1  UNL1        0.0060
     25 C         -19.0143   -9.6970   -9.2542 C.ar    1  UNL1        0.0003
     26 C         -19.8120   -8.6566   -9.7372 C.ar    1  UNL1        0.0045
     27 C         -20.2382   -7.6266   -8.8824 C.ar    1  UNL1        0.0537
     28 C         -19.8766   -7.6693   -7.5248 C.ar    1  UNL1        0.0092
     29 C         -19.0591   -8.7004   -7.0326 C.ar    1  UNL1        0.0534
     30 C         -18.2232   -7.2740   -3.7295 C.3     1  UNL1        0.2542
     31 O         -19.0423   -7.7231   -4.8023 O.3     1  UNL1       -0.4561
     32 C         -24.8973  -13.4488  -14.8673 C.3     1  UNL1        0.0867
     33 C         -26.3440  -13.7520  -14.4299 C.3     1  UNL1        0.0244
     34 C         -24.8295  -13.3412  -16.4013 C.3     1  UNL1        0.0244
     35 C         -23.9906  -14.6101  -14.4048 C.3     1  UNL1        0.0244
@<TRIPOS>BOND
     1    30    31    1
     2    31    20    1
     3    20    21   ar
     4    21    22   ar
     5    22    23   ar
     6    23    24   ar
     7    24    25   ar
     8    25    26   ar
     9    26    27   ar
    10    27     1    1
    11     1     2    2
    12     1     3   am
    13     3     4    1
    14     4     5    1
    15     5     6    1
    16     6     7    1
    17     7     8    1
    18     6     9    1
    19     9    10   am
    20    10    11    2
    21    10    12    1
    22    12    13   ar
    23    13    14   ar
    24    14    32    1
    25    32    33    1
    26    32    34    1
    27    32    35    1
    28    14    15   ar
    29    15    16   ar
    30    16    17    1
    31    17    18    1
    32    27    28   ar
    33    28    29   ar
    34    29    20   ar
    35    29    24   ar
    36     8     3    1
    37    16    12   ar
    38    17     6    1
    39     9    19    1
@<TRIPOS>MOLECULE
*****
 35 39 0 0 0
SMALL
GASTEIGER

@<TRIPOS>ATOM
      1 C         -21.1846   -6.4994   -9.3297 C.2     1  UNL1        0.2490
      2 O         -20.8685   -5.2994   -9.1031 O.2     1  UNL1       -0.2699
      3 N         -22.3922   -6.7827  -10.0614 N.am    1  UNL1       -0.2760
      4 C         -23.3294   -7.8123   -9.6003 C.3     1  UNL1        0.0954
      5 C         -23.7611   -8.7260  -10.7623 C.3     1  UNL1        0.0407
      6 C         -23.6759   -8.0499  -12.1723 C.3     1  UNL1        0.0731
      7 C         -23.8731   -6.5138  -12.0405 C.3     1  UNL1        0.0407
      8 C         -22.8278   -5.8597  -11.1156 C.3     1  UNL1        0.0954
      9 N         -22.3300   -8.3289  -12.7409 N.am    1  UNL1       -0.3015
     10 C         -22.0258   -9.6057  -13.3243 C.2     1  UNL1        0.2650
     11 O         -20.8385   -9.9333  -13.5864 O.2     1  UNL1       -0.2684
     12 C         -23.1439  -10.4820  -13.6414 C.ar    1  UNL1        0.1523
     13 N         -23.1003  -11.7085  -14.1877 N.ar    1  UNL1       -0.1650
     14 N         -24.3599  -12.0756  -14.4030 N.ar    1  UNL1       -0.2533
     15 C         -25.1958  -11.0738  -14.0310 C.ar    1  UNL1        0.0931
     16 C         -24.4319  -10.0533  -13.5068 C.ar    1  UNL1        0.0313
     17 C         -24.7749   -8.6335  -13.1416 C.3     1  UNL1        0.0945
     18 I         -26.8147   -8.4585  -12.4448 I       1  UNL1       -0.0687
     19 H         -21.5583   -7.6288  -12.6770 H       1  UNL1        0.1497
     20 C         -19.0507  -10.9382   -9.9507 C.ar    1  UNL1        0.2248
     21 N         -18.2310  -11.9179   -9.4754 N.ar    1  UNL1       -0.2101
     22 C         -17.5885  -11.8095   -8.2834 C.ar    1  UNL1        0.1021
     23 C         -17.7582  -10.6713   -7.4953 C.ar    1  UNL1        0.0209
     24 C         -18.5925   -9.6410   -7.9463 C.ar    1  UNL1        0.0060
     25 C         -18.7854   -8.4879   -7.1731 C.ar    1  UNL1        0.0003
     26 C         -19.6279   -7.4694   -7.6258 C.ar    1  UNL1        0.0045
     27 C         -20.2913   -7.5854   -8.8585 C.ar    1  UNL1        0.0537
     28 C         -20.0753   -8.7282   -9.6478 C.ar    1  UNL1        0.0092
     29 C         -19.2454   -9.7668   -9.1938 C.ar    1  UNL1        0.0534
     30 C         -20.4164  -12.2816  -11.5253 C.3     1  UNL1        0.2542
     31 O         -19.7033  -11.1004  -11.1792 O.3     1  UNL1       -0.4561
     32 C         -24.7577  -13.3410  -15.0512 C.3     1  UNL1        0.0867
     33 C         -26.1738  -13.7391  -14.5903 C.3     1  UNL1        0.0244
     34 C         -24.7406  -13.1570  -16.5793 C.3     1  UNL1        0.0244
     35 C         -23.7805  -14.4746  -14.6710 C.3     1  UNL1        0.0244
@<TRIPOS>BOND
     1    30    31    1
     2    31    20    1
     3    20    21   ar
     4    21    22   ar
     5    22    23   ar
     6    23    24   ar
     7    24    25   ar
     8    25    26   ar
     9    26    27   ar
    10    27     1    1
    11     1     2    2
    12     1     3   am
    13     3     4    1
    14     4     5    1
    15     5     6    1
    16     6     7    1
    17     7     8    1
    18     6     9    1
    19     9    10   am
    20    10    11    2
    21    10    12    1
    22    12    13   ar
    23    13    14   ar
    24    14    32    1
    25    32    33    1
    26    32    34    1
    27    32    35    1
    28    14    15   ar
    29    15    16   ar
    30    16    17    1
    31    17    18    1
    32    27    28   ar
    33    28    29   ar
    34    29    20   ar
    35    29    24   ar
    36     8     3    1
    37    16    12   ar
    38    17     6    1
    39     9    19    1
@<TRIPOS>MOLECULE
*****
 35 39 0 0 0
SMALL
GASTEIGER

@<TRIPOS>ATOM
      1 C         -26.3374   -5.5237  -12.8507 C.2     1  UNL1        0.2490
      2 O         -27.1311   -4.8512  -12.1372 O.2     1  UNL1       -0.2699
      3 N         -25.4925   -6.5088  -12.2264 N.am    1  UNL1       -0.2760
      4 C         -24.0663   -6.5974  -12.5568 C.3     1  UNL1        0.0954
      5 C         -23.6489   -8.0573  -12.8136 C.3     1  UNL1        0.0407
      6 C         -24.5465   -9.1156  -12.0877 C.3     1  UNL1        0.0731
      7 C         -25.1446   -8.5072  -10.7885 C.3     1  UNL1        0.0407
      8 C         -25.9889   -7.2463  -11.0591 C.3     1  UNL1        0.0954
      9 N         -25.6504   -9.4984  -13.0084 N.am    1  UNL1       -0.3015
     10 C         -25.4246  -10.4172  -14.0890 C.2     1  UNL1        0.2650
     11 O         -26.2746  -10.5613  -15.0069 O.2     1  UNL1       -0.2684
     12 C         -24.2010  -11.2048  -14.0556 C.ar    1  UNL1        0.1523
     13 N         -23.7843  -12.1181  -14.9482 N.ar    1  UNL1       -0.1650
     14 N         -22.6794  -12.6637  -14.4489 N.ar    1  UNL1       -0.2533
     15 C         -22.4175  -12.1273  -13.2305 C.ar    1  UNL1        0.0931
     16 C         -23.3679  -11.1619  -12.9762 C.ar    1  UNL1        0.0313
     17 C         -23.7118  -10.4030  -11.7222 C.3     1  UNL1        0.0945
     18 I         -21.9662  -10.0593  -10.4925 I       1  UNL1       -0.0687
     19 H         -26.5971   -9.0657  -12.9297 H       1  UNL1        0.1497
     20 C         -24.2903   -6.2382  -17.3163 C.ar    1  UNL1        0.2248
     21 N         -24.2977   -5.9971  -18.6577 N.ar    1  UNL1       -0.2101
     22 C         -25.2448   -5.2234  -19.2492 C.ar    1  UNL1        0.1021
     23 C         -26.2529   -4.6387  -18.4827 C.ar    1  UNL1        0.0209
     24 C         -26.2817   -4.8605  -17.1003 C.ar    1  UNL1        0.0060
     25 C         -27.2800   -4.2817  -16.3048 C.ar    1  UNL1        0.0003
     26 C         -27.2951   -4.4996  -14.9248 C.ar    1  UNL1        0.0045
     27 C         -26.3135   -5.2995  -14.3165 C.ar    1  UNL1        0.0537
     28 C         -25.3295   -5.9041  -15.1176 C.ar    1  UNL1        0.0092
     29 C         -25.2935   -5.6764  -16.5034 C.ar    1  UNL1        0.0534
     30 C         -23.0826   -8.3936  -17.1045 C.3     1  UNL1        0.2542
     31 O         -23.2851   -7.0313  -16.7488 O.3     1  UNL1       -0.4561
     32 C         -21.9312  -13.7623  -15.0915 C.3     1  UNL1        0.0867
     33 C         -21.6677  -13.4170  -16.5705 C.3     1  UNL1        0.0244
     34 C         -20.5930  -13.9634  -14.3580 C.3     1  UNL1        0.0244
     35 C         -22.7399  -15.0763  -15.0304 C.3     1  UNL1        0.0244
@<TRIPOS>BOND
     1    30    31    1
     2    31    20    1
     3    20    21   ar
     4    21    22   ar
     5    22    23   ar
     6    23    24   ar
     7    24    25   ar
     8    25    26   ar
     9    26    27   ar
    10    27     1    1
    11     1     2    2
    12     1     3   am
    13     3     4    1
    14     4     5    1
    15     5     6    1
    16     6     7    1
    17     7     8    1
    18     6     9    1
    19     9    10   am
    20    10    11    2
    21    10    12    1
    22    12    13   ar
    23    13    14   ar
    24    14    32    1
    25    32    33    1
    26    32    34    1
    27    32    35    1
    28    14    15   ar
    29    15    16   ar
    30    16    17    1
    31    17    18    1
    32    27    28   ar
    33    28    29   ar
    34    29    20   ar
    35    29    24   ar
    36     8     3    1
    37    16    12   ar
    38    17     6    1
    39     9    19    1
@<TRIPOS>MOLECULE
*****
 35 39 0 0 0
SMALL
GASTEIGER

@<TRIPOS>ATOM
      1 C         -26.4717   -5.5482  -12.7590 C.2     1  UNL1        0.2490
      2 O         -27.2934   -4.8971  -12.0575 O.2     1  UNL1       -0.2699
      3 N         -25.6386   -6.5393  -12.1284 N.am    1  UNL1       -0.2760
      4 C         -24.2019   -6.6097  -12.4148 C.3     1  UNL1        0.0954
      5 C         -23.7640   -8.0605  -12.6881 C.3     1  UNL1        0.0407
      6 C         -24.6750   -9.1408  -12.0130 C.3     1  UNL1        0.0731
      7 C         -25.3192   -8.5643  -10.7214 C.3     1  UNL1        0.0407
      8 C         -26.1654   -7.3049  -10.9928 C.3     1  UNL1        0.0954
      9 N         -25.7457   -9.5132  -12.9761 N.am    1  UNL1       -0.3015
     10 C         -25.4778  -10.4075  -14.0676 C.2     1  UNL1        0.2650
     11 O         -26.2970  -10.5393  -15.0149 O.2     1  UNL1       -0.2684
     12 C         -24.2491  -11.1858  -14.0113 C.ar    1  UNL1        0.1523
     13 N         -23.7964  -12.0771  -14.9087 N.ar    1  UNL1       -0.1650
     14 N         -22.7033  -12.6241  -14.3857 N.ar    1  UNL1       -0.2533
     15 C         -22.4848  -12.1110  -13.1489 C.ar    1  UNL1        0.0931
     16 C         -23.4511  -11.1587  -12.9052 C.ar    1  UNL1        0.0313
     17 C         -23.8412  -10.4288  -11.6476 C.3     1  UNL1        0.0945
     18 I         -22.1386  -10.0968  -10.3560 I       1  UNL1       -0.0687
     19 H         -26.6982   -9.0898  -12.9188 H       1  UNL1        0.1497
     20 C         -28.2124   -3.3789  -16.8707 C.ar    1  UNL1        0.2248
     21 N         -28.1212   -3.1809  -18.2161 N.ar    1  UNL1       -0.2101
     22 C         -27.1493   -3.7589  -18.9689 C.ar    1  UNL1        0.1021
     23 C         -26.2023   -4.5920  -18.3735 C.ar    1  UNL1        0.0209
     24 C         -26.2603   -4.8227  -16.9935 C.ar    1  UNL1        0.0060
     25 C         -25.3247   -5.6590  -16.3692 C.ar    1  UNL1        0.0003
     26 C         -25.3963   -5.8921  -14.9935 C.ar    1  UNL1        0.0045
     27 C         -26.4033   -5.2934  -14.2184 C.ar    1  UNL1        0.0537
     28 C         -27.3239   -4.4313  -14.8389 C.ar    1  UNL1        0.0092
     29 C         -27.2729   -4.2049  -16.2244 C.ar    1  UNL1        0.0534
     30 C         -30.6182   -2.9619  -16.4373 C.3     1  UNL1        0.2542
     31 O         -29.2405   -2.7729  -16.1377 O.3     1  UNL1       -0.4561
     32 C         -21.9256  -13.7031  -15.0265 C.3     1  UNL1        0.0867
     33 C         -21.6514  -13.3424  -16.4999 C.3     1  UNL1        0.0244
     34 C         -20.5925  -13.8825  -14.2782 C.3     1  UNL1        0.0244
     35 C         -22.7084  -15.0334  -14.9839 C.3     1  UNL1        0.0244
@<TRIPOS>BOND
     1    30    31    1
     2    31    20    1
     3    20    21   ar
     4    21    22   ar
     5    22    23   ar
     6    23    24   ar
     7    24    25   ar
     8    25    26   ar
     9    26    27   ar
    10    27     1    1
    11     1     2    2
    12     1     3   am
    13     3     4    1
    14     4     5    1
    15     5     6    1
    16     6     7    1
    17     7     8    1
    18     6     9    1
    19     9    10   am
    20    10    11    2
    21    10    12    1
    22    12    13   ar
    23    13    14   ar
    24    14    32    1
    25    32    33    1
    26    32    34    1
    27    32    35    1
    28    14    15   ar
    29    15    16   ar
    30    16    17    1
    31    17    18    1
    32    27    28   ar
    33    28    29   ar
    34    29    20   ar
    35    29    24   ar
    36     8     3    1
    37    16    12   ar
    38    17     6    1
    39     9    19    1
@<TRIPOS>MOLECULE
*****
 35 39 0 0 0
SMALL
GASTEIGER

@<TRIPOS>ATOM
      1 C         -25.1733   -8.5768  -13.8199 C.2     1  UNL1        0.2490
      2 O         -26.1786   -8.1226  -14.4317 O.2     1  UNL1       -0.2699
      3 N         -24.2885   -7.6629  -13.1446 N.am    1  UNL1       -0.2760
      4 C         -22.8334   -7.7776  -13.2877 C.3     1  UNL1        0.0954
      5 C         -22.1348   -7.6814  -11.9187 C.3     1  UNL1        0.0407
      6 C         -22.9462   -6.8846  -10.8420 C.3     1  UNL1        0.0731
      7 C         -23.8485   -5.8231  -11.5310 C.3     1  UNL1        0.0407
      8 C         -24.8392   -6.4483  -12.5328 C.3     1  UNL1        0.0954
      9 N         -23.7983   -7.8483  -10.0950 N.am    1  UNL1       -0.3015
     10 C         -23.2407   -8.6851   -9.0694 C.2     1  UNL1        0.2650
     11 O         -23.8877   -9.6601   -8.6041 O.2     1  UNL1       -0.2684
     12 C         -21.9232   -8.3342   -8.5597 C.ar    1  UNL1        0.1523
     13 N         -21.2127   -8.9642   -7.6095 N.ar    1  UNL1       -0.1650
     14 N         -20.1300   -8.2248   -7.3890 N.ar    1  UNL1       -0.2533
     15 C         -20.1715   -7.1138   -8.1666 C.ar    1  UNL1        0.0931
     16 C         -21.3023   -7.1845   -8.9515 C.ar    1  UNL1        0.0313
     17 C         -21.9761   -6.1633   -9.8289 C.3     1  UNL1        0.0945
     18 I         -20.5460   -4.8069  -10.7190 I       1  UNL1       -0.0687
     19 H         -24.8048   -7.9832  -10.3368 H       1  UNL1        0.1497
     20 C         -24.2470  -12.8695  -16.1344 C.ar    1  UNL1        0.2248
     21 N         -24.0526  -14.2167  -16.0651 N.ar    1  UNL1       -0.2101
     22 C         -24.0745  -14.8918  -14.8864 C.ar    1  UNL1        0.1021
     23 C         -24.3064  -14.2108  -13.6915 C.ar    1  UNL1        0.0209
     24 C         -24.5116  -12.8258  -13.7181 C.ar    1  UNL1        0.0060
     25 C         -24.7516  -12.1164  -12.5334 C.ar    1  UNL1        0.0003
     26 C         -24.9658  -10.7362  -12.5702 C.ar    1  UNL1        0.0045
     27 C         -24.9434  -10.0417  -13.7910 C.ar    1  UNL1        0.0537
     28 C         -24.6736  -10.7477  -14.9761 C.ar    1  UNL1        0.0092
     29 C         -24.4757  -12.1384  -14.9529 C.ar    1  UNL1        0.0534
     30 C         -23.0284  -11.7949  -18.0078 C.3     1  UNL1        0.2542
     31 O         -24.2296  -12.2183  -17.3742 O.3     1  UNL1       -0.4561
     32 C         -19.1076   -8.5314   -6.3689 C.3     1  UNL1        0.0867
     33 C         -19.7886   -8.7848   -5.0094 C.3     1  UNL1        0.0244
     34 C         -18.3207   -9.7829   -6.7977 C.3     1  UNL1        0.0244
     35 C         -18.1260   -7.3496   -6.2140 C.3     1  UNL1        0.0244
@<TRIPOS>BOND
     1    30    31    1
     2    31    20    1
     3    20    21   ar
     4    21    22   ar
     5    22    23   ar
     6    23    24   ar
     7    24    25   ar
     8    25    26   ar
     9    26    27   ar
    10    27     1    1
    11     1     2    2
    12     1     3   am
    13     3     4    1
    14     4     5    1
    15     5     6    1
    16     6     7    1
    17     7     8    1
    18     6     9    1
    19     9    10   am
    20    10    11    2
    21    10    12    1
    22    12    13   ar
    23    13    14   ar
    24    14    32    1
    25    32    33    1
    26    32    34    1
    27    32    35    1
    28    14    15   ar
    29    15    16   ar
    30    16    17    1
    31    17    18    1
    32    27    28   ar
    33    28    29   ar
    34    29    20   ar
    35    29    24   ar
    36     8     3    1
    37    16    12   ar
    38    17     6    1
    39     9    19    1
@<TRIPOS>MOLECULE
*****
 35 39 0 0 0
SMALL
GASTEIGER

@<TRIPOS>ATOM
      1 C         -23.8259   -9.0535  -14.4842 C.2     1  UNL1        0.2490
      2 O         -24.8216   -8.7641  -15.2025 O.2     1  UNL1       -0.2699
      3 N         -23.2797   -8.0539  -13.6031 N.am    1  UNL1       -0.2760
      4 C         -21.8332   -7.8235  -13.5285 C.3     1  UNL1        0.0954
      5 C         -21.3622   -7.7400  -12.0648 C.3     1  UNL1        0.0407
      6 C         -22.4731   -7.2798  -11.0614 C.3     1  UNL1        0.0731
      7 C         -23.5042   -6.3707  -11.7868 C.3     1  UNL1        0.0407
      8 C         -24.1784   -7.0752  -12.9805 C.3     1  UNL1        0.0954
      9 N         -23.1615   -8.4920  -10.5423 N.am    1  UNL1       -0.3015
     10 C         -22.5595   -9.3011   -9.5195 C.2     1  UNL1        0.2650
     11 O         -23.0111  -10.4445   -9.2467 O.2     1  UNL1       -0.2684
     12 C         -21.4414   -8.7297   -8.7833 C.ar    1  UNL1        0.1523
     13 N         -20.7317   -9.2956   -7.7930 N.ar    1  UNL1       -0.1650
     14 N         -19.8941   -8.3658   -7.3439 N.ar    1  UNL1       -0.2533
     15 C         -20.0969   -7.2065   -8.0188 C.ar    1  UNL1        0.0931
     16 C         -21.0661   -7.4320   -8.9726 C.ar    1  UNL1        0.0313
     17 C         -21.8431   -6.4882   -9.8514 C.3     1  UNL1        0.0945
     18 I         -20.6732   -4.7502  -10.3877 I       1  UNL1       -0.0687
     19 H         -24.0667   -8.8174  -10.9478 H       1  UNL1        0.1497
     20 C         -24.4000  -13.9771  -14.7509 C.ar    1  UNL1        0.2248
     21 N         -23.8394  -15.2186  -14.7955 N.ar    1  UNL1       -0.2101
     22 C         -22.4941  -15.4067  -14.7807 C.ar    1  UNL1        0.1021
     23 C         -21.6328  -14.3117  -14.7130 C.ar    1  UNL1        0.0209
     24 C         -22.1675  -13.0183  -14.6649 C.ar    1  UNL1        0.0060
     25 C         -21.3261  -11.8998  -14.5916 C.ar    1  UNL1        0.0003
     26 C         -21.8683  -10.6134  -14.5334 C.ar    1  UNL1        0.0045
     27 C         -23.2600  -10.4229  -14.5478 C.ar    1  UNL1        0.0537
     28 C         -24.1036  -11.5424  -14.6511 C.ar    1  UNL1        0.0092
     29 C         -23.5698  -12.8412  -14.6910 C.ar    1  UNL1        0.0534
     30 C         -26.5785  -13.8899  -13.5695 C.3     1  UNL1        0.2542
     31 O         -25.7930  -13.8328  -14.7541 O.3     1  UNL1       -0.4561
     32 C         -18.9703   -8.5578   -6.2085 C.3     1  UNL1        0.0867
     33 C         -19.7752   -8.7126   -4.9030 C.3     1  UNL1        0.0244
     34 C         -18.1232   -9.8201   -6.4499 C.3     1  UNL1        0.0244
     35 C         -18.0296   -7.3418   -6.0643 C.3     1  UNL1        0.0244
@<TRIPOS>BOND
     1    30    31    1
     2    31    20    1
     3    20    21   ar
     4    21    22   ar
     5    22    23   ar
     6    23    24   ar
     7    24    25   ar
     8    25    26   ar
     9    26    27   ar
    10    27     1    1
    11     1     2    2
    12     1     3   am
    13     3     4    1
    14     4     5    1
    15     5     6    1
    16     6     7    1
    17     7     8    1
    18     6     9    1
    19     9    10   am
    20    10    11    2
    21    10    12    1
    22    12    13   ar
    23    13    14   ar
    24    14    32    1
    25    32    33    1
    26    32    34    1
    27    32    35    1
    28    14    15   ar
    29    15    16   ar
    30    16    17    1
    31    17    18    1
    32    27    28   ar
    33    28    29   ar
    34    29    20   ar
    35    29    24   ar
    36     8     3    1
    37    16    12   ar
    38    17     6    1
    39     9    19    1
@<TRIPOS>MOLECULE
*****
 35 39 0 0 0
SMALL
GASTEIGER

@<TRIPOS>ATOM
      1 C         -18.5479  -11.0039   -9.2659 C.2     1  UNL1        0.2490
      2 O         -17.7698  -11.9930   -9.1799 O.2     1  UNL1       -0.2699
      3 N         -19.3588  -10.8471  -10.4457 N.am    1  UNL1       -0.2760
      4 C         -19.4680   -9.5486  -11.1186 C.3     1  UNL1        0.0954
      5 C         -20.9357   -9.2192  -11.4481 C.3     1  UNL1        0.0407
      6 C         -21.8522  -10.4787  -11.6106 C.3     1  UNL1        0.0731
      7 C         -21.0117  -11.6908  -12.1005 C.3     1  UNL1        0.0407
      8 C         -19.8591  -12.0399  -11.1385 C.3     1  UNL1        0.0954
      9 N         -22.4484  -10.7938  -10.2847 N.am    1  UNL1       -0.3015
     10 C         -23.5599  -10.0387   -9.7774 C.2     1  UNL1        0.2650
     11 O         -23.9139  -10.1343   -8.5727 O.2     1  UNL1       -0.2684
     12 C         -24.2856   -9.1983  -10.7186 C.ar    1  UNL1        0.1523
     13 N         -25.3476   -8.4132  -10.4730 N.ar    1  UNL1       -0.1650
     14 N         -25.7456   -7.9311  -11.6464 N.ar    1  UNL1       -0.2533
     15 C         -24.9650   -8.4364  -12.6344 C.ar    1  UNL1        0.0931
     16 C         -23.9984   -9.2276  -12.0518 C.ar    1  UNL1        0.0313
     17 C         -23.0118  -10.1993  -12.6426 C.3     1  UNL1        0.0945
     18 I         -22.3710   -9.5869  -14.6153 I       1  UNL1       -0.0687
     19 H         -22.0386  -11.5282   -9.6662 H       1  UNL1        0.1497
     20 C         -17.2926   -9.5886   -4.6764 C.ar    1  UNL1        0.2248
     21 N         -17.4008   -8.6862   -3.6607 N.ar    1  UNL1       -0.2101
     22 C         -18.1608   -7.5652   -3.7659 C.ar    1  UNL1        0.1021
     23 C         -18.8696   -7.3050   -4.9387 C.ar    1  UNL1        0.0209
     24 C         -18.7866   -8.2070   -6.0067 C.ar    1  UNL1        0.0060
     25 C         -19.4918   -7.9736   -7.1952 C.ar    1  UNL1        0.0003
     26 C         -19.4116   -8.8841   -8.2519 C.ar    1  UNL1        0.0045
     27 C         -18.6254  -10.0427   -8.1391 C.ar    1  UNL1        0.0537
     28 C         -17.8947  -10.2625   -6.9587 C.ar    1  UNL1        0.0092
     29 C         -17.9830   -9.3635   -5.8829 C.ar    1  UNL1        0.0534
     30 C         -15.1765  -10.8383   -5.0075 C.3     1  UNL1        0.2542
     31 O         -16.5079  -10.7377   -4.5170 O.3     1  UNL1       -0.4561
     32 C         -26.9278   -7.0664  -11.8320 C.3     1  UNL1        0.0867
     33 C         -27.7908   -7.6063  -12.9896 C.3     1  UNL1        0.0244
     34 C         -27.7532   -7.0477  -10.5330 C.3     1  UNL1        0.0244
     35 C         -26.4952   -5.6239  -12.1730 C.3     1  UNL1        0.0244
@<TRIPOS>BOND
     1    30    31    1
     2    31    20    1
     3    20    21   ar
     4    21    22   ar
     5    22    23   ar
     6    23    24   ar
     7    24    25   ar
     8    25    26   ar
     9    26    27   ar
    10    27     1    1
    11     1     2    2
    12     1     3   am
    13     3     4    1
    14     4     5    1
    15     5     6    1
    16     6     7    1
    17     7     8    1
    18     6     9    1
    19     9    10   am
    20    10    11    2
    21    10    12    1
    22    12    13   ar
    23    13    14   ar
    24    14    32    1
    25    32    33    1
    26    32    34    1
    27    32    35    1
    28    14    15   ar
    29    15    16   ar
    30    16    17    1
    31    17    18    1
    32    27    28   ar
    33    28    29   ar
    34    29    20   ar
    35    29    24   ar
    36     8     3    1
    37    16    12   ar
    38    17     6    1
    39     9    19    1
@<TRIPOS>MOLECULE
*****
 35 39 0 0 0
SMALL
GASTEIGER

@<TRIPOS>ATOM
      1 C         -23.5477   -8.4088  -14.4940 C.2     1  UNL1        0.2490
      2 O         -24.5348   -8.0666  -15.2009 O.2     1  UNL1       -0.2699
      3 N         -23.0345   -7.4904  -13.5105 N.am    1  UNL1       -0.2760
      4 C         -21.5937   -7.2468  -13.3855 C.3     1  UNL1        0.0954
      5 C         -21.1511   -7.2973  -11.9114 C.3     1  UNL1        0.0407
      6 C         -22.2878   -6.9521  -10.8909 C.3     1  UNL1        0.0731
      7 C         -23.3204   -5.9930  -11.5463 C.3     1  UNL1        0.0407
      8 C         -23.9607   -6.5896  -12.8150 C.3     1  UNL1        0.0954
      9 N         -22.9652   -8.2187  -10.5040 N.am    1  UNL1       -0.3015
     10 C         -22.3687   -9.1132   -9.5516 C.2     1  UNL1        0.2650
     11 O         -22.8061  -10.2841   -9.3985 O.2     1  UNL1       -0.2684
     12 C         -21.2740   -8.5986   -8.7420 C.ar    1  UNL1        0.1523
     13 N         -20.5731   -9.2464   -7.7966 N.ar    1  UNL1       -0.1650
     14 N         -19.7597   -8.3517   -7.2439 N.ar    1  UNL1       -0.2533
     15 C         -19.9693   -7.1360   -7.8087 C.ar    1  UNL1        0.0931
     16 C         -20.9170   -7.2833   -8.7987 C.ar    1  UNL1        0.0313
     17 C         -21.6933   -6.2711   -9.5984 C.3     1  UNL1        0.0945
     18 I         -20.5430   -4.4724   -9.9425 I       1  UNL1       -0.0687
     19 H         -23.8573   -8.5170  -10.9567 H       1  UNL1        0.1497
     20 C         -21.1067  -12.3532  -12.7261 C.ar    1  UNL1        0.2248
     21 N         -20.5675  -13.5865  -12.9400 N.ar    1  UNL1       -0.2101
     22 C         -20.6381  -14.2086  -14.1456 C.ar    1  UNL1        0.1021
     23 C         -21.2730  -13.5864  -15.2204 C.ar    1  UNL1        0.0209
     24 C         -21.8401  -12.3183  -15.0437 C.ar    1  UNL1        0.0060
     25 C         -22.4800  -11.6674  -16.1073 C.ar    1  UNL1        0.0003
     26 C         -23.0338  -10.3977  -15.9250 C.ar    1  UNL1        0.0045
     27 C         -22.9580   -9.7572  -14.6771 C.ar    1  UNL1        0.0537
     28 C         -22.3424  -10.4217  -13.6023 C.ar    1  UNL1        0.0092
     29 C         -21.7655  -11.6902  -13.7793 C.ar    1  UNL1        0.0534
     30 C         -19.7874  -11.7308  -10.7207 C.3     1  UNL1        0.2542
     31 O         -20.9969  -11.7449  -11.4693 O.3     1  UNL1       -0.4561
     32 C         -18.8537   -8.6381   -6.1140 C.3     1  UNL1        0.0867
     33 C         -19.6757   -8.8357   -4.8250 C.3     1  UNL1        0.0244
     34 C         -18.0489   -9.9144   -6.4183 C.3     1  UNL1        0.0244
     35 C         -17.8726   -7.4657   -5.8961 C.3     1  UNL1        0.0244
@<TRIPOS>BOND
     1    30    31    1
     2    31    20    1
     3    20    21   ar
     4    21    22   ar
     5    22    23   ar
     6    23    24   ar
     7    24    25   ar
     8    25    26   ar
     9    26    27   ar
    10    27     1    1
    11     1     2    2
    12     1     3   am
    13     3     4    1
    14     4     5    1
    15     5     6    1
    16     6     7    1
    17     7     8    1
    18     6     9    1
    19     9    10   am
    20    10    11    2
    21    10    12    1
    22    12    13   ar
    23    13    14   ar
    24    14    32    1
    25    32    33    1
    26    32    34    1
    27    32    35    1
    28    14    15   ar
    29    15    16   ar
    30    16    17    1
    31    17    18    1
    32    27    28   ar
    33    28    29   ar
    34    29    20   ar
    35    29    24   ar
    36     8     3    1
    37    16    12   ar
    38    17     6    1
    39     9    19    1
