@<TRIPOS>MOLECULE
*****
 36 39 0 0 0
SMALL
GASTEIGER

@<TRIPOS>ATOM
      1 N         -29.3649   46.8322   -6.4127 N.am    1  UNL1       -0.2685
      2 C         -28.9446   47.1520   -7.7497 C.2     1  UNL1        0.2677
      3 O         -29.5380   46.6274   -8.7293 O.2     1  UNL1       -0.2682
      4 C         -27.7854   48.0402   -7.9643 C.ar    1  UNL1        0.1400
      5 N         -26.6737   47.8128   -7.2151 N.ar    1  UNL1       -0.2388
      6 C         -25.5701   48.5948   -7.2862 C.ar    1  UNL1        0.0990
      7 C         -25.5442   49.6938   -8.1470 C.ar    1  UNL1        0.0196
      8 C         -24.4096   50.5168   -8.2113 C.ar    1  UNL1        0.0016
      9 C         -24.3911   51.6193   -9.0660 C.ar    1  UNL1        0.0000
     10 C         -25.5008   51.9073   -9.8604 C.ar    1  UNL1        0.0000
     11 C         -26.6375   51.0961   -9.8055 C.ar    1  UNL1        0.0006
     12 C         -26.6787   49.9760   -8.9478 C.ar    1  UNL1        0.0085
     13 C         -27.8178   49.1392   -8.8551 C.ar    1  UNL1        0.0437
     14 S         -29.3215   49.5189   -9.7819 S.3     1  UNL1       -0.1398
     15 H         -28.9055   48.7396  -10.8775 H       1  UNL1        0.1072
     16 C         -31.5663   47.8942   -6.0184 C.3     1  UNL1        0.0265
     17 C         -30.0903   47.8246   -5.5958 C.3     1  UNL1        0.1007
     18 C         -29.3755   49.1695   -5.6161 C.ar    1  UNL1        0.0234
     19 C         -29.8292   50.2474   -6.4075 C.ar    1  UNL1        0.0019
     20 C         -29.0954   51.4343   -6.4805 C.ar    1  UNL1        0.0295
     21 C         -27.9015   51.5657   -5.7705 C.ar    1  UNL1        0.1424
     22 F         -27.1867   52.7148   -5.8524 F       1  UNL1       -0.2041
     23 C         -27.4378   50.5089   -4.9853 C.ar    1  UNL1        0.0590
     24 C         -28.1634   49.3156   -4.9100 C.ar    1  UNL1        0.1399
     25 F         -27.6691   48.2936   -4.1661 F       1  UNL1       -0.2044
     26 C         -29.1589   45.4687   -5.9110 C.3     1  UNL1        0.1207
     27 C         -28.6279   45.4969   -4.5021 C.ar    1  UNL1       -0.0021
     28 C         -29.5081   45.6258   -3.4174 C.ar    1  UNL1       -0.0026
     29 C         -29.0211   45.5977   -2.1101 C.ar    1  UNL1       -0.0001
     30 C         -27.6536   45.4440   -1.8729 C.ar    1  UNL1        0.0064
     31 C         -26.7521   45.3249   -2.9456 C.ar    1  UNL1        0.0752
     32 C         -27.2528   45.3429   -4.2607 C.ar    1  UNL1        0.0038
     33 C         -25.3026   45.1572   -2.6785 C.2     1  UNL1        0.3380
     34 O         -24.4764   45.9597   -3.1889 O.2     1  UNL1       -0.2451
     35 O         -24.8169   44.1190   -1.8842 O.3     1  UNL1       -0.4771
     36 H         -25.4094   43.3796   -1.5300 H       1  UNL1        0.2954
@<TRIPOS>BOND
     1    16    17    1
     2    17    18    1
     3    18    19   ar
     4    19    20   ar
     5    20    21   ar
     6    21    22    1
     7    21    23   ar
     8    23    24   ar
     9    24    25    1
    10    17     1    1
    11     1    26    1
    12    26    27    1
    13    27    28   ar
    14    28    29   ar
    15    29    30   ar
    16    30    31   ar
    17    31    33    1
    18    33    34    2
    19    33    35    1
    20    31    32   ar
    21     1     2   am
    22     2     3    2
    23     2     4    1
    24     4     5   ar
    25     5     6   ar
    26     6     7   ar
    27     7     8   ar
    28     8     9   ar
    29     9    10   ar
    30    10    11   ar
    31    11    12   ar
    32    12    13   ar
    33    13    14    1
    34    24    18   ar
    35    32    27   ar
    36    13     4   ar
    37    12     7   ar
    38    35    36    1
    39    14    15    1
@<TRIPOS>MOLECULE
*****
 36 39 0 0 0
SMALL
GASTEIGER

@<TRIPOS>ATOM
      1 N         -29.3727   46.7434   -5.9456 N.am    1  UNL1       -0.2685
      2 C         -28.5383   46.5770   -7.1042 C.2     1  UNL1        0.2677
      3 O         -28.6619   45.5444   -7.8153 O.2     1  UNL1       -0.2682
      4 C         -27.5035   47.5822   -7.4168 C.ar    1  UNL1        0.1400
      5 N         -26.6713   47.9597   -6.4100 N.ar    1  UNL1       -0.2388
      6 C         -25.7204   48.9119   -6.5640 C.ar    1  UNL1        0.0990
      7 C         -25.5691   49.5589   -7.7919 C.ar    1  UNL1        0.0196
      8 C         -24.5968   50.5580   -7.9511 C.ar    1  UNL1        0.0016
      9 C         -24.4548   51.2087   -9.1770 C.ar    1  UNL1        0.0000
     10 C         -25.2789   50.8679  -10.2495 C.ar    1  UNL1        0.0000
     11 C         -26.2517   49.8750  -10.1042 C.ar    1  UNL1        0.0006
     12 C         -26.4135   49.2040   -8.8731 C.ar    1  UNL1        0.0085
     13 C         -27.3972   48.2025   -8.6842 C.ar    1  UNL1        0.0437
     14 S         -28.5605   47.7891  -10.0033 S.3     1  UNL1       -0.1398
     15 H         -27.7129   46.7850  -10.5073 H       1  UNL1        0.1072
     16 C         -31.5329   47.3624   -6.9847 C.3     1  UNL1        0.0265
     17 C         -30.4657   47.7351   -5.9433 C.3     1  UNL1        0.1007
     18 C         -29.9162   49.1474   -6.0970 C.ar    1  UNL1        0.0234
     19 C         -29.9047   49.8158   -7.3408 C.ar    1  UNL1        0.0019
     20 C         -29.3035   51.0708   -7.4682 C.ar    1  UNL1        0.0295
     21 C         -28.7048   51.6772   -6.3634 C.ar    1  UNL1        0.1424
     22 F         -28.1130   52.8900   -6.4933 F       1  UNL1       -0.2041
     23 C         -28.7054   51.0289   -5.1273 C.ar    1  UNL1        0.0590
     24 C         -29.3007   49.7706   -4.9916 C.ar    1  UNL1        0.1399
     25 F         -29.2545   49.1501   -3.7853 F       1  UNL1       -0.2044
     26 C         -29.1922   45.8379   -4.8050 C.3     1  UNL1        0.1207
     27 C         -27.8642   46.0833   -4.1385 C.ar    1  UNL1       -0.0021
     28 C         -26.8827   45.0812   -4.1280 C.ar    1  UNL1       -0.0026
     29 C         -25.6332   45.3275   -3.5578 C.ar    1  UNL1       -0.0001
     30 C         -25.3525   46.5725   -2.9912 C.ar    1  UNL1        0.0064
     31 C         -26.3257   47.5875   -2.9803 C.ar    1  UNL1        0.0752
     32 C         -27.5795   47.3346   -3.5674 C.ar    1  UNL1        0.0038
     33 C         -26.0119   48.9068   -2.3793 C.2     1  UNL1        0.3380
     34 O         -25.9478   49.9285   -3.1137 O.2     1  UNL1       -0.2451
     35 O         -25.7672   49.0533   -1.0143 O.3     1  UNL1       -0.4771
     36 H         -25.6981   48.2646   -0.3845 H       1  UNL1        0.2954
@<TRIPOS>BOND
     1    16    17    1
     2    17    18    1
     3    18    19   ar
     4    19    20   ar
     5    20    21   ar
     6    21    22    1
     7    21    23   ar
     8    23    24   ar
     9    24    25    1
    10    17     1    1
    11     1    26    1
    12    26    27    1
    13    27    28   ar
    14    28    29   ar
    15    29    30   ar
    16    30    31   ar
    17    31    33    1
    18    33    34    2
    19    33    35    1
    20    31    32   ar
    21     1     2   am
    22     2     3    2
    23     2     4    1
    24     4     5   ar
    25     5     6   ar
    26     6     7   ar
    27     7     8   ar
    28     8     9   ar
    29     9    10   ar
    30    10    11   ar
    31    11    12   ar
    32    12    13   ar
    33    13    14    1
    34    24    18   ar
    35    32    27   ar
    36    13     4   ar
    37    12     7   ar
    38    35    36    1
    39    14    15    1
@<TRIPOS>MOLECULE
*****
 36 39 0 0 0
SMALL
GASTEIGER

@<TRIPOS>ATOM
      1 N         -27.4046   47.9221   -7.1961 N.am    1  UNL1       -0.2685
      2 C         -27.3445   47.2227   -8.4506 C.2     1  UNL1        0.2677
      3 O         -26.4849   46.3168   -8.6158 O.2     1  UNL1       -0.2682
      4 C         -28.2449   47.6113   -9.5539 C.ar    1  UNL1        0.1400
      5 N         -28.5155   48.9350   -9.7061 N.ar    1  UNL1       -0.2388
      6 C         -29.3685   49.4046  -10.6477 C.ar    1  UNL1        0.0990
      7 C         -30.0207   48.5182  -11.5068 C.ar    1  UNL1        0.0196
      8 C         -30.9183   48.9988  -12.4724 C.ar    1  UNL1        0.0016
      9 C         -31.5751   48.1091  -13.3230 C.ar    1  UNL1        0.0000
     10 C         -31.3414   46.7381  -13.2170 C.ar    1  UNL1        0.0000
     11 C         -30.4503   46.2462  -12.2592 C.ar    1  UNL1        0.0006
     12 C         -29.7753   47.1277  -11.3878 C.ar    1  UNL1        0.0085
     13 C         -28.8759   46.6652  -10.3961 C.ar    1  UNL1        0.0437
     14 S         -28.6095   44.8964  -10.1424 S.3     1  UNL1       -0.1398
     15 H         -27.5342   44.8750  -11.0502 H       1  UNL1        0.1072
     16 C         -29.3568   46.4788   -6.7111 C.3     1  UNL1        0.0265
     17 C         -28.5144   47.6801   -6.2536 C.3     1  UNL1        0.1007
     18 C         -29.3205   48.9526   -6.0276 C.ar    1  UNL1        0.0234
     19 C         -30.2393   49.4374   -6.9841 C.ar    1  UNL1        0.0019
     20 C         -30.8890   50.6593   -6.7907 C.ar    1  UNL1        0.0295
     21 C         -30.6337   51.4160   -5.6466 C.ar    1  UNL1        0.1424
     22 F         -31.2577   52.6062   -5.4675 F       1  UNL1       -0.2041
     23 C         -29.7266   50.9523   -4.6925 C.ar    1  UNL1        0.0590
     24 C         -29.0683   49.7326   -4.8800 C.ar    1  UNL1        0.1399
     25 F         -28.1659   49.3250   -3.9517 F       1  UNL1       -0.2044
     26 C         -26.2901   48.7986   -6.8181 C.3     1  UNL1        0.1207
     27 C         -26.2604   50.0249   -7.6917 C.ar    1  UNL1       -0.0021
     28 C         -27.0228   51.1527   -7.3532 C.ar    1  UNL1       -0.0026
     29 C         -26.9535   52.3076   -8.1331 C.ar    1  UNL1       -0.0001
     30 C         -26.1267   52.3474   -9.2578 C.ar    1  UNL1        0.0064
     31 C         -25.3628   51.2244   -9.6222 C.ar    1  UNL1        0.0752
     32 C         -25.4299   50.0674   -8.8237 C.ar    1  UNL1        0.0038
     33 C         -24.4851   51.2827  -10.8166 C.2     1  UNL1        0.3380
     34 O         -24.6817   50.4896  -11.7756 O.2     1  UNL1       -0.2451
     35 O         -23.4272   52.1866  -10.9080 O.3     1  UNL1       -0.4771
     36 H         -23.1465   52.7781  -10.1368 H       1  UNL1        0.2954
@<TRIPOS>BOND
     1    16    17    1
     2    17    18    1
     3    18    19   ar
     4    19    20   ar
     5    20    21   ar
     6    21    22    1
     7    21    23   ar
     8    23    24   ar
     9    24    25    1
    10    17     1    1
    11     1    26    1
    12    26    27    1
    13    27    28   ar
    14    28    29   ar
    15    29    30   ar
    16    30    31   ar
    17    31    33    1
    18    33    34    2
    19    33    35    1
    20    31    32   ar
    21     1     2   am
    22     2     3    2
    23     2     4    1
    24     4     5   ar
    25     5     6   ar
    26     6     7   ar
    27     7     8   ar
    28     8     9   ar
    29     9    10   ar
    30    10    11   ar
    31    11    12   ar
    32    12    13   ar
    33    13    14    1
    34    24    18   ar
    35    32    27   ar
    36    13     4   ar
    37    12     7   ar
    38    35    36    1
    39    14    15    1
@<TRIPOS>MOLECULE
*****
 36 39 0 0 0
SMALL
GASTEIGER

@<TRIPOS>ATOM
      1 N         -29.2586   49.9491   -8.8730 N.am    1  UNL1       -0.2685
      2 C         -28.9248   48.5724   -8.6286 C.2     1  UNL1        0.2677
      3 O         -28.9745   47.7438   -9.5762 O.2     1  UNL1       -0.2682
      4 C         -28.5883   48.1280   -7.2618 C.ar    1  UNL1        0.1400
      5 N         -29.4691   48.4271   -6.2702 N.ar    1  UNL1       -0.2388
      6 C         -29.2419   48.1184   -4.9711 C.ar    1  UNL1        0.0990
      7 C         -28.0594   47.4754   -4.6001 C.ar    1  UNL1        0.0196
      8 C         -27.8120   47.1693   -3.2533 C.ar    1  UNL1        0.0016
      9 C         -26.6252   46.5349   -2.8854 C.ar    1  UNL1        0.0000
     10 C         -25.6799   46.2022   -3.8557 C.ar    1  UNL1        0.0000
     11 C         -25.9136   46.5021   -5.2006 C.ar    1  UNL1        0.0006
     12 C         -27.1069   47.1440   -5.5955 C.ar    1  UNL1        0.0085
     13 C         -27.3725   47.4760   -6.9466 C.ar    1  UNL1        0.0437
     14 S         -26.1441   47.1632   -8.2340 S.3     1  UNL1       -0.1398
     15 H         -26.6724   45.8862   -8.5007 H       1  UNL1        0.1072
     16 C         -27.2239   50.7302  -10.0474 C.3     1  UNL1        0.0265
     17 C         -28.2070   50.9846   -8.8938 C.3     1  UNL1        0.1007
     18 C         -27.5425   51.1094   -7.5289 C.ar    1  UNL1        0.0234
     19 C         -26.2003   50.7280   -7.3113 C.ar    1  UNL1        0.0019
     20 C         -25.6509   50.7613   -6.0269 C.ar    1  UNL1        0.0295
     21 C         -26.4269   51.1717   -4.9425 C.ar    1  UNL1        0.1424
     22 F         -25.8936   51.1924   -3.6961 F       1  UNL1       -0.2041
     23 C         -27.7559   51.5497   -5.1400 C.ar    1  UNL1        0.0590
     24 C         -28.3156   51.5151   -6.4213 C.ar    1  UNL1        0.1399
     25 F         -29.6205   51.8550   -6.5763 F       1  UNL1       -0.2044
     26 C         -30.6445   50.2945   -9.2095 C.3     1  UNL1        0.1207
     27 C         -30.7388   50.7833  -10.6308 C.ar    1  UNL1       -0.0021
     28 C         -31.0073   49.8824  -11.6719 C.ar    1  UNL1       -0.0026
     29 C         -31.1480   50.3434  -12.9813 C.ar    1  UNL1       -0.0001
     30 C         -31.0196   51.7047  -13.2645 C.ar    1  UNL1        0.0064
     31 C         -30.7389   52.6240  -12.2379 C.ar    1  UNL1        0.0752
     32 C         -30.6096   52.1521  -10.9184 C.ar    1  UNL1        0.0038
     33 C         -30.6102   54.0678  -12.5527 C.2     1  UNL1        0.3380
     34 O         -31.5836   54.8411  -12.3483 O.2     1  UNL1       -0.2451
     35 O         -29.4385   54.6017  -13.0883 O.3     1  UNL1       -0.4771
     36 H         -28.6578   54.0260  -13.3754 H       1  UNL1        0.2954
@<TRIPOS>BOND
     1    16    17    1
     2    17    18    1
     3    18    19   ar
     4    19    20   ar
     5    20    21   ar
     6    21    22    1
     7    21    23   ar
     8    23    24   ar
     9    24    25    1
    10    17     1    1
    11     1    26    1
    12    26    27    1
    13    27    28   ar
    14    28    29   ar
    15    29    30   ar
    16    30    31   ar
    17    31    33    1
    18    33    34    2
    19    33    35    1
    20    31    32   ar
    21     1     2   am
    22     2     3    2
    23     2     4    1
    24     4     5   ar
    25     5     6   ar
    26     6     7   ar
    27     7     8   ar
    28     8     9   ar
    29     9    10   ar
    30    10    11   ar
    31    11    12   ar
    32    12    13   ar
    33    13    14    1
    34    24    18   ar
    35    32    27   ar
    36    13     4   ar
    37    12     7   ar
    38    35    36    1
    39    14    15    1
@<TRIPOS>MOLECULE
*****
 36 39 0 0 0
SMALL
GASTEIGER

@<TRIPOS>ATOM
      1 N         -29.8114   46.6881   -5.7693 N.am    1  UNL1       -0.2685
      2 C         -28.7660   46.5917   -6.7513 C.2     1  UNL1        0.2677
      3 O         -28.4898   45.4710   -7.2560 O.2     1  UNL1       -0.2682
      4 C         -27.9842   47.7899   -7.1143 C.ar    1  UNL1        0.1400
      5 N         -27.4692   48.5341   -6.0996 N.ar    1  UNL1       -0.2388
      6 C         -26.7816   49.6821   -6.3092 C.ar    1  UNL1        0.0990
      7 C         -26.5847   50.1536   -7.6085 C.ar    1  UNL1        0.0196
      8 C         -25.8880   51.3514   -7.8294 C.ar    1  UNL1        0.0016
      9 C         -25.7011   51.8241   -9.1287 C.ar    1  UNL1        0.0000
     10 C         -26.2061   51.1071  -10.2134 C.ar    1  UNL1        0.0000
     11 C         -26.9025   49.9130  -10.0072 C.ar    1  UNL1        0.0006
     12 C         -27.1039   49.4163   -8.7015 C.ar    1  UNL1        0.0085
     13 C         -27.8161   48.2175   -8.4528 C.ar    1  UNL1        0.0437
     14 S         -28.5809   47.2987   -9.8074 S.3     1  UNL1       -0.1398
     15 H         -27.4290   46.5117   -9.9934 H       1  UNL1        0.1072
     16 C         -31.5563   46.8936   -7.5135 C.3     1  UNL1        0.0265
     17 C         -31.1035   47.3164   -6.1070 C.3     1  UNL1        0.1007
     18 C         -31.0425   48.8246   -5.9026 C.ar    1  UNL1        0.0234
     19 C         -30.6701   49.7070   -6.9402 C.ar    1  UNL1        0.0019
     20 C         -30.5274   51.0750   -6.6935 C.ar    1  UNL1        0.0295
     21 C         -30.7508   51.5840   -5.4138 C.ar    1  UNL1        0.1424
     22 F         -30.6009   52.9102   -5.1757 F       1  UNL1       -0.2041
     23 C         -31.1173   50.7250   -4.3764 C.ar    1  UNL1        0.0590
     24 C         -31.2579   49.3538   -4.6131 C.ar    1  UNL1        0.1399
     25 F         -31.5811   48.5392   -3.5766 F       1  UNL1       -0.2044
     26 C         -29.6155   46.0559   -4.4596 C.3     1  UNL1        0.1207
     27 C         -28.4218   46.6485   -3.7583 C.ar    1  UNL1       -0.0021
     28 C         -28.4625   47.9690   -3.2867 C.ar    1  UNL1       -0.0026
     29 C         -27.3768   48.5000   -2.5896 C.ar    1  UNL1       -0.0001
     30 C         -26.2409   47.7212   -2.3592 C.ar    1  UNL1        0.0064
     31 C         -26.1739   46.3988   -2.8332 C.ar    1  UNL1        0.0752
     32 C         -27.2779   45.8673   -3.5256 C.ar    1  UNL1        0.0038
     33 C         -24.9629   45.5816   -2.5768 C.2     1  UNL1        0.3380
     34 O         -25.0846   44.3914   -2.1818 O.2     1  UNL1       -0.2451
     35 O         -23.6785   46.0977   -2.7456 O.3     1  UNL1       -0.4771
     36 H         -23.5051   47.0716   -2.9575 H       1  UNL1        0.2954
@<TRIPOS>BOND
     1    16    17    1
     2    17    18    1
     3    18    19   ar
     4    19    20   ar
     5    20    21   ar
     6    21    22    1
     7    21    23   ar
     8    23    24   ar
     9    24    25    1
    10    17     1    1
    11     1    26    1
    12    26    27    1
    13    27    28   ar
    14    28    29   ar
    15    29    30   ar
    16    30    31   ar
    17    31    33    1
    18    33    34    2
    19    33    35    1
    20    31    32   ar
    21     1     2   am
    22     2     3    2
    23     2     4    1
    24     4     5   ar
    25     5     6   ar
    26     6     7   ar
    27     7     8   ar
    28     8     9   ar
    29     9    10   ar
    30    10    11   ar
    31    11    12   ar
    32    12    13   ar
    33    13    14    1
    34    24    18   ar
    35    32    27   ar
    36    13     4   ar
    37    12     7   ar
    38    35    36    1
    39    14    15    1
@<TRIPOS>MOLECULE
*****
 36 39 0 0 0
SMALL
GASTEIGER

@<TRIPOS>ATOM
      1 N         -30.2179   47.9913   -8.3807 N.am    1  UNL1       -0.2685
      2 C         -30.4933   47.1052   -7.2828 C.2     1  UNL1        0.2677
      3 O         -31.5836   46.4749   -7.2520 O.2     1  UNL1       -0.2682
      4 C         -29.5285   46.9877   -6.1718 C.ar    1  UNL1        0.1400
      5 N         -28.9988   48.1379   -5.6767 N.ar    1  UNL1       -0.2388
      6 C         -28.0650   48.1512   -4.6956 C.ar    1  UNL1        0.0990
      7 C         -27.5986   46.9511   -4.1558 C.ar    1  UNL1        0.0196
      8 C         -26.6188   46.9595   -3.1515 C.ar    1  UNL1        0.0016
      9 C         -26.1486   45.7578   -2.6210 C.ar    1  UNL1        0.0000
     10 C         -26.6514   44.5431   -3.0872 C.ar    1  UNL1        0.0000
     11 C         -27.6270   44.5206   -4.0876 C.ar    1  UNL1        0.0006
     12 C         -28.1168   45.7239   -4.6391 C.ar    1  UNL1        0.0085
     13 C         -29.0949   45.7403   -5.6635 C.ar    1  UNL1        0.0437
     14 S         -29.7097   44.1995   -6.3791 S.3     1  UNL1       -0.1398
     15 H         -30.7635   44.1270   -5.4490 H       1  UNL1        0.1072
     16 C         -29.1552   46.1029   -9.5781 C.3     1  UNL1        0.0265
     17 C         -29.2205   47.6288   -9.4065 C.3     1  UNL1        0.1007
     18 C         -27.8751   48.2772   -9.1070 C.ar    1  UNL1        0.0234
     19 C         -26.9842   47.7463   -8.1488 C.ar    1  UNL1        0.0019
     20 C         -25.8029   48.4195   -7.8261 C.ar    1  UNL1        0.0295
     21 C         -25.4921   49.6287   -8.4490 C.ar    1  UNL1        0.1424
     22 F         -24.3505   50.2845   -8.1255 F       1  UNL1       -0.2041
     23 C         -26.3632   50.1684   -9.3968 C.ar    1  UNL1        0.0590
     24 C         -27.5499   49.5038   -9.7226 C.ar    1  UNL1        0.1399
     25 F         -28.3933   50.0710  -10.6221 F       1  UNL1       -0.2044
     26 C         -31.0204   49.2112   -8.5268 C.3     1  UNL1        0.1207
     27 C         -30.6557   50.2157   -7.4657 C.ar    1  UNL1       -0.0021
     28 C         -31.5822   50.5607   -6.4706 C.ar    1  UNL1       -0.0026
     29 C         -31.2258   51.4505   -5.4567 C.ar    1  UNL1       -0.0001
     30 C         -29.9449   52.0059   -5.4275 C.ar    1  UNL1        0.0064
     31 C         -29.0041   51.6830   -6.4216 C.ar    1  UNL1        0.0752
     32 C         -29.3681   50.7760   -7.4343 C.ar    1  UNL1        0.0038
     33 C         -27.6455   52.2767   -6.3751 C.2     1  UNL1        0.3380
     34 O         -27.0933   52.6575   -7.4416 O.2     1  UNL1       -0.2451
     35 O         -26.9443   52.4150   -5.1777 O.3     1  UNL1       -0.4771
     36 H         -27.2804   52.0368   -4.3016 H       1  UNL1        0.2954
@<TRIPOS>BOND
     1    16    17    1
     2    17    18    1
     3    18    19   ar
     4    19    20   ar
     5    20    21   ar
     6    21    22    1
     7    21    23   ar
     8    23    24   ar
     9    24    25    1
    10    17     1    1
    11     1    26    1
    12    26    27    1
    13    27    28   ar
    14    28    29   ar
    15    29    30   ar
    16    30    31   ar
    17    31    33    1
    18    33    34    2
    19    33    35    1
    20    31    32   ar
    21     1     2   am
    22     2     3    2
    23     2     4    1
    24     4     5   ar
    25     5     6   ar
    26     6     7   ar
    27     7     8   ar
    28     8     9   ar
    29     9    10   ar
    30    10    11   ar
    31    11    12   ar
    32    12    13   ar
    33    13    14    1
    34    24    18   ar
    35    32    27   ar
    36    13     4   ar
    37    12     7   ar
    38    35    36    1
    39    14    15    1
@<TRIPOS>MOLECULE
*****
 36 39 0 0 0
SMALL
GASTEIGER

@<TRIPOS>ATOM
      1 N         -28.0929   49.2918   -5.3720 N.am    1  UNL1       -0.2685
      2 C         -29.1387   49.3421   -6.3570 C.2     1  UNL1        0.2677
      3 O         -30.0979   50.1442   -6.2038 O.2     1  UNL1       -0.2682
      4 C         -29.1145   48.4139   -7.5044 C.ar    1  UNL1        0.1400
      5 N         -28.4158   47.2564   -7.3603 N.ar    1  UNL1       -0.2388
      6 C         -28.2782   46.3545   -8.3614 C.ar    1  UNL1        0.0990
      7 C         -28.8570   46.5981   -9.6084 C.ar    1  UNL1        0.0196
      8 C         -28.7025   45.6748  -10.6536 C.ar    1  UNL1        0.0016
      9 C         -29.2747   45.9260  -11.9010 C.ar    1  UNL1        0.0000
     10 C         -30.0032   47.0963  -12.1135 C.ar    1  UNL1        0.0000
     11 C         -30.1641   48.0246  -11.0811 C.ar    1  UNL1        0.0006
     12 C         -29.5936   47.7915   -9.8114 C.ar    1  UNL1        0.0085
     13 C         -29.7238   48.7152   -8.7456 C.ar    1  UNL1        0.0437
     14 S         -30.5679   50.2940   -8.9887 S.3     1  UNL1       -0.1398
     15 H         -31.8064   49.7515   -8.5979 H       1  UNL1        0.1072
     16 C         -26.3684   50.9078   -4.6343 C.3     1  UNL1        0.0265
     17 C         -26.7546   49.8388   -5.6688 C.3     1  UNL1        0.1007
     18 C         -26.6723   50.3155   -7.1132 C.ar    1  UNL1        0.0234
     19 C         -27.2456   51.5357   -7.5334 C.ar    1  UNL1        0.0019
     20 C         -27.2394   51.8967   -8.8833 C.ar    1  UNL1        0.0295
     21 C         -26.6660   51.0507   -9.8331 C.ar    1  UNL1        0.1424
     22 F         -26.6716   51.3992  -11.1432 F       1  UNL1       -0.2041
     23 C         -26.0972   49.8399   -9.4347 C.ar    1  UNL1        0.0590
     24 C         -26.1029   49.4683   -8.0864 C.ar    1  UNL1        0.1399
     25 F         -25.5734   48.2690   -7.7345 F       1  UNL1       -0.2044
     26 C         -28.4058   48.7879   -4.0298 C.3     1  UNL1        0.1207
     27 C         -28.0140   47.3394   -3.9029 C.ar    1  UNL1       -0.0021
     28 C         -28.7827   46.3423   -4.5217 C.ar    1  UNL1       -0.0026
     29 C         -28.3895   45.0056   -4.4492 C.ar    1  UNL1       -0.0001
     30 C         -27.2295   44.6509   -3.7575 C.ar    1  UNL1        0.0064
     31 C         -26.4503   45.6327   -3.1198 C.ar    1  UNL1        0.0752
     32 C         -26.8478   46.9799   -3.2074 C.ar    1  UNL1        0.0038
     33 C         -25.2178   45.2420   -2.3928 C.2     1  UNL1        0.3380
     34 O         -24.0987   45.6643   -2.7884 O.2     1  UNL1       -0.2451
     35 O         -25.2554   44.4001   -1.2818 O.3     1  UNL1       -0.4771
     36 H         -26.1025   43.9410   -0.9733 H       1  UNL1        0.2954
@<TRIPOS>BOND
     1    16    17    1
     2    17    18    1
     3    18    19   ar
     4    19    20   ar
     5    20    21   ar
     6    21    22    1
     7    21    23   ar
     8    23    24   ar
     9    24    25    1
    10    17     1    1
    11     1    26    1
    12    26    27    1
    13    27    28   ar
    14    28    29   ar
    15    29    30   ar
    16    30    31   ar
    17    31    33    1
    18    33    34    2
    19    33    35    1
    20    31    32   ar
    21     1     2   am
    22     2     3    2
    23     2     4    1
    24     4     5   ar
    25     5     6   ar
    26     6     7   ar
    27     7     8   ar
    28     8     9   ar
    29     9    10   ar
    30    10    11   ar
    31    11    12   ar
    32    12    13   ar
    33    13    14    1
    34    24    18   ar
    35    32    27   ar
    36    13     4   ar
    37    12     7   ar
    38    35    36    1
    39    14    15    1
@<TRIPOS>MOLECULE
*****
 36 39 0 0 0
SMALL
GASTEIGER

@<TRIPOS>ATOM
      1 N         -29.0607   48.1404   -7.8835 N.am    1  UNL1       -0.2685
      2 C         -28.6873   46.7789   -7.6128 C.2     1  UNL1        0.2677
      3 O         -29.1106   45.8585   -8.3615 O.2     1  UNL1       -0.2682
      4 C         -27.8653   46.4625   -6.4283 C.ar    1  UNL1        0.1400
      5 N         -26.5165   46.5830   -6.5505 N.ar    1  UNL1       -0.2388
      6 C         -25.6595   46.2690   -5.5496 C.ar    1  UNL1        0.0990
      7 C         -26.1487   45.7894   -4.3330 C.ar    1  UNL1        0.0196
      8 C         -25.2638   45.4465   -3.2995 C.ar    1  UNL1        0.0016
      9 C         -25.7559   44.9590   -2.0885 C.ar    1  UNL1        0.0000
     10 C         -27.1301   44.8111   -1.9005 C.ar    1  UNL1        0.0000
     11 C         -28.0223   45.1483   -2.9220 C.ar    1  UNL1        0.0006
     12 C         -27.5469   45.6428   -4.1555 C.ar    1  UNL1        0.0085
     13 C         -28.4196   45.9820   -5.2183 C.ar    1  UNL1        0.0437
     14 S         -30.2008   45.7167   -5.0721 S.3     1  UNL1       -0.1398
     15 H         -30.4047   47.0129   -4.5631 H       1  UNL1        0.1072
     16 C         -26.9811   48.3538   -9.2098 C.3     1  UNL1        0.0265
     17 C         -28.0752   49.0959   -8.4260 C.3     1  UNL1        0.1007
     18 C         -27.5417   50.0062   -7.3274 C.ar    1  UNL1        0.0234
     19 C         -26.9414   49.4947   -6.1560 C.ar    1  UNL1        0.0019
     20 C         -26.5527   50.3523   -5.1235 C.ar    1  UNL1        0.0295
     21 C         -26.7563   51.7276   -5.2398 C.ar    1  UNL1        0.1424
     22 F         -26.3877   52.5555   -4.2314 F       1  UNL1       -0.2041
     23 C         -27.3504   52.2493   -6.3901 C.ar    1  UNL1        0.0590
     24 C         -27.7469   51.3981   -7.4266 C.ar    1  UNL1        0.1399
     25 F         -28.3536   51.9314   -8.5174 F       1  UNL1       -0.2044
     26 C         -30.4630   48.5386   -7.7156 C.3     1  UNL1        0.1207
     27 C         -30.6168   49.4489   -6.5259 C.ar    1  UNL1       -0.0021
     28 C         -31.0294   50.7781   -6.7014 C.ar    1  UNL1       -0.0026
     29 C         -31.2238   51.6055   -5.5948 C.ar    1  UNL1       -0.0001
     30 C         -31.0059   51.1166   -4.3051 C.ar    1  UNL1        0.0064
     31 C         -30.5807   49.7909   -4.1066 C.ar    1  UNL1        0.0752
     32 C         -30.3979   48.9597   -5.2275 C.ar    1  UNL1        0.0038
     33 C         -30.3580   49.2836   -2.7306 C.2     1  UNL1        0.3380
     34 O         -31.0959   49.6827   -1.7906 O.2     1  UNL1       -0.2451
     35 O         -29.3369   48.3806   -2.4363 O.3     1  UNL1       -0.4771
     36 H         -28.6437   48.0997   -3.1174 H       1  UNL1        0.2954
@<TRIPOS>BOND
     1    16    17    1
     2    17    18    1
     3    18    19   ar
     4    19    20   ar
     5    20    21   ar
     6    21    22    1
     7    21    23   ar
     8    23    24   ar
     9    24    25    1
    10    17     1    1
    11     1    26    1
    12    26    27    1
    13    27    28   ar
    14    28    29   ar
    15    29    30   ar
    16    30    31   ar
    17    31    33    1
    18    33    34    2
    19    33    35    1
    20    31    32   ar
    21     1     2   am
    22     2     3    2
    23     2     4    1
    24     4     5   ar
    25     5     6   ar
    26     6     7   ar
    27     7     8   ar
    28     8     9   ar
    29     9    10   ar
    30    10    11   ar
    31    11    12   ar
    32    12    13   ar
    33    13    14    1
    34    24    18   ar
    35    32    27   ar
    36    13     4   ar
    37    12     7   ar
    38    35    36    1
    39    14    15    1
@<TRIPOS>MOLECULE
*****
 36 39 0 0 0
SMALL
GASTEIGER

@<TRIPOS>ATOM
      1 N         -28.9627   51.1262   -6.7133 N.am    1  UNL1       -0.2685
      2 C         -29.3770   51.0113   -5.3416 C.2     1  UNL1        0.2677
      3 O         -30.0968   51.9114   -4.8330 O.2     1  UNL1       -0.2682
      4 C         -28.9069   49.8764   -4.5232 C.ar    1  UNL1        0.1400
      5 N         -27.5637   49.7068   -4.3986 N.ar    1  UNL1       -0.2388
      6 C         -27.0162   48.6714   -3.7182 C.ar    1  UNL1        0.0990
      7 C         -27.8375   47.7157   -3.1169 C.ar    1  UNL1        0.0196
      8 C         -27.2746   46.6320   -2.4258 C.ar    1  UNL1        0.0016
      9 C         -28.0985   45.6741   -1.8340 C.ar    1  UNL1        0.0000
     10 C         -29.4853   45.7906   -1.9268 C.ar    1  UNL1        0.0000
     11 C         -30.0588   46.8648   -2.6128 C.ar    1  UNL1        0.0006
     12 C         -29.2448   47.8452   -3.2197 C.ar    1  UNL1        0.0085
     13 C         -29.7895   48.9399   -3.9345 C.ar    1  UNL1        0.0437
     14 S         -31.5737   49.0902   -4.1762 S.3     1  UNL1       -0.1398
     15 H         -31.7210   49.8532   -3.0028 H       1  UNL1        0.1072
     16 C         -30.9751   49.8373   -7.3599 C.3     1  UNL1        0.0265
     17 C         -29.5484   50.2545   -7.7503 C.3     1  UNL1        0.1007
     18 C         -28.6234   49.0847   -8.0606 C.ar    1  UNL1        0.0234
     19 C         -28.3090   48.1018   -7.0967 C.ar    1  UNL1        0.0019
     20 C         -27.3799   47.0977   -7.3817 C.ar    1  UNL1        0.0295
     21 C         -26.7500   47.0577   -8.6260 C.ar    1  UNL1        0.1424
     22 F         -25.8410   46.0884   -8.8950 F       1  UNL1       -0.2041
     23 C         -27.0477   48.0231   -9.5891 C.ar    1  UNL1        0.0590
     24 C         -27.9729   49.0344   -9.3110 C.ar    1  UNL1        0.1399
     25 F         -28.2154   49.9790  -10.2550 F       1  UNL1       -0.2044
     26 C         -28.0295   52.1956   -7.0857 C.3     1  UNL1        0.1207
     27 C         -26.7044   51.6191   -7.5095 C.ar    1  UNL1       -0.0021
     28 C         -25.9743   50.8049   -6.6309 C.ar    1  UNL1       -0.0026
     29 C         -24.7729   50.2271   -7.0429 C.ar    1  UNL1       -0.0001
     30 C         -24.2878   50.4578   -8.3319 C.ar    1  UNL1        0.0064
     31 C         -24.9976   51.2801   -9.2250 C.ar    1  UNL1        0.0752
     32 C         -26.2141   51.8500   -8.8054 C.ar    1  UNL1        0.0038
     33 C         -24.4729   51.5124  -10.5929 C.2     1  UNL1        0.3380
     34 O         -23.7713   52.5321  -10.8281 O.2     1  UNL1       -0.2451
     35 O         -24.7462   50.6371  -11.6435 O.3     1  UNL1       -0.4771
     36 H         -25.3860   49.8588  -11.5530 H       1  UNL1        0.2954
@<TRIPOS>BOND
     1    16    17    1
     2    17    18    1
     3    18    19   ar
     4    19    20   ar
     5    20    21   ar
     6    21    22    1
     7    21    23   ar
     8    23    24   ar
     9    24    25    1
    10    17     1    1
    11     1    26    1
    12    26    27    1
    13    27    28   ar
    14    28    29   ar
    15    29    30   ar
    16    30    31   ar
    17    31    33    1
    18    33    34    2
    19    33    35    1
    20    31    32   ar
    21     1     2   am
    22     2     3    2
    23     2     4    1
    24     4     5   ar
    25     5     6   ar
    26     6     7   ar
    27     7     8   ar
    28     8     9   ar
    29     9    10   ar
    30    10    11   ar
    31    11    12   ar
    32    12    13   ar
    33    13    14    1
    34    24    18   ar
    35    32    27   ar
    36    13     4   ar
    37    12     7   ar
    38    35    36    1
    39    14    15    1
