@<TRIPOS>MOLECULE
*****
 37 41 0 0 0
SMALL
GASTEIGER

@<TRIPOS>ATOM
      1 C         -21.8771  -10.1414  -10.5256 C.2     1  UNL1        0.2496
      2 O         -21.9308  -10.7458   -9.4208 O.2     1  UNL1       -0.2699
      3 N         -21.3680   -8.7921  -10.5896 N.am    1  UNL1       -0.2614
      4 C         -20.8334   -8.2631  -11.8499 C.3     1  UNL1        0.1242
      5 C         -21.9211   -7.5532  -12.6097 C.ar    1  UNL1        0.0317
      6 C         -22.1289   -7.8953  -13.9581 C.ar    1  UNL1        0.0004
      7 C         -23.1857   -7.3359  -14.6927 C.ar    1  UNL1       -0.0000
      8 C         -24.0288   -6.4054  -14.0692 C.ar    1  UNL1        0.0031
      9 C         -23.8235   -6.0464  -12.7374 C.ar    1  UNL1        0.0366
     10 C         -22.7809   -6.6067  -11.9916 C.ar    1  UNL1        0.1362
     11 O         -22.6823   -6.2124  -10.6441 O.3     1  UNL1       -0.4731
     12 C         -21.5809   -6.4440   -9.7672 C.3     1  UNL1        0.2358
     13 C         -21.4516   -7.9298   -9.4025 C.3     1  UNL1        0.1724
     14 I         -19.7204   -8.2266   -8.1789 I       1  UNL1       -0.0490
     15 C         -23.4225   -7.7440  -16.0992 C.ar    1  UNL1        0.0015
     16 C         -23.0607   -9.0469  -16.5420 C.ar    1  UNL1        0.0016
     17 C         -23.2939   -9.4476  -17.8709 C.ar    1  UNL1        0.0206
     18 C         -23.8886   -8.5293  -18.7294 C.ar    1  UNL1        0.0985
     19 N         -24.2201   -8.7043  -20.0211 N.ar    1  UNL1       -0.2241
     20 C         -24.7773   -7.5101  -20.3541 C.ar    1  UNL1        0.1750
     21 N         -24.8021   -6.6213  -19.3321 N.ar    1  UNL1       -0.3349
     22 C         -24.2356   -7.2809  -18.3152 C.ar    1  UNL1        0.0757
     23 C         -24.0235   -6.8429  -17.0112 C.ar    1  UNL1        0.0185
     24 H         -25.1820   -5.6487  -19.3381 H       1  UNL1        0.1675
     25 C         -23.6448  -10.6491  -12.2606 C.ar    1  UNL1       -0.0165
     26 C         -23.9974  -11.2810  -13.4655 C.ar    1  UNL1        0.0142
     27 C         -23.0821  -12.0928  -14.1446 C.ar    1  UNL1        0.1054
     28 C         -21.8032  -12.2891  -13.6123 C.ar    1  UNL1        0.0185
     29 C         -21.4369  -11.6682  -12.4176 C.ar    1  UNL1        0.0055
     30 C         -22.3401  -10.8369  -11.7411 C.ar    1  UNL1        0.0497
     31 S         -23.5551  -12.8599  -15.6576 S.O2    1  UNL1        0.0104
     32 C         -23.9837  -14.5583  -15.3526 C.3     1  UNL1        0.1816
     33 O         -24.7459  -12.1589  -16.2495 O.2     1  UNL1       -0.1686
     34 O         -22.4128  -12.7906  -16.6312 O.2     1  UNL1       -0.1686
     35 C         -24.6948   -9.8260  -11.5428 C.3     1  UNL1        0.0265
     36 C         -26.5967   -8.1623  -11.8422 C.3     1  UNL1        0.0004
     37 C         -25.7001   -9.1981  -12.5179 C.3     1  UNL1        0.0047
@<TRIPOS>BOND
     1    36    37    1
     2    37    35    1
     3    35    25    1
     4    25    26   ar
     5    26    27   ar
     6    27    31    1
     7    31    32    1
     8    31    33    2
     9    31    34    2
    10    27    28   ar
    11    28    29   ar
    12    29    30   ar
    13    30     1    1
    14     1     2    2
    15     1     3   am
    16     3     4    1
    17     4     5    1
    18     5     6   ar
    19     6     7   ar
    20     7    15    1
    21    15    16   ar
    22    16    17   ar
    23    17    18   ar
    24    18    19   ar
    25    19    20   ar
    26    20    21   ar
    27    21    22   ar
    28    22    23   ar
    29     7     8   ar
    30     8     9   ar
    31     9    10   ar
    32    10    11    1
    33    11    12    1
    34    12    13    1
    35    13    14    1
    36    30    25   ar
    37    13     3    1
    38    10     5   ar
    39    23    15   ar
    40    22    18   ar
    41    21    24    1
@<TRIPOS>MOLECULE
*****
 37 41 0 0 0
SMALL
GASTEIGER

@<TRIPOS>ATOM
      1 C         -20.6280   -9.1057  -10.8779 C.2     1  UNL1        0.2496
      2 O         -19.6055   -9.8341  -10.7641 O.2     1  UNL1       -0.2699
      3 N         -21.2409   -8.5287   -9.7052 N.am    1  UNL1       -0.2614
      4 C         -22.0736   -7.3260   -9.8226 C.3     1  UNL1        0.1242
      5 C         -23.5161   -7.7169   -9.9982 C.ar    1  UNL1        0.0317
      6 C         -24.2383   -7.1510  -11.0643 C.ar    1  UNL1        0.0004
      7 C         -25.5578   -7.5449  -11.3351 C.ar    1  UNL1       -0.0000
      8 C         -26.1638   -8.5028  -10.5100 C.ar    1  UNL1        0.0031
      9 C         -25.4633   -9.0596   -9.4404 C.ar    1  UNL1        0.0366
     10 C         -24.1435   -8.6838   -9.1683 C.ar    1  UNL1        0.1362
     11 O         -23.5081   -9.3335   -8.0936 O.3     1  UNL1       -0.4731
     12 C         -22.2800   -8.9539   -7.4747 C.3     1  UNL1        0.2358
     13 C         -21.0813   -9.1929   -8.4040 C.3     1  UNL1        0.1724
     14 I         -19.2870   -8.5019   -7.4628 I       1  UNL1       -0.0490
     15 C         -26.2897   -6.9758  -12.4932 C.ar    1  UNL1        0.0015
     16 C         -27.4948   -7.5784  -12.9506 C.ar    1  UNL1        0.0016
     17 C         -28.2032   -7.0377  -14.0400 C.ar    1  UNL1        0.0206
     18 C         -27.6857   -5.8992  -14.6481 C.ar    1  UNL1        0.0985
     19 N         -28.2035   -5.2090  -15.6799 N.ar    1  UNL1       -0.2241
     20 C         -27.3116   -4.1964  -15.8435 C.ar    1  UNL1        0.1750
     21 N         -26.2816   -4.2358  -14.9645 N.ar    1  UNL1       -0.3349
     22 C         -26.5331   -5.3178  -14.2189 C.ar    1  UNL1        0.0757
     23 C         -25.8009   -5.8186  -13.1464 C.ar    1  UNL1        0.0185
     24 H         -25.4809   -3.5702  -14.8858 H       1  UNL1        0.1675
     25 C         -22.2114   -9.6580  -12.7700 C.ar    1  UNL1       -0.0165
     26 C         -22.7460   -9.3199  -14.0251 C.ar    1  UNL1        0.0142
     27 C         -22.2654   -8.2143  -14.7355 C.ar    1  UNL1        0.1054
     28 C         -21.2308   -7.4418  -14.1966 C.ar    1  UNL1        0.0185
     29 C         -20.6898   -7.7633  -12.9512 C.ar    1  UNL1        0.0055
     30 C         -21.1789   -8.8567  -12.2232 C.ar    1  UNL1        0.0497
     31 S         -22.9666   -7.8140  -16.3005 S.O2    1  UNL1        0.0104
     32 C         -23.3339   -9.3114  -17.1862 C.3     1  UNL1        0.1816
     33 O         -24.2389   -7.0342  -16.1194 O.2     1  UNL1       -0.1686
     34 O         -21.9919   -6.9841  -17.0871 O.2     1  UNL1       -0.1686
     35 C         -22.7344  -10.8971  -12.0726 C.3     1  UNL1        0.0265
     36 C         -24.4833  -12.3637  -13.1974 C.3     1  UNL1        0.0004
     37 C         -24.2282  -11.1232  -12.3435 C.3     1  UNL1        0.0047
@<TRIPOS>BOND
     1    36    37    1
     2    37    35    1
     3    35    25    1
     4    25    26   ar
     5    26    27   ar
     6    27    31    1
     7    31    32    1
     8    31    33    2
     9    31    34    2
    10    27    28   ar
    11    28    29   ar
    12    29    30   ar
    13    30     1    1
    14     1     2    2
    15     1     3   am
    16     3     4    1
    17     4     5    1
    18     5     6   ar
    19     6     7   ar
    20     7    15    1
    21    15    16   ar
    22    16    17   ar
    23    17    18   ar
    24    18    19   ar
    25    19    20   ar
    26    20    21   ar
    27    21    22   ar
    28    22    23   ar
    29     7     8   ar
    30     8     9   ar
    31     9    10   ar
    32    10    11    1
    33    11    12    1
    34    12    13    1
    35    13    14    1
    36    30    25   ar
    37    13     3    1
    38    10     5   ar
    39    23    15   ar
    40    22    18   ar
    41    21    24    1
@<TRIPOS>MOLECULE
*****
 37 41 0 0 0
SMALL
GASTEIGER

@<TRIPOS>ATOM
      1 C         -24.5730  -11.3400  -15.4995 C.2     1  UNL1        0.2496
      2 O         -25.5166  -11.7365  -16.2352 O.2     1  UNL1       -0.2699
      3 N         -23.2028  -11.5361  -15.9094 N.am    1  UNL1       -0.2614
      4 C         -22.1398  -10.6820  -15.3670 C.3     1  UNL1        0.1242
      5 C         -21.5370  -11.3262  -14.1480 C.ar    1  UNL1        0.0317
      6 C         -21.4270  -10.5624  -12.9720 C.ar    1  UNL1        0.0004
      7 C         -20.9592  -11.1336  -11.7786 C.ar    1  UNL1       -0.0000
      8 C         -20.5773  -12.4825  -11.7749 C.ar    1  UNL1        0.0031
      9 C         -20.6670  -13.2460  -12.9384 C.ar    1  UNL1        0.0366
     10 C         -21.1435  -12.6908  -14.1308 C.ar    1  UNL1        0.1362
     11 O         -21.2365  -13.5533  -15.2390 O.3     1  UNL1       -0.4731
     12 C         -21.4485  -13.1743  -16.5981 C.3     1  UNL1        0.2358
     13 C         -22.8708  -12.6404  -16.8205 C.3     1  UNL1        0.1724
     14 I         -23.0896  -11.9867  -18.8472 I       1  UNL1       -0.0490
     15 C         -20.8959  -10.3286  -10.5340 C.ar    1  UNL1        0.0015
     16 C         -22.0770   -9.7540   -9.9868 C.ar    1  UNL1        0.0016
     17 C         -22.0287   -9.0001   -8.7992 C.ar    1  UNL1        0.0206
     18 C         -20.7921   -8.8399   -8.1836 C.ar    1  UNL1        0.0985
     19 N         -20.5196   -8.1840   -7.0414 N.ar    1  UNL1       -0.2241
     20 C         -19.1791   -8.3620   -6.9037 C.ar    1  UNL1        0.1750
     21 N         -18.6253   -9.0922   -7.9013 N.ar    1  UNL1       -0.3349
     22 C         -19.6576   -9.3838   -8.7009 C.ar    1  UNL1        0.0757
     23 C         -19.6592  -10.1358   -9.8721 C.ar    1  UNL1        0.0185
     24 H         -17.6244   -9.3674   -8.0141 H       1  UNL1        0.1675
     25 C         -24.8329  -11.3615  -12.9847 C.ar    1  UNL1       -0.0165
     26 C         -25.0774  -10.6505  -11.7972 C.ar    1  UNL1        0.0142
     27 C         -25.3881   -9.2865  -11.8286 C.ar    1  UNL1        0.1054
     28 C         -25.4692   -8.6232  -13.0579 C.ar    1  UNL1        0.0185
     29 C         -25.2283   -9.3143  -14.2459 C.ar    1  UNL1        0.0055
     30 C         -24.8962  -10.6759  -14.2229 C.ar    1  UNL1        0.0497
     31 S         -25.6776   -8.4253  -10.3201 S.O2    1  UNL1        0.0104
     32 C         -27.2372   -7.5763  -10.4119 C.3     1  UNL1        0.1816
     33 O         -25.7182   -9.3890   -9.1671 O.2     1  UNL1       -0.1686
     34 O         -24.5719   -7.4342  -10.0906 O.2     1  UNL1       -0.1686
     35 C         -24.5545  -12.8478  -12.8919 C.3     1  UNL1        0.0265
     36 C         -25.3198  -14.5973  -14.5737 C.3     1  UNL1        0.0004
     37 C         -25.7274  -13.6873  -13.4165 C.3     1  UNL1        0.0047
@<TRIPOS>BOND
     1    36    37    1
     2    37    35    1
     3    35    25    1
     4    25    26   ar
     5    26    27   ar
     6    27    31    1
     7    31    32    1
     8    31    33    2
     9    31    34    2
    10    27    28   ar
    11    28    29   ar
    12    29    30   ar
    13    30     1    1
    14     1     2    2
    15     1     3   am
    16     3     4    1
    17     4     5    1
    18     5     6   ar
    19     6     7   ar
    20     7    15    1
    21    15    16   ar
    22    16    17   ar
    23    17    18   ar
    24    18    19   ar
    25    19    20   ar
    26    20    21   ar
    27    21    22   ar
    28    22    23   ar
    29     7     8   ar
    30     8     9   ar
    31     9    10   ar
    32    10    11    1
    33    11    12    1
    34    12    13    1
    35    13    14    1
    36    30    25   ar
    37    13     3    1
    38    10     5   ar
    39    23    15   ar
    40    22    18   ar
    41    21    24    1
@<TRIPOS>MOLECULE
*****
 37 41 0 0 0
SMALL
GASTEIGER

@<TRIPOS>ATOM
      1 C         -24.8150   -8.2215  -13.8805 C.2     1  UNL1        0.2496
      2 O         -25.5411   -7.8598  -14.8453 O.2     1  UNL1       -0.2699
      3 N         -24.7724   -7.4348  -12.6708 N.am    1  UNL1       -0.2614
      4 C         -24.3680   -8.0518  -11.4021 C.3     1  UNL1        0.1242
      5 C         -22.8881   -7.8746  -11.1952 C.ar    1  UNL1        0.0317
      6 C         -22.1151   -9.0076  -10.8834 C.ar    1  UNL1        0.0004
      7 C         -20.7189   -8.9228  -10.7695 C.ar    1  UNL1       -0.0000
      8 C         -20.0968   -7.6794  -10.9499 C.ar    1  UNL1        0.0031
      9 C         -20.8539   -6.5459  -11.2440 C.ar    1  UNL1        0.0366
     10 C         -22.2450   -6.6206  -11.3721 C.ar    1  UNL1        0.1362
     11 O         -22.9151   -5.4307  -11.7123 O.3     1  UNL1       -0.4731
     12 C         -24.3217   -5.1988  -11.6547 C.3     1  UNL1        0.2358
     13 C         -25.0706   -5.9971  -12.7315 C.3     1  UNL1        0.1724
     14 I         -27.1793   -5.6939  -12.5216 I       1  UNL1       -0.0490
     15 C         -19.9123  -10.1360  -10.4895 C.ar    1  UNL1        0.0015
     16 C         -20.2398  -11.3766  -11.1044 C.ar    1  UNL1        0.0016
     17 C         -19.4722  -12.5298  -10.8553 C.ar    1  UNL1        0.0206
     18 C         -18.3880  -12.4121   -9.9925 C.ar    1  UNL1        0.0985
     19 N         -17.5141  -13.3693   -9.6328 N.ar    1  UNL1       -0.2241
     20 C         -16.6656  -12.7066   -8.8029 C.ar    1  UNL1        0.1750
     21 N         -16.9784  -11.3985   -8.6419 N.ar    1  UNL1       -0.3349
     22 C         -18.0690  -11.2306   -9.3985 C.ar    1  UNL1        0.0757
     23 C         -18.8000  -10.0663   -9.6162 C.ar    1  UNL1        0.0185
     24 H         -16.4782  -10.6866   -8.0646 H       1  UNL1        0.1675
     25 C         -22.6506   -9.4282  -14.3819 C.ar    1  UNL1       -0.0165
     26 C         -21.9277  -10.6331  -14.4139 C.ar    1  UNL1        0.0142
     27 C         -22.5440  -11.8483  -14.0952 C.ar    1  UNL1        0.1054
     28 C         -23.9004  -11.8674  -13.7523 C.ar    1  UNL1        0.0185
     29 C         -24.6320  -10.6798  -13.7147 C.ar    1  UNL1        0.0055
     30 C         -24.0180   -9.4555  -14.0124 C.ar    1  UNL1        0.0497
     31 S         -21.6044  -13.3371  -14.1351 S.O2    1  UNL1        0.0104
     32 C         -22.5223  -14.5947  -14.9938 C.3     1  UNL1        0.1816
     33 O         -20.3017  -13.1143  -14.8515 O.2     1  UNL1       -0.1686
     34 O         -21.3194  -13.7858  -12.7298 O.2     1  UNL1       -0.1686
     35 C         -21.9439   -8.1514  -14.7891 C.3     1  UNL1        0.0265
     36 C         -22.8293   -7.4441  -17.0674 C.3     1  UNL1        0.0004
     37 C         -21.6804   -8.0957  -16.3001 C.3     1  UNL1        0.0047
@<TRIPOS>BOND
     1    36    37    1
     2    37    35    1
     3    35    25    1
     4    25    26   ar
     5    26    27   ar
     6    27    31    1
     7    31    32    1
     8    31    33    2
     9    31    34    2
    10    27    28   ar
    11    28    29   ar
    12    29    30   ar
    13    30     1    1
    14     1     2    2
    15     1     3   am
    16     3     4    1
    17     4     5    1
    18     5     6   ar
    19     6     7   ar
    20     7    15    1
    21    15    16   ar
    22    16    17   ar
    23    17    18   ar
    24    18    19   ar
    25    19    20   ar
    26    20    21   ar
    27    21    22   ar
    28    22    23   ar
    29     7     8   ar
    30     8     9   ar
    31     9    10   ar
    32    10    11    1
    33    11    12    1
    34    12    13    1
    35    13    14    1
    36    30    25   ar
    37    13     3    1
    38    10     5   ar
    39    23    15   ar
    40    22    18   ar
    41    21    24    1
@<TRIPOS>MOLECULE
*****
 37 41 0 0 0
SMALL
GASTEIGER

@<TRIPOS>ATOM
      1 C         -23.3215  -10.7439  -13.2565 C.2     1  UNL1        0.2496
      2 O         -22.9800  -11.3494  -12.2051 O.2     1  UNL1       -0.2699
      3 N         -22.8317  -11.1876  -14.5399 N.am    1  UNL1       -0.2614
      4 C         -23.5671  -10.8566  -15.7661 C.3     1  UNL1        0.1242
      5 C         -23.0315   -9.5800  -16.3558 C.ar    1  UNL1        0.0317
      6 C         -23.9423   -8.5589  -16.6815 C.ar    1  UNL1        0.0004
      7 C         -23.4966   -7.3126  -17.1480 C.ar    1  UNL1       -0.0000
      8 C         -22.1202   -7.0999  -17.3090 C.ar    1  UNL1        0.0031
      9 C         -21.2083   -8.1099  -17.0043 C.ar    1  UNL1        0.0366
     10 C         -21.6400   -9.3520  -16.5269 C.ar    1  UNL1        0.1362
     11 O         -20.6410  -10.2906  -16.2077 O.3     1  UNL1       -0.4731
     12 C         -20.8299  -11.6808  -15.9487 C.3     1  UNL1        0.2358
     13 C         -21.5565  -11.9139  -14.6164 C.3     1  UNL1        0.1724
     14 I         -21.9074  -14.0075  -14.3402 I       1  UNL1       -0.0490
     15 C         -24.4663   -6.2285  -17.4400 C.ar    1  UNL1        0.0015
     16 C         -24.8161   -5.9174  -18.7837 C.ar    1  UNL1        0.0016
     17 C         -25.7453   -4.8996  -19.0697 C.ar    1  UNL1        0.0206
     18 C         -26.3063   -4.2147  -17.9973 C.ar    1  UNL1        0.0985
     19 N         -27.2220   -3.2303  -18.0372 N.ar    1  UNL1       -0.2241
     20 C         -27.4204   -2.9494  -16.7221 C.ar    1  UNL1        0.1750
     21 N         -26.6742   -3.7124  -15.8877 N.ar    1  UNL1       -0.3349
     22 C         -25.9760   -4.5039  -16.7098 C.ar    1  UNL1        0.0757
     23 C         -25.0626   -5.5015  -16.3814 C.ar    1  UNL1        0.0185
     24 H         -26.6552   -3.6896  -14.8439 H       1  UNL1        0.1675
     25 C         -23.7356   -8.2551  -13.0919 C.ar    1  UNL1       -0.0165
     26 C         -24.6522   -7.1899  -13.0681 C.ar    1  UNL1        0.0142
     27 C         -26.0308   -7.4289  -13.0908 C.ar    1  UNL1        0.1054
     28 C         -26.5046   -8.7449  -13.1250 C.ar    1  UNL1        0.0185
     29 C         -25.6079   -9.8137  -13.1501 C.ar    1  UNL1        0.0055
     30 C         -24.2253   -9.5834  -13.1484 C.ar    1  UNL1        0.0497
     31 S         -27.1498   -6.0693  -13.0710 S.O2    1  UNL1        0.0104
     32 C         -28.4595   -6.3622  -14.2373 C.3     1  UNL1        0.1816
     33 O         -27.7486   -5.9047  -11.7020 O.2     1  UNL1       -0.1686
     34 O         -26.4142   -4.8115  -13.4377 O.2     1  UNL1       -0.1686
     35 C         -22.2567   -7.9368  -13.0110 C.3     1  UNL1        0.0265
     36 C         -21.4449   -5.9481  -11.6469 C.3     1  UNL1        0.0004
     37 C         -21.8540   -7.4196  -11.6232 C.3     1  UNL1        0.0047
@<TRIPOS>BOND
     1    36    37    1
     2    37    35    1
     3    35    25    1
     4    25    26   ar
     5    26    27   ar
     6    27    31    1
     7    31    32    1
     8    31    33    2
     9    31    34    2
    10    27    28   ar
    11    28    29   ar
    12    29    30   ar
    13    30     1    1
    14     1     2    2
    15     1     3   am
    16     3     4    1
    17     4     5    1
    18     5     6   ar
    19     6     7   ar
    20     7    15    1
    21    15    16   ar
    22    16    17   ar
    23    17    18   ar
    24    18    19   ar
    25    19    20   ar
    26    20    21   ar
    27    21    22   ar
    28    22    23   ar
    29     7     8   ar
    30     8     9   ar
    31     9    10   ar
    32    10    11    1
    33    11    12    1
    34    12    13    1
    35    13    14    1
    36    30    25   ar
    37    13     3    1
    38    10     5   ar
    39    23    15   ar
    40    22    18   ar
    41    21    24    1
@<TRIPOS>MOLECULE
*****
 37 41 0 0 0
SMALL
GASTEIGER

@<TRIPOS>ATOM
      1 C         -24.4165   -6.2758  -11.8566 C.2     1  UNL1        0.2496
      2 O         -25.1435   -5.2994  -11.5297 O.2     1  UNL1       -0.2699
      3 N         -24.6773   -6.9960  -13.0801 N.am    1  UNL1       -0.2614
      4 C         -23.6084   -7.7667  -13.7261 C.3     1  UNL1        0.1242
      5 C         -23.6451   -9.1932  -13.2486 C.ar    1  UNL1        0.0317
      6 C         -22.4550   -9.7699  -12.7697 C.ar    1  UNL1        0.0004
      7 C         -22.4448  -11.0637  -12.2260 C.ar    1  UNL1       -0.0000
      8 C         -23.6416  -11.7927  -12.1844 C.ar    1  UNL1        0.0031
      9 C         -24.8249  -11.2376  -12.6705 C.ar    1  UNL1        0.0366
     10 C         -24.8497   -9.9443  -13.2034 C.ar    1  UNL1        0.1362
     11 O         -26.1000   -9.4578  -13.6286 O.3     1  UNL1       -0.4731
     12 C         -26.3371   -8.2944  -14.4198 C.3     1  UNL1        0.2358
     13 C         -26.0372   -7.0080  -13.6372 C.3     1  UNL1        0.1724
     14 I         -26.3043   -5.3077  -14.9101 I       1  UNL1       -0.0490
     15 C         -21.1917  -11.6396  -11.6791 C.ar    1  UNL1        0.0015
     16 C         -20.7200  -12.9021  -12.1352 C.ar    1  UNL1        0.0016
     17 C         -19.5252  -13.4502  -11.6320 C.ar    1  UNL1        0.0206
     18 C         -18.8266  -12.7160  -10.6797 C.ar    1  UNL1        0.0985
     19 N         -17.6629  -13.0347  -10.0852 N.ar    1  UNL1       -0.2241
     20 C         -17.4372  -11.9683   -9.2731 C.ar    1  UNL1        0.1750
     21 N         -18.4018  -11.0199   -9.3452 N.ar    1  UNL1       -0.3349
     22 C         -19.2714  -11.5094  -10.2364 C.ar    1  UNL1        0.0757
     23 C         -20.4466  -10.9303  -10.7062 C.ar    1  UNL1        0.0185
     24 H         -18.4495  -10.1142   -8.8278 H       1  UNL1        0.1675
     25 C         -23.3987   -7.7616  -10.0821 C.ar    1  UNL1       -0.0165
     26 C         -22.2742   -8.1252   -9.3214 C.ar    1  UNL1        0.0142
     27 C         -21.0750   -7.4118   -9.4273 C.ar    1  UNL1        0.1054
     28 C         -20.9966   -6.3144  -10.2917 C.ar    1  UNL1        0.0185
     29 C         -22.1036   -5.9410  -11.0547 C.ar    1  UNL1        0.0055
     30 C         -23.3025   -6.6623  -10.9705 C.ar    1  UNL1        0.0497
     31 S         -19.6830   -7.9026   -8.4668 S.O2    1  UNL1        0.0104
     32 C         -20.2126   -9.0029   -7.1744 C.3     1  UNL1        0.1816
     33 O         -18.6785   -8.6157   -9.3283 O.2     1  UNL1       -0.1686
     34 O         -19.0367   -6.6864   -7.8662 O.2     1  UNL1       -0.1686
     35 C         -24.6849   -8.5375   -9.8852 C.3     1  UNL1        0.0265
     36 C         -25.7626  -10.5751   -8.8075 C.3     1  UNL1        0.0004
     37 C         -24.4563   -9.8461   -9.1164 C.3     1  UNL1        0.0047
@<TRIPOS>BOND
     1    36    37    1
     2    37    35    1
     3    35    25    1
     4    25    26   ar
     5    26    27   ar
     6    27    31    1
     7    31    32    1
     8    31    33    2
     9    31    34    2
    10    27    28   ar
    11    28    29   ar
    12    29    30   ar
    13    30     1    1
    14     1     2    2
    15     1     3   am
    16     3     4    1
    17     4     5    1
    18     5     6   ar
    19     6     7   ar
    20     7    15    1
    21    15    16   ar
    22    16    17   ar
    23    17    18   ar
    24    18    19   ar
    25    19    20   ar
    26    20    21   ar
    27    21    22   ar
    28    22    23   ar
    29     7     8   ar
    30     8     9   ar
    31     9    10   ar
    32    10    11    1
    33    11    12    1
    34    12    13    1
    35    13    14    1
    36    30    25   ar
    37    13     3    1
    38    10     5   ar
    39    23    15   ar
    40    22    18   ar
    41    21    24    1
@<TRIPOS>MOLECULE
*****
 37 41 0 0 0
SMALL
GASTEIGER

@<TRIPOS>ATOM
      1 C         -25.1135   -7.9476  -10.6926 C.2     1  UNL1        0.2496
      2 O         -25.3149   -7.6099   -9.4950 O.2     1  UNL1       -0.2699
      3 N         -24.3296   -9.1222  -10.9923 N.am    1  UNL1       -0.2614
      4 C         -24.4903   -9.8091  -12.2792 C.3     1  UNL1        0.1242
      5 C         -23.4936   -9.2759  -13.2724 C.ar    1  UNL1        0.0317
      6 C         -23.9610   -8.8571  -14.5312 C.ar    1  UNL1        0.0004
      7 C         -23.0959   -8.2661  -15.4650 C.ar    1  UNL1       -0.0000
      8 C         -21.7414   -8.1156  -15.1361 C.ar    1  UNL1        0.0031
      9 C         -21.2630   -8.5413  -13.8973 C.ar    1  UNL1        0.0366
     10 C         -22.1183   -9.1204  -12.9538 C.ar    1  UNL1        0.1362
     11 O         -21.5489   -9.4782  -11.7174 O.3     1  UNL1       -0.4731
     12 C         -22.1435  -10.2955  -10.7104 C.3     1  UNL1        0.2358
     13 C         -23.3213   -9.5849  -10.0284 C.3     1  UNL1        0.1724
     14 I         -24.2376  -10.9010   -8.6104 I       1  UNL1       -0.0490
     15 C         -23.6133   -7.7838  -16.7690 C.ar    1  UNL1        0.0015
     16 C         -23.9177   -6.4069  -16.9586 C.ar    1  UNL1        0.0016
     17 C         -24.3962   -5.9378  -18.1963 C.ar    1  UNL1        0.0206
     18 C         -24.5582   -6.8639  -19.2210 C.ar    1  UNL1        0.0985
     19 N         -24.9771   -6.6357  -20.4787 N.ar    1  UNL1       -0.2241
     20 C         -24.9266   -7.8715  -21.0424 C.ar    1  UNL1        0.1750
     21 N         -24.4981   -8.8361  -20.1932 N.ar    1  UNL1       -0.3349
     22 C         -24.2718   -8.1824  -19.0480 C.ar    1  UNL1        0.0757
     23 C         -23.7968   -8.6894  -17.8419 C.ar    1  UNL1        0.0185
     24 H         -24.3693   -9.8531  -20.3916 H       1  UNL1        0.1675
     25 C         -25.0998   -5.9057  -12.1834 C.ar    1  UNL1       -0.0165
     26 C         -25.6567   -5.2088  -13.2695 C.ar    1  UNL1        0.0142
     27 C         -26.7852   -5.7006  -13.9350 C.ar    1  UNL1        0.1054
     28 C         -27.3754   -6.8947  -13.5069 C.ar    1  UNL1        0.0185
     29 C         -26.8343   -7.5993  -12.4309 C.ar    1  UNL1        0.0055
     30 C         -25.6920   -7.1250  -11.7714 C.ar    1  UNL1        0.0497
     31 S         -27.4493   -4.8063  -15.2990 S.O2    1  UNL1        0.0104
     32 C         -29.2250   -4.8208  -15.2094 C.3     1  UNL1        0.1816
     33 O         -26.9747   -3.3803  -15.2703 O.2     1  UNL1       -0.1686
     34 O         -26.9997   -5.4459  -16.5821 O.2     1  UNL1       -0.1686
     35 C         -23.9109   -5.2971  -11.4684 C.3     1  UNL1        0.0265
     36 C         -21.3731   -5.2118  -11.3041 C.3     1  UNL1        0.0004
     37 C         -22.5773   -5.8102  -12.0287 C.3     1  UNL1        0.0047
@<TRIPOS>BOND
     1    36    37    1
     2    37    35    1
     3    35    25    1
     4    25    26   ar
     5    26    27   ar
     6    27    31    1
     7    31    32    1
     8    31    33    2
     9    31    34    2
    10    27    28   ar
    11    28    29   ar
    12    29    30   ar
    13    30     1    1
    14     1     2    2
    15     1     3   am
    16     3     4    1
    17     4     5    1
    18     5     6   ar
    19     6     7   ar
    20     7    15    1
    21    15    16   ar
    22    16    17   ar
    23    17    18   ar
    24    18    19   ar
    25    19    20   ar
    26    20    21   ar
    27    21    22   ar
    28    22    23   ar
    29     7     8   ar
    30     8     9   ar
    31     9    10   ar
    32    10    11    1
    33    11    12    1
    34    12    13    1
    35    13    14    1
    36    30    25   ar
    37    13     3    1
    38    10     5   ar
    39    23    15   ar
    40    22    18   ar
    41    21    24    1
@<TRIPOS>MOLECULE
*****
 37 41 0 0 0
SMALL
GASTEIGER

@<TRIPOS>ATOM
      1 C         -23.3298   -9.6812  -11.5445 C.2     1  UNL1        0.2496
      2 O         -22.7227  -10.7251  -11.1832 O.2     1  UNL1       -0.2699
      3 N         -24.1623   -8.9657  -10.6070 N.am    1  UNL1       -0.2614
      4 C         -24.4597   -7.5442  -10.8182 C.3     1  UNL1        0.1242
      5 C         -25.7448   -7.3986  -11.5875 C.ar    1  UNL1        0.0317
      6 C         -25.7515   -6.5799  -12.7313 C.ar    1  UNL1        0.0004
      7 C         -26.8927   -6.4771  -13.5416 C.ar    1  UNL1       -0.0000
      8 C         -28.0463   -7.1889  -13.1840 C.ar    1  UNL1        0.0031
      9 C         -28.0569   -7.9916  -12.0437 C.ar    1  UNL1        0.0366
     10 C         -26.9215   -8.1115  -11.2351 C.ar    1  UNL1        0.1362
     11 O         -27.0186   -8.9785  -10.1307 O.3     1  UNL1       -0.4731
     12 C         -26.1036   -9.0744   -9.0401 C.3     1  UNL1        0.2358
     13 C         -24.7654   -9.6870   -9.4775 C.3     1  UNL1        0.1724
     14 I         -23.4021   -9.7008   -7.8270 I       1  UNL1       -0.0490
     15 C         -26.8688   -5.6490  -14.7723 C.ar    1  UNL1        0.0015
     16 C         -25.7240   -5.6471  -15.6173 C.ar    1  UNL1        0.0016
     17 C         -25.6974   -4.8752  -16.7939 C.ar    1  UNL1        0.0206
     18 C         -26.8248   -4.1203  -17.0987 C.ar    1  UNL1        0.0985
     19 N         -27.0243   -3.3346  -18.1721 N.ar    1  UNL1       -0.2241
     20 C         -28.2838   -2.8644  -17.9719 C.ar    1  UNL1        0.1750
     21 N         -28.8583   -3.3245  -16.8347 N.ar    1  UNL1       -0.3349
     22 C         -27.9226   -4.1143  -16.2955 C.ar    1  UNL1        0.0757
     23 C         -27.9921   -4.8620  -15.1236 C.ar    1  UNL1        0.0185
     24 H         -29.8136   -3.1142  -16.4692 H       1  UNL1        0.1675
     25 C         -24.0937   -9.5561  -13.9514 C.ar    1  UNL1       -0.0165
     26 C         -23.9288   -9.0105  -15.2362 C.ar    1  UNL1        0.0142
     27 C         -22.8669   -8.1435  -15.5167 C.ar    1  UNL1        0.1054
     28 C         -21.9493   -7.8245  -14.5098 C.ar    1  UNL1        0.0185
     29 C         -22.0994   -8.3569  -13.2287 C.ar    1  UNL1        0.0055
     30 C         -23.1716   -9.2098  -12.9331 C.ar    1  UNL1        0.0497
     31 S         -22.6979   -7.4701  -17.1351 S.O2    1  UNL1        0.0104
     32 C         -23.8081   -8.3061  -18.2441 C.3     1  UNL1        0.1816
     33 O         -23.0322   -6.0045  -17.1292 O.2     1  UNL1       -0.1686
     34 O         -21.2816   -7.6470  -17.6043 O.2     1  UNL1       -0.1686
     35 C         -25.2304  -10.5309  -13.7215 C.3     1  UNL1        0.0265
     36 C         -25.5921  -12.9697  -14.3508 C.3     1  UNL1        0.0004
     37 C         -25.3548  -11.5501  -14.8623 C.3     1  UNL1        0.0047
@<TRIPOS>BOND
     1    36    37    1
     2    37    35    1
     3    35    25    1
     4    25    26   ar
     5    26    27   ar
     6    27    31    1
     7    31    32    1
     8    31    33    2
     9    31    34    2
    10    27    28   ar
    11    28    29   ar
    12    29    30   ar
    13    30     1    1
    14     1     2    2
    15     1     3   am
    16     3     4    1
    17     4     5    1
    18     5     6   ar
    19     6     7   ar
    20     7    15    1
    21    15    16   ar
    22    16    17   ar
    23    17    18   ar
    24    18    19   ar
    25    19    20   ar
    26    20    21   ar
    27    21    22   ar
    28    22    23   ar
    29     7     8   ar
    30     8     9   ar
    31     9    10   ar
    32    10    11    1
    33    11    12    1
    34    12    13    1
    35    13    14    1
    36    30    25   ar
    37    13     3    1
    38    10     5   ar
    39    23    15   ar
    40    22    18   ar
    41    21    24    1
@<TRIPOS>MOLECULE
*****
 37 41 0 0 0
SMALL
GASTEIGER

@<TRIPOS>ATOM
      1 C         -23.7245  -11.2538  -16.1581 C.2     1  UNL1        0.2496
      2 O         -24.5208  -11.7529  -16.9981 O.2     1  UNL1       -0.2699
      3 N         -22.3781  -11.7620  -16.0451 N.am    1  UNL1       -0.2614
      4 C         -21.3166  -10.9221  -15.4780 C.3     1  UNL1        0.1242
      5 C         -21.1994  -11.1736  -13.9991 C.ar    1  UNL1        0.0317
      6 C         -21.2128  -10.0688  -13.1287 C.ar    1  UNL1        0.0004
      7 C         -21.1997  -10.2436  -11.7363 C.ar    1  UNL1       -0.0000
      8 C         -21.1502  -11.5441  -11.2151 C.ar    1  UNL1        0.0031
      9 C         -21.1208  -12.6470  -12.0680 C.ar    1  UNL1        0.0366
     10 C         -21.1459  -12.4856  -13.4574 C.ar    1  UNL1        0.1362
     11 O         -21.1560  -13.6605  -14.2321 O.3     1  UNL1       -0.4731
     12 C         -20.9313  -13.7561  -15.6378 C.3     1  UNL1        0.2358
     13 C         -22.0925  -13.1489  -16.4382 C.3     1  UNL1        0.1724
     14 I         -21.6455  -13.2223  -18.5304 I       1  UNL1       -0.0490
     15 C         -21.2646   -9.0703  -10.8306 C.ar    1  UNL1        0.0015
     16 C         -21.0308   -9.2234   -9.4354 C.ar    1  UNL1        0.0016
     17 C         -21.0770   -8.1139   -8.5705 C.ar    1  UNL1        0.0206
     18 C         -21.3564   -6.8704   -9.1267 C.ar    1  UNL1        0.0985
     19 N         -21.4278   -5.6839   -8.4972 N.ar    1  UNL1       -0.2241
     20 C         -21.7055   -4.8211   -9.5102 C.ar    1  UNL1        0.1750
     21 N         -21.8049   -5.4219  -10.7202 N.ar    1  UNL1       -0.3349
     22 C         -21.5834   -6.7152  -10.4590 C.ar    1  UNL1        0.0757
     23 C         -21.5477   -7.7839  -11.3500 C.ar    1  UNL1        0.0185
     24 H         -22.0027   -4.9750  -11.6429 H       1  UNL1        0.1675
     25 C         -25.1087  -10.3589  -14.2409 C.ar    1  UNL1       -0.0165
     26 C         -25.4554   -9.2770  -13.4134 C.ar    1  UNL1        0.0142
     27 C         -24.9157   -8.0046  -13.6321 C.ar    1  UNL1        0.1054
     28 C         -24.0293   -7.8022  -14.6955 C.ar    1  UNL1        0.0185
     29 C         -23.6740   -8.8659  -15.5257 C.ar    1  UNL1        0.0055
     30 C         -24.1935  -10.1483  -15.3017 C.ar    1  UNL1        0.0497
     31 S         -25.3643   -6.6748  -12.5683 S.O2    1  UNL1        0.0104
     32 C         -26.5382   -5.6251  -13.3939 C.3     1  UNL1        0.1816
     33 O         -25.9896   -7.2021  -11.3071 O.2     1  UNL1       -0.1686
     34 O         -24.1372   -5.8840  -12.2125 O.2     1  UNL1       -0.1686
     35 C         -25.7662  -11.7003  -13.9888 C.3     1  UNL1        0.0265
     36 C         -24.9706  -14.1145  -13.8730 C.3     1  UNL1        0.0004
     37 C         -24.8052  -12.6974  -13.3271 C.3     1  UNL1        0.0047
@<TRIPOS>BOND
     1    36    37    1
     2    37    35    1
     3    35    25    1
     4    25    26   ar
     5    26    27   ar
     6    27    31    1
     7    31    32    1
     8    31    33    2
     9    31    34    2
    10    27    28   ar
    11    28    29   ar
    12    29    30   ar
    13    30     1    1
    14     1     2    2
    15     1     3   am
    16     3     4    1
    17     4     5    1
    18     5     6   ar
    19     6     7   ar
    20     7    15    1
    21    15    16   ar
    22    16    17   ar
    23    17    18   ar
    24    18    19   ar
    25    19    20   ar
    26    20    21   ar
    27    21    22   ar
    28    22    23   ar
    29     7     8   ar
    30     8     9   ar
    31     9    10   ar
    32    10    11    1
    33    11    12    1
    34    12    13    1
    35    13    14    1
    36    30    25   ar
    37    13     3    1
    38    10     5   ar
    39    23    15   ar
    40    22    18   ar
    41    21    24    1
