@<TRIPOS>MOLECULE
*****
 49 54 0 0 0
SMALL
GASTEIGER

@<TRIPOS>ATOM
      1 C          -8.8189  -11.2060   31.1757 C.2     1  UNL1        0.2483
      2 O          -8.0767  -11.0547   32.1847 O.2     1  UNL1       -0.2701
      3 N         -10.0969  -10.5513   31.1228 N.am    1  UNL1       -0.2945
      4 H         -10.7939  -10.9012   30.4271 H       1  UNL1        0.1501
      5 C          -7.4780  -13.7710   27.9848 C.ar    1  UNL1        0.0502
      6 C          -6.6212  -12.8102   28.5495 C.ar    1  UNL1        0.0148
      7 C          -7.0662  -11.9784   29.5797 C.ar    1  UNL1        0.0080
      8 C          -8.3745  -12.0925   30.0764 C.ar    1  UNL1        0.0808
      9 C          -9.2421  -13.0404   29.5010 C.ar    1  UNL1        0.1457
     10 F         -10.5354  -13.1384   29.9008 F       1  UNL1       -0.2040
     11 C          -8.7944  -13.8703   28.4683 C.ar    1  UNL1        0.0443
     12 N          -6.1362  -16.1661   24.6802 N.pl3   1  UNL1       -0.3040
     13 C          -7.5525  -15.7849   24.7973 C.3     1  UNL1        0.1122
     14 C          -7.9549  -15.5532   26.2570 C.3     1  UNL1        0.1122
     15 N          -7.0198  -14.6303   26.9166 N.pl3   1  UNL1       -0.3040
     16 C          -5.5949  -14.6429   26.5500 C.3     1  UNL1        0.1122
     17 C          -5.2168  -15.9251   25.8019 C.3     1  UNL1        0.1122
     18 C          -4.7689  -18.1961   21.1735 C.ar    1  UNL1        0.0050
     19 C          -3.8551  -17.7245   22.1340 C.ar    1  UNL1       -0.0008
     20 C          -4.3023  -17.0616   23.2791 C.ar    1  UNL1        0.0143
     21 C          -5.6749  -16.8547   23.4960 C.ar    1  UNL1        0.0502
     22 C          -6.5892  -17.3226   22.5361 C.ar    1  UNL1        0.0438
     23 C          -6.1450  -17.9860   21.3881 C.ar    1  UNL1        0.1374
     24 F          -7.0645  -18.4169   20.4875 F       1  UNL1       -0.2045
     25 C          -2.9245  -18.3641   19.4673 C.3     1  UNL1        0.0048
     26 C          -4.2786  -18.9168   19.9283 C.3     1  UNL1        0.0246
     27 C          -4.2062  -20.4311   20.1589 C.3     1  UNL1        0.0048
     28 C         -10.5563   -9.6421   32.1815 C.3     1  UNL1        0.1535
     29 C         -11.2394   -8.4180   31.5970 C.2     1  UNL1        0.2443
     30 O         -12.4931   -8.4081   31.4631 O.2     1  UNL1       -0.2730
     31 N         -10.5118   -7.2125   31.3107 N.am    1  UNL1       -0.2825
     32 H         -11.0364   -6.3094   31.3459 H       1  UNL1        0.1549
     33 C          -9.0970   -7.1554   31.0869 C.ar    1  UNL1        0.0535
     34 C          -8.5288   -7.6945   29.9238 C.ar    1  UNL1        0.0353
     35 C          -7.1505   -7.5908   29.7211 C.ar    1  UNL1        0.1002
     36 N          -6.3729   -6.9538   30.6366 N.ar    1  UNL1       -0.2422
     37 C          -6.9029   -6.4009   31.7602 C.ar    1  UNL1        0.1002
     38 C          -8.2767   -6.4824   32.0000 C.ar    1  UNL1        0.0353
     39 C         -11.4825  -10.3851   33.1640 C.3     1  UNL1        0.0569
     40 C         -12.1267  -11.5991   32.5528 C.ar    1  UNL1       -0.0017
     41 C         -12.9390  -11.6231   31.4224 C.ar    1  UNL1        0.0681
     42 N         -13.3989  -12.8748   31.1976 N.ar    1  UNL1       -0.3523
     43 C         -12.8883  -13.6400   32.1778 C.ar    1  UNL1        0.0563
     44 C         -13.0905  -15.0053   32.3750 C.ar    1  UNL1        0.0170
     45 C         -12.4628  -15.6105   33.4789 C.ar    1  UNL1        0.0015
     46 C         -11.6557  -14.8465   34.3508 C.ar    1  UNL1        0.0001
     47 C         -11.4696  -13.4704   34.1273 C.ar    1  UNL1        0.0012
     48 C         -12.1067  -12.8972   33.0260 C.ar    1  UNL1        0.0131
     49 H         -14.0310  -13.1787   30.4240 H       1  UNL1        0.1660
@<TRIPOS>BOND
     1    25    26    1
     2    26    27    1
     3    26    18    1
     4    18    19   ar
     5    19    20   ar
     6    20    21   ar
     7    21    12    1
     8    12    13    1
     9    13    14    1
    10    14    15    1
    11    15     5    1
    12     5     6   ar
    13     6     7   ar
    14     7     8   ar
    15     8     1    1
    16     1     2    2
    17     1     3   am
    18     3    28    1
    19    28    39    1
    20    39    40    1
    21    40    41   ar
    22    41    42   ar
    23    42    43   ar
    24    43    44   ar
    25    44    45   ar
    26    45    46   ar
    27    46    47   ar
    28    47    48   ar
    29    28    29    1
    30    29    30    2
    31    29    31   am
    32    31    33    1
    33    33    34   ar
    34    34    35   ar
    35    35    36   ar
    36    36    37   ar
    37    37    38   ar
    38     8     9   ar
    39     9    10    1
    40     9    11   ar
    41    15    16    1
    42    16    17    1
    43    21    22   ar
    44    22    23   ar
    45    23    24    1
    46    23    18   ar
    47    17    12    1
    48    11     5   ar
    49    48    40   ar
    50    38    33   ar
    51    48    43   ar
    52     3     4    1
    53    42    49    1
    54    31    32    1
@<TRIPOS>MOLECULE
*****
 49 54 0 0 0
SMALL
GASTEIGER

@<TRIPOS>ATOM
      1 C          -9.0643  -11.5290   30.9588 C.2     1  UNL1        0.2483
      2 O          -8.4038  -11.4002   32.0261 O.2     1  UNL1       -0.2701
      3 N         -10.3476  -10.8954   30.8305 N.am    1  UNL1       -0.2945
      4 H         -10.9827  -11.2328   30.0722 H       1  UNL1        0.1501
      5 C          -7.5282  -13.9857   27.7707 C.ar    1  UNL1        0.0502
      6 C          -8.8713  -14.0805   28.1745 C.ar    1  UNL1        0.0148
      7 C          -9.3596  -13.2844   29.2132 C.ar    1  UNL1        0.0080
      8 C          -8.5202  -12.3685   29.8675 C.ar    1  UNL1        0.0808
      9 C          -7.1695  -12.2836   29.4792 C.ar    1  UNL1        0.1457
     10 F          -6.3050  -11.4637   30.1292 F       1  UNL1       -0.2040
     11 C          -6.6831  -13.0834   28.4402 C.ar    1  UNL1        0.0443
     12 N          -6.0264  -16.2734   24.4589 N.pl3   1  UNL1       -0.3040
     13 C          -7.4352  -15.8503   24.4941 C.3     1  UNL1        0.1122
     14 C          -7.9340  -15.6713   25.9313 C.3     1  UNL1        0.1122
     15 N          -7.0209  -14.8110   26.6978 N.pl3   1  UNL1       -0.3040
     16 C          -5.5745  -14.8550   26.4320 C.3     1  UNL1        0.1122
     17 C          -5.1829  -16.1143   25.6525 C.3     1  UNL1        0.1122
     18 C          -4.4740  -18.1883   20.9645 C.ar    1  UNL1        0.0050
     19 C          -3.6094  -17.7036   21.9632 C.ar    1  UNL1       -0.0008
     20 C          -4.1171  -17.0784   23.1043 C.ar    1  UNL1        0.0143
     21 C          -5.5025  -16.9231   23.2787 C.ar    1  UNL1        0.0502
     22 C          -6.3677  -17.4041   22.2806 C.ar    1  UNL1        0.0438
     23 C          -5.8630  -18.0299   21.1365 C.ar    1  UNL1        0.1374
     24 F          -6.7367  -18.4753   20.1981 F       1  UNL1       -0.2045
     25 C          -2.5318  -18.3179   19.3668 C.3     1  UNL1        0.0048
     26 C          -3.9181  -18.8680   19.7238 C.3     1  UNL1        0.0246
     27 C          -3.8783  -20.3909   19.8990 C.3     1  UNL1        0.0048
     28 C         -10.9041  -10.0321   31.8810 C.3     1  UNL1        0.1535
     29 C         -11.2606   -8.6608   31.3343 C.2     1  UNL1        0.2443
     30 O         -12.4694   -8.3666   31.1287 O.2     1  UNL1       -0.2730
     31 N         -10.2691   -7.6346   31.1654 N.am    1  UNL1       -0.2825
     32 H         -10.5850   -6.6403   31.2256 H       1  UNL1        0.1549
     33 C          -8.8639   -7.8824   31.0280 C.ar    1  UNL1        0.0535
     34 C          -8.0317   -7.9580   32.1540 C.ar    1  UNL1        0.0353
     35 C          -6.6729   -8.2354   31.9863 C.ar    1  UNL1        0.1002
     36 N          -6.1694   -8.4498   30.7416 N.ar    1  UNL1       -0.2422
     37 C          -6.9600   -8.4067   29.6361 C.ar    1  UNL1        0.1002
     38 C          -8.3242   -8.1330   29.7608 C.ar    1  UNL1        0.0353
     39 C         -12.1224  -10.7061   32.5416 C.3     1  UNL1        0.0569
     40 C         -11.7696  -11.9894   33.2423 C.ar    1  UNL1       -0.0017
     41 C         -10.6646  -12.2078   34.0605 C.ar    1  UNL1        0.0681
     42 N         -10.6251  -13.4969   34.4671 N.ar    1  UNL1       -0.3523
     43 C         -11.6921  -14.0952   33.9098 C.ar    1  UNL1        0.0563
     44 C         -12.0688  -15.4322   34.0303 C.ar    1  UNL1        0.0170
     45 C         -13.2258  -15.8534   33.3499 C.ar    1  UNL1        0.0015
     46 C         -13.9722  -14.9393   32.5736 C.ar    1  UNL1        0.0001
     47 C         -13.5681  -13.5962   32.4699 C.ar    1  UNL1        0.0012
     48 C         -12.4152  -13.2080   33.1536 C.ar    1  UNL1        0.0131
     49 H          -9.9040  -13.9366   35.0813 H       1  UNL1        0.1660
@<TRIPOS>BOND
     1    25    26    1
     2    26    27    1
     3    26    18    1
     4    18    19   ar
     5    19    20   ar
     6    20    21   ar
     7    21    12    1
     8    12    13    1
     9    13    14    1
    10    14    15    1
    11    15     5    1
    12     5     6   ar
    13     6     7   ar
    14     7     8   ar
    15     8     1    1
    16     1     2    2
    17     1     3   am
    18     3    28    1
    19    28    39    1
    20    39    40    1
    21    40    41   ar
    22    41    42   ar
    23    42    43   ar
    24    43    44   ar
    25    44    45   ar
    26    45    46   ar
    27    46    47   ar
    28    47    48   ar
    29    28    29    1
    30    29    30    2
    31    29    31   am
    32    31    33    1
    33    33    34   ar
    34    34    35   ar
    35    35    36   ar
    36    36    37   ar
    37    37    38   ar
    38     8     9   ar
    39     9    10    1
    40     9    11   ar
    41    15    16    1
    42    16    17    1
    43    21    22   ar
    44    22    23   ar
    45    23    24    1
    46    23    18   ar
    47    17    12    1
    48    11     5   ar
    49    48    40   ar
    50    38    33   ar
    51    48    43   ar
    52     3     4    1
    53    42    49    1
    54    31    32    1
@<TRIPOS>MOLECULE
*****
 49 54 0 0 0
SMALL
GASTEIGER

@<TRIPOS>ATOM
      1 C          -9.4626  -12.4683   30.1841 C.2     1  UNL1        0.2483
      2 O         -10.6360  -12.1071   29.8939 O.2     1  UNL1       -0.2701
      3 N          -8.9173  -12.1578   31.4768 N.am    1  UNL1       -0.2945
      4 H          -7.8805  -12.2173   31.5942 H       1  UNL1        0.1501
      5 C          -7.1399  -14.5432   27.2076 C.ar    1  UNL1        0.0502
      6 C          -8.4842  -14.8811   27.4417 C.ar    1  UNL1        0.0148
      7 C          -9.2282  -14.2073   28.4130 C.ar    1  UNL1        0.0080
      8 C          -8.6499  -13.1739   29.1675 C.ar    1  UNL1        0.0808
      9 C          -7.2984  -12.8448   28.9498 C.ar    1  UNL1        0.1457
     10 F          -6.6781  -11.9015   29.7031 F       1  UNL1       -0.2040
     11 C          -6.5555  -13.5226   27.9781 C.ar    1  UNL1        0.0443
     12 N          -4.7287  -16.4507   24.2069 N.pl3   1  UNL1       -0.3040
     13 C          -5.6838  -15.3952   23.8349 C.3     1  UNL1        0.1122
     14 C          -6.8546  -15.3220   24.8199 C.3     1  UNL1        0.1122
     15 N          -6.3680  -15.2417   26.2049 N.pl3   1  UNL1       -0.3040
     16 C          -5.1368  -15.9481   26.5923 C.3     1  UNL1        0.1122
     17 C          -4.7526  -17.0164   25.5637 C.3     1  UNL1        0.1122
     18 C          -2.0728  -18.0350   21.2534 C.ar    1  UNL1        0.0050
     19 C          -2.1868  -16.6460   21.4471 C.ar    1  UNL1       -0.0008
     20 C          -3.0543  -16.1292   22.4120 C.ar    1  UNL1        0.0143
     21 C          -3.8292  -16.9870   23.2106 C.ar    1  UNL1        0.0502
     22 C          -3.7187  -18.3749   23.0164 C.ar    1  UNL1        0.0438
     23 C          -2.8518  -18.8958   22.0508 C.ar    1  UNL1        0.1374
     24 F          -2.7812  -20.2426   21.8969 F       1  UNL1       -0.2045
     25 C          -0.5443  -17.4738   19.3324 C.3     1  UNL1        0.0048
     26 C          -1.1278  -18.5940   20.2022 C.3     1  UNL1        0.0246
     27 C          -0.0141  -19.4275   20.8476 C.3     1  UNL1        0.0048
     28 C          -9.7051  -11.4856   32.5190 C.3     1  UNL1        0.1535
     29 C          -9.4612  -12.1103   33.8816 C.2     1  UNL1        0.2443
     30 O          -8.4201  -11.8116   34.5271 O.2     1  UNL1       -0.2730
     31 N         -10.4482  -12.9362   34.5206 N.am    1  UNL1       -0.2825
     32 H         -10.4506  -12.9691   35.5651 H       1  UNL1        0.1549
     33 C         -11.4938  -13.6301   33.8277 C.ar    1  UNL1        0.0535
     34 C         -11.8177  -14.9554   34.1520 C.ar    1  UNL1        0.0353
     35 C         -12.8653  -15.5903   33.4807 C.ar    1  UNL1        0.1002
     36 N         -13.5758  -14.9188   32.5357 N.ar    1  UNL1       -0.2422
     37 C         -13.2978  -13.6256   32.2206 C.ar    1  UNL1        0.1002
     38 C         -12.2584  -12.9544   32.8693 C.ar    1  UNL1        0.0353
     39 C          -9.4008   -9.9748   32.5326 C.3     1  UNL1        0.0569
     40 C         -10.5182   -9.1501   31.9550 C.ar    1  UNL1       -0.0017
     41 C         -11.8484   -9.5386   31.8207 C.ar    1  UNL1        0.0681
     42 N         -12.5622   -8.5731   31.1986 N.ar    1  UNL1       -0.3523
     43 C         -11.6943   -7.5809   30.9349 C.ar    1  UNL1        0.0563
     44 C         -11.9625   -6.3738   30.2909 C.ar    1  UNL1        0.0170
     45 C         -10.8964   -5.4742   30.1091 C.ar    1  UNL1        0.0015
     46 C          -9.6009   -5.7973   30.5704 C.ar    1  UNL1        0.0001
     47 C          -9.3596   -7.0228   31.2167 C.ar    1  UNL1        0.0012
     48 C         -10.4357   -7.8961   31.3805 C.ar    1  UNL1        0.0131
     49 H         -13.5792   -8.6013   30.9635 H       1  UNL1        0.1660
@<TRIPOS>BOND
     1    25    26    1
     2    26    27    1
     3    26    18    1
     4    18    19   ar
     5    19    20   ar
     6    20    21   ar
     7    21    12    1
     8    12    13    1
     9    13    14    1
    10    14    15    1
    11    15     5    1
    12     5     6   ar
    13     6     7   ar
    14     7     8   ar
    15     8     1    1
    16     1     2    2
    17     1     3   am
    18     3    28    1
    19    28    39    1
    20    39    40    1
    21    40    41   ar
    22    41    42   ar
    23    42    43   ar
    24    43    44   ar
    25    44    45   ar
    26    45    46   ar
    27    46    47   ar
    28    47    48   ar
    29    28    29    1
    30    29    30    2
    31    29    31   am
    32    31    33    1
    33    33    34   ar
    34    34    35   ar
    35    35    36   ar
    36    36    37   ar
    37    37    38   ar
    38     8     9   ar
    39     9    10    1
    40     9    11   ar
    41    15    16    1
    42    16    17    1
    43    21    22   ar
    44    22    23   ar
    45    23    24    1
    46    23    18   ar
    47    17    12    1
    48    11     5   ar
    49    48    40   ar
    50    38    33   ar
    51    48    43   ar
    52     3     4    1
    53    42    49    1
    54    31    32    1
@<TRIPOS>MOLECULE
*****
 49 54 0 0 0
SMALL
GASTEIGER

@<TRIPOS>ATOM
      1 C          -9.6600  -12.2326   30.7395 C.2     1  UNL1        0.2483
      2 O         -10.7084  -11.5772   30.4886 O.2     1  UNL1       -0.2701
      3 N          -9.1461  -12.2749   32.0807 N.am    1  UNL1       -0.2945
      4 H          -8.1556  -12.5810   32.2125 H       1  UNL1        0.1501
      5 C          -7.6433  -14.2430   27.5068 C.ar    1  UNL1        0.0502
      6 C          -8.9722  -14.5590   27.8387 C.ar    1  UNL1        0.0148
      7 C          -9.6165  -13.9066   28.8923 C.ar    1  UNL1        0.0080
      8 C          -8.9518  -12.9167   29.6339 C.ar    1  UNL1        0.0808
      9 C          -7.6145  -12.6102   29.3173 C.ar    1  UNL1        0.1457
     10 F          -6.9104  -11.7112   30.0508 F       1  UNL1       -0.2040
     11 C          -6.9715  -13.2667   28.2631 C.ar    1  UNL1        0.0443
     12 N          -5.6463  -16.0737   24.1724 N.pl3   1  UNL1       -0.3040
     13 C          -7.0529  -15.6566   24.0608 C.3     1  UNL1        0.1122
     14 C          -7.7541  -15.6689   25.4226 C.3     1  UNL1        0.1122
     15 N          -6.9743  -14.9196   26.4185 N.pl3   1  UNL1       -0.3040
     16 C          -5.5042  -14.9305   26.3592 C.3     1  UNL1        0.1122
     17 C          -4.9840  -16.0759   25.4850 C.3     1  UNL1        0.1122
     18 C          -3.5753  -17.5155   20.7200 C.ar    1  UNL1        0.0050
     19 C          -3.4773  -18.1896   21.9512 C.ar    1  UNL1       -0.0008
     20 C          -4.1540  -17.7183   23.0783 C.ar    1  UNL1        0.0143
     21 C          -4.9487  -16.5620   23.0044 C.ar    1  UNL1        0.0502
     22 C          -5.0455  -15.8856   21.7759 C.ar    1  UNL1        0.0438
     23 C          -4.3688  -16.3541   20.6455 C.ar    1  UNL1        0.1374
     24 F          -4.4894  -15.6660   19.4818 F       1  UNL1       -0.2045
     25 C          -1.3510  -17.6569   19.5479 C.3     1  UNL1        0.0048
     26 C          -2.8373  -18.0312   19.4953 C.3     1  UNL1        0.0246
     27 C          -3.0190  -19.5456   19.3377 C.3     1  UNL1        0.0048
     28 C          -9.8389  -11.6329   33.2062 C.3     1  UNL1        0.1535
     29 C          -9.6929  -12.4482   34.4791 C.2     1  UNL1        0.2443
     30 O          -8.7021  -12.2531   35.2342 O.2     1  UNL1       -0.2730
     31 N         -10.7216  -13.3492   34.9202 N.am    1  UNL1       -0.2825
     32 H         -10.7997  -13.5313   35.9463 H       1  UNL1        0.1549
     33 C         -11.7124  -13.9285   34.0613 C.ar    1  UNL1        0.0535
     34 C         -11.9892  -15.3025   34.1041 C.ar    1  UNL1        0.0353
     35 C         -12.9853  -15.8284   33.2779 C.ar    1  UNL1        0.1002
     36 N         -13.6922  -15.0082   32.4554 N.ar    1  UNL1       -0.2422
     37 C         -13.4601  -13.6691   32.4134 C.ar    1  UNL1        0.1002
     38 C         -12.4730  -13.1035   33.2242 C.ar    1  UNL1        0.0353
     39 C          -9.3269  -10.1924   33.4014 C.3     1  UNL1        0.0569
     40 C          -8.0014   -9.9494   32.7333 C.ar    1  UNL1       -0.0017
     41 C          -6.7963  -10.5781   33.0344 C.ar    1  UNL1        0.0681
     42 N          -5.7956  -10.0666   32.2823 N.ar    1  UNL1       -0.3523
     43 C          -6.3569   -9.1180   31.5126 C.ar    1  UNL1        0.0563
     44 C          -5.7196   -8.3032   30.5779 C.ar    1  UNL1        0.0170
     45 C          -6.5019   -7.3626   29.8833 C.ar    1  UNL1        0.0015
     46 C          -7.8879   -7.2591   30.1353 C.ar    1  UNL1        0.0001
     47 C          -8.5041   -8.0943   31.0844 C.ar    1  UNL1        0.0012
     48 C          -7.7024   -9.0157   31.7595 C.ar    1  UNL1        0.0131
     49 H          -4.7901  -10.3474   32.3055 H       1  UNL1        0.1660
@<TRIPOS>BOND
     1    25    26    1
     2    26    27    1
     3    26    18    1
     4    18    19   ar
     5    19    20   ar
     6    20    21   ar
     7    21    12    1
     8    12    13    1
     9    13    14    1
    10    14    15    1
    11    15     5    1
    12     5     6   ar
    13     6     7   ar
    14     7     8   ar
    15     8     1    1
    16     1     2    2
    17     1     3   am
    18     3    28    1
    19    28    39    1
    20    39    40    1
    21    40    41   ar
    22    41    42   ar
    23    42    43   ar
    24    43    44   ar
    25    44    45   ar
    26    45    46   ar
    27    46    47   ar
    28    47    48   ar
    29    28    29    1
    30    29    30    2
    31    29    31   am
    32    31    33    1
    33    33    34   ar
    34    34    35   ar
    35    35    36   ar
    36    36    37   ar
    37    37    38   ar
    38     8     9   ar
    39     9    10    1
    40     9    11   ar
    41    15    16    1
    42    16    17    1
    43    21    22   ar
    44    22    23   ar
    45    23    24    1
    46    23    18   ar
    47    17    12    1
    48    11     5   ar
    49    48    40   ar
    50    38    33   ar
    51    48    43   ar
    52     3     4    1
    53    42    49    1
    54    31    32    1
@<TRIPOS>MOLECULE
*****
 49 54 0 0 0
SMALL
GASTEIGER

@<TRIPOS>ATOM
      1 C          -9.4461  -12.6975   29.8125 C.2     1  UNL1        0.2483
      2 O         -10.4372  -13.2978   30.3118 O.2     1  UNL1       -0.2701
      3 N          -9.1863  -11.3290   30.1653 N.am    1  UNL1       -0.2945
      4 H          -8.5458  -10.7809   29.5476 H       1  UNL1        0.1501
      5 C          -6.9894  -14.7793   26.9508 C.ar    1  UNL1        0.0502
      6 C          -8.3386  -15.1280   27.1356 C.ar    1  UNL1        0.0148
      7 C          -9.1264  -14.4517   28.0700 C.ar    1  UNL1        0.0080
      8 C          -8.5877  -13.4053   28.8358 C.ar    1  UNL1        0.0808
      9 C          -7.2318  -13.0652   28.6677 C.ar    1  UNL1        0.1457
     10 F          -6.6504  -12.1085   29.4348 F       1  UNL1       -0.2040
     11 C          -6.4452  -13.7455   27.7328 C.ar    1  UNL1        0.0443
     12 N          -4.4465  -16.6923   24.0643 N.pl3   1  UNL1       -0.3040
     13 C          -5.4086  -15.6620   23.6427 C.3     1  UNL1        0.1122
     14 C          -6.6120  -15.5942   24.5880 C.3     1  UNL1        0.1122
     15 N          -6.1723  -15.4803   25.9862 N.pl3   1  UNL1       -0.3040
     16 C          -4.9415  -16.1560   26.4259 C.3     1  UNL1        0.1122
     17 C          -4.5041  -17.2345   25.4297 C.3     1  UNL1        0.1122
     18 C          -1.6569  -18.2812   21.2394 C.ar    1  UNL1        0.0050
     19 C          -2.5070  -19.1334   21.9680 C.ar    1  UNL1       -0.0008
     20 C          -3.4179  -18.6139   22.8904 C.ar    1  UNL1        0.0143
     21 C          -3.5052  -17.2285   23.1074 C.ar    1  UNL1        0.0502
     22 C          -2.6547  -16.3757   22.3824 C.ar    1  UNL1        0.0438
     23 C          -1.7409  -16.8924   21.4587 C.ar    1  UNL1        0.1374
     24 F          -0.9377  -16.0306   20.7845 F       1  UNL1       -0.2045
     25 C          -0.1021  -17.7481   19.3315 C.3     1  UNL1        0.0048
     26 C          -0.6664  -18.8501   20.2364 C.3     1  UNL1        0.0246
     27 C           0.4600  -19.6128   20.9442 C.3     1  UNL1        0.0048
     28 C          -9.9995  -10.6060   31.1526 C.3     1  UNL1        0.1535
     29 C         -10.2769   -9.1830   30.7004 C.2     1  UNL1        0.2443
     30 O         -11.4339   -8.8668   30.3115 O.2     1  UNL1       -0.2730
     31 N          -9.2904   -8.1457   30.8253 N.am    1  UNL1       -0.2825
     32 H          -9.6305   -7.1634   30.9335 H       1  UNL1        0.1549
     33 C          -7.8792   -8.3787   30.9196 C.ar    1  UNL1        0.0535
     34 C          -7.1143   -8.6444   29.7747 C.ar    1  UNL1        0.0353
     35 C          -5.7356   -8.8324   29.8983 C.ar    1  UNL1        0.1002
     36 N          -5.1412   -8.7373   31.1175 N.ar    1  UNL1       -0.2422
     37 C          -5.8567   -8.4560   32.2390 C.ar    1  UNL1        0.1002
     38 C          -7.2377   -8.2606   32.1582 C.ar    1  UNL1        0.0353
     39 C         -11.3081  -11.3698   31.4342 C.3     1  UNL1        0.0569
     40 C         -11.2232  -12.2400   32.6580 C.ar    1  UNL1       -0.0017
     41 C         -10.2539  -12.1721   33.6550 C.ar    1  UNL1        0.0681
     42 N         -10.4472  -13.1494   34.5694 N.ar    1  UNL1       -0.3523
     43 C         -11.5266  -13.8362   34.1566 C.ar    1  UNL1        0.0563
     44 C         -12.1065  -14.9458   34.7702 C.ar    1  UNL1        0.0170
     45 C         -13.2355  -15.5205   34.1586 C.ar    1  UNL1        0.0015
     46 C         -13.7539  -14.9792   32.9612 C.ar    1  UNL1        0.0001
     47 C         -13.1480  -13.8591   32.3644 C.ar    1  UNL1        0.0012
     48 C         -12.0282  -13.3121   32.9923 C.ar    1  UNL1        0.0131
     49 H          -9.8669  -13.3355   35.4174 H       1  UNL1        0.1660
@<TRIPOS>BOND
     1    25    26    1
     2    26    27    1
     3    26    18    1
     4    18    19   ar
     5    19    20   ar
     6    20    21   ar
     7    21    12    1
     8    12    13    1
     9    13    14    1
    10    14    15    1
    11    15     5    1
    12     5     6   ar
    13     6     7   ar
    14     7     8   ar
    15     8     1    1
    16     1     2    2
    17     1     3   am
    18     3    28    1
    19    28    39    1
    20    39    40    1
    21    40    41   ar
    22    41    42   ar
    23    42    43   ar
    24    43    44   ar
    25    44    45   ar
    26    45    46   ar
    27    46    47   ar
    28    47    48   ar
    29    28    29    1
    30    29    30    2
    31    29    31   am
    32    31    33    1
    33    33    34   ar
    34    34    35   ar
    35    35    36   ar
    36    36    37   ar
    37    37    38   ar
    38     8     9   ar
    39     9    10    1
    40     9    11   ar
    41    15    16    1
    42    16    17    1
    43    21    22   ar
    44    22    23   ar
    45    23    24    1
    46    23    18   ar
    47    17    12    1
    48    11     5   ar
    49    48    40   ar
    50    38    33   ar
    51    48    43   ar
    52     3     4    1
    53    42    49    1
    54    31    32    1
