@<TRIPOS>MOLECULE
*****
 35 39 0 0 0
SMALL
GASTEIGER

@<TRIPOS>ATOM
      1 C         -22.3658   -6.6630   -9.9513 C.2     1  UNL1        0.2490
      2 O         -22.3072   -5.4231   -9.7262 O.2     1  UNL1       -0.2699
      3 N         -23.4937   -7.1940  -10.6723 N.am    1  UNL1       -0.2760
      4 C         -24.1906   -8.3960  -10.2030 C.3     1  UNL1        0.0954
      5 C         -24.4521   -9.3739  -11.3647 C.3     1  UNL1        0.0399
      6 C         -24.4703   -8.7012  -12.7752 C.3     1  UNL1        0.0645
      7 C         -24.9942   -7.2462  -12.6553 C.3     1  UNL1        0.0399
      8 C         -24.1273   -6.3820  -11.7180 C.3     1  UNL1        0.0954
      9 C         -25.4278   -9.5036  -13.7232 C.3     1  UNL1        0.0477
     10 C         -24.7921  -10.7995  -14.1296 C.ar    1  UNL1        0.0220
     11 C         -25.3390  -11.9618  -14.6210 C.ar    1  UNL1        0.0923
     12 N         -24.3190  -12.7709  -15.0046 N.ar    1  UNL1       -0.2534
     13 N         -23.1583  -12.1500  -14.8114 N.ar    1  UNL1       -0.1651
     14 C         -23.4477  -10.9511  -14.2784 C.ar    1  UNL1        0.1515
     15 C         -22.5317   -9.8739  -13.9376 C.2     1  UNL1        0.2650
     16 O         -21.3012   -9.9508  -14.1933 O.2     1  UNL1       -0.2684
     17 N         -23.0903   -8.6980  -13.3304 N.am    1  UNL1       -0.3023
     18 H         -22.4681   -7.8668  -13.2197 H       1  UNL1        0.1497
     19 C         -19.5362  -10.7124  -10.4484 C.ar    1  UNL1        0.2252
     20 N         -18.5178  -11.4908   -9.9857 N.ar    1  UNL1       -0.2058
     21 C         -17.8066  -11.1685   -8.8741 C.ar    1  UNL1        0.1137
     22 I         -16.2491  -12.4335   -8.2355 I       1  UNL1       -0.0211
     23 C         -18.1100  -10.0093   -8.1588 C.ar    1  UNL1        0.0252
     24 C         -19.1498   -9.1817   -8.6001 C.ar    1  UNL1        0.0064
     25 C         -19.4797   -8.0138   -7.8989 C.ar    1  UNL1        0.0004
     26 C         -20.5249   -7.1987   -8.3406 C.ar    1  UNL1        0.0045
     27 C         -21.2586   -7.5363   -9.4902 C.ar    1  UNL1        0.0537
     28 C         -20.9098   -8.6926  -10.2095 C.ar    1  UNL1        0.0092
     29 C         -19.8725   -9.5288   -9.7642 C.ar    1  UNL1        0.0534
     30 C         -20.7224  -12.4181  -11.8021 C.3     1  UNL1        0.2542
     31 O         -20.2495  -11.0930  -11.5920 O.3     1  UNL1       -0.4561
     32 C         -24.4561  -14.1079  -15.6158 C.3     1  UNL1        0.0867
     33 C         -24.3163  -13.9866  -17.1440 C.3     1  UNL1        0.0244
     34 C         -23.3623  -15.0609  -15.0868 C.3     1  UNL1        0.0244
     35 C         -25.8353  -14.6994  -15.2644 C.3     1  UNL1        0.0244
@<TRIPOS>BOND
     1    30    31    1
     2    31    19    1
     3    19    20   ar
     4    20    21   ar
     5    21    22    1
     6    21    23   ar
     7    23    24   ar
     8    24    25   ar
     9    25    26   ar
    10    26    27   ar
    11    27     1    1
    12     1     2    2
    13     1     3   am
    14     3     4    1
    15     4     5    1
    16     5     6    1
    17     6     7    1
    18     7     8    1
    19     6     9    1
    20     9    10    1
    21    10    11   ar
    22    11    12   ar
    23    12    32    1
    24    32    33    1
    25    32    34    1
    26    32    35    1
    27    12    13   ar
    28    13    14   ar
    29    14    15    1
    30    15    16    2
    31    15    17   am
    32    27    28   ar
    33    28    29   ar
    34    29    19   ar
    35    29    24   ar
    36     8     3    1
    37    14    10   ar
    38    17     6    1
    39    17    18    1
@<TRIPOS>MOLECULE
*****
 35 39 0 0 0
SMALL
GASTEIGER

@<TRIPOS>ATOM
      1 C         -21.3039   -7.7372   -8.8557 C.2     1  UNL1        0.2490
      2 O         -21.1691   -6.5656   -8.4079 O.2     1  UNL1       -0.2699
      3 N         -22.5483   -8.1142   -9.4750 N.am    1  UNL1       -0.2760
      4 C         -23.2028   -9.3832   -9.1407 C.3     1  UNL1        0.0954
      5 C         -23.6762  -10.1141  -10.4119 C.3     1  UNL1        0.0399
      6 C         -23.8930   -9.1781  -11.6446 C.3     1  UNL1        0.0645
      7 C         -24.3423   -7.7736  -11.1637 C.3     1  UNL1        0.0399
      8 C         -23.3105   -7.1117  -10.2288 C.3     1  UNL1        0.0954
      9 C         -25.0140   -9.7772  -12.5633 C.3     1  UNL1        0.0477
     10 C         -24.4939  -10.9698  -13.3089 C.ar    1  UNL1        0.0220
     11 C         -25.1499  -12.0121  -13.9210 C.ar    1  UNL1        0.0923
     12 N         -24.2306  -12.7327  -14.6122 N.ar    1  UNL1       -0.2534
     13 N         -23.0338  -12.1643  -14.4917 N.ar    1  UNL1       -0.1651
     14 C         -23.1953  -11.0924  -13.6980 C.ar    1  UNL1        0.1515
     15 C         -22.2016  -10.1048  -13.3073 C.2     1  UNL1        0.2650
     16 O         -21.0297  -10.1330  -13.7672 O.2     1  UNL1       -0.2684
     17 N         -22.6180   -9.0693  -12.4029 N.am    1  UNL1       -0.3023
     18 H         -21.9585   -8.2774  -12.2353 H       1  UNL1        0.1497
     19 C         -17.7180   -9.9546   -6.2333 C.ar    1  UNL1        0.2252
     20 N         -16.6746  -10.8299   -6.1871 N.ar    1  UNL1       -0.2058
     21 C         -16.2763  -11.5409   -7.2739 C.ar    1  UNL1        0.1137
     22 I         -14.6527  -12.8712   -7.1059 I       1  UNL1       -0.0211
     23 C         -16.9365  -11.3866   -8.4937 C.ar    1  UNL1        0.0252
     24 C         -18.0137  -10.4965   -8.5844 C.ar    1  UNL1        0.0064
     25 C         -18.6924  -10.3178   -9.7977 C.ar    1  UNL1        0.0004
     26 C         -19.7600   -9.4206   -9.8819 C.ar    1  UNL1        0.0045
     27 C         -20.1680   -8.6865   -8.7556 C.ar    1  UNL1        0.0537
     28 C         -19.5057   -8.8863   -7.5318 C.ar    1  UNL1        0.0092
     29 C         -18.4195   -9.7723   -7.4403 C.ar    1  UNL1        0.0534
     30 C         -17.2523   -8.2385   -4.5050 C.3     1  UNL1        0.2542
     31 O         -18.0837   -9.2340   -5.0894 O.3     1  UNL1       -0.4561
     32 C         -24.5069  -13.9238  -15.4398 C.3     1  UNL1        0.0867
     33 C         -24.4285  -13.5396  -16.9284 C.3     1  UNL1        0.0244
     34 C         -23.4729  -15.0345  -15.1540 C.3     1  UNL1        0.0244
     35 C         -25.9127  -14.4657  -15.1152 C.3     1  UNL1        0.0244
@<TRIPOS>BOND
     1    30    31    1
     2    31    19    1
     3    19    20   ar
     4    20    21   ar
     5    21    22    1
     6    21    23   ar
     7    23    24   ar
     8    24    25   ar
     9    25    26   ar
    10    26    27   ar
    11    27     1    1
    12     1     2    2
    13     1     3   am
    14     3     4    1
    15     4     5    1
    16     5     6    1
    17     6     7    1
    18     7     8    1
    19     6     9    1
    20     9    10    1
    21    10    11   ar
    22    11    12   ar
    23    12    32    1
    24    32    33    1
    25    32    34    1
    26    32    35    1
    27    12    13   ar
    28    13    14   ar
    29    14    15    1
    30    15    16    2
    31    15    17   am
    32    27    28   ar
    33    28    29   ar
    34    29    19   ar
    35    29    24   ar
    36     8     3    1
    37    14    10   ar
    38    17     6    1
    39    17    18    1
@<TRIPOS>MOLECULE
*****
 35 39 0 0 0
SMALL
GASTEIGER

@<TRIPOS>ATOM
      1 C         -22.0522   -6.6216   -9.9462 C.2     1  UNL1        0.2490
      2 O         -21.8538   -6.0629   -8.8327 O.2     1  UNL1       -0.2699
      3 N         -21.2362   -7.7467  -10.3235 N.am    1  UNL1       -0.2760
      4 C         -20.6478   -7.8356  -11.6638 C.3     1  UNL1        0.0954
      5 C         -20.8400   -9.2430  -12.2610 C.3     1  UNL1        0.0399
      6 C         -21.0608  -10.3650  -11.1957 C.3     1  UNL1        0.0645
      7 C         -20.2968  -10.0092   -9.8936 C.3     1  UNL1        0.0399
      8 C         -20.7567   -8.6685   -9.2869 C.3     1  UNL1        0.0954
      9 C         -20.5069  -11.7244  -11.7478 C.3     1  UNL1        0.0477
     10 C         -21.4226  -12.2696  -12.8028 C.ar    1  UNL1        0.0220
     11 C         -21.2070  -13.1900  -13.8017 C.ar    1  UNL1        0.0923
     12 N         -22.4064  -13.4744  -14.3702 N.ar    1  UNL1       -0.2534
     13 N         -23.3688  -12.8017  -13.7446 N.ar    1  UNL1       -0.1651
     14 C         -22.7688  -12.0687  -12.7919 C.ar    1  UNL1        0.1515
     15 C         -23.3877  -11.2058  -11.7980 C.2     1  UNL1        0.2650
     16 O         -24.6393  -11.1153  -11.6930 O.2     1  UNL1       -0.2684
     17 N         -22.5158  -10.4865  -10.9115 N.am    1  UNL1       -0.3023
     18 H         -22.9500   -9.9847  -10.1053 H       1  UNL1        0.1497
     19 C         -26.4131   -7.2376  -12.2387 C.ar    1  UNL1        0.2252
     20 N         -27.3834   -6.7426  -13.0576 N.ar    1  UNL1       -0.2058
     21 C         -27.3093   -5.4994  -13.6000 C.ar    1  UNL1        0.1137
     22 I         -28.8585   -4.8202  -14.8541 I       1  UNL1       -0.0211
     23 C         -26.2116   -4.6808  -13.3309 C.ar    1  UNL1        0.0252
     24 C         -25.1918   -5.1515  -12.4946 C.ar    1  UNL1        0.0064
     25 C         -24.0753   -4.3531  -12.2106 C.ar    1  UNL1        0.0004
     26 C         -23.0578   -4.8341  -11.3830 C.ar    1  UNL1        0.0045
     27 C         -23.1379   -6.1210  -10.8249 C.ar    1  UNL1        0.0537
     28 C         -24.2706   -6.9112  -11.0868 C.ar    1  UNL1        0.0092
     29 C         -25.2910   -6.4445  -11.9320 C.ar    1  UNL1        0.0534
     30 C         -26.9080   -8.7871  -10.3671 C.3     1  UNL1        0.2542
     31 O         -26.5273   -8.5309  -11.7136 O.3     1  UNL1       -0.4561
     32 C         -22.6400  -14.4369  -15.4651 C.3     1  UNL1        0.0867
     33 C         -21.6589  -14.1482  -16.6156 C.3     1  UNL1        0.0244
     34 C         -22.4212  -15.8836  -14.9713 C.3     1  UNL1        0.0244
     35 C         -24.0896  -14.3043  -15.9713 C.3     1  UNL1        0.0244
@<TRIPOS>BOND
     1    30    31    1
     2    31    19    1
     3    19    20   ar
     4    20    21   ar
     5    21    22    1
     6    21    23   ar
     7    23    24   ar
     8    24    25   ar
     9    25    26   ar
    10    26    27   ar
    11    27     1    1
    12     1     2    2
    13     1     3   am
    14     3     4    1
    15     4     5    1
    16     5     6    1
    17     6     7    1
    18     7     8    1
    19     6     9    1
    20     9    10    1
    21    10    11   ar
    22    11    12   ar
    23    12    32    1
    24    32    33    1
    25    32    34    1
    26    32    35    1
    27    12    13   ar
    28    13    14   ar
    29    14    15    1
    30    15    16    2
    31    15    17   am
    32    27    28   ar
    33    28    29   ar
    34    29    19   ar
    35    29    24   ar
    36     8     3    1
    37    14    10   ar
    38    17     6    1
    39    17    18    1
@<TRIPOS>MOLECULE
*****
 35 39 0 0 0
SMALL
GASTEIGER

@<TRIPOS>ATOM
      1 C         -19.7464  -10.2042  -10.0181 C.2     1  UNL1        0.2490
      2 O         -18.6112  -10.2111   -9.4678 O.2     1  UNL1       -0.2699
      3 N         -20.6690   -9.1411   -9.7132 N.am    1  UNL1       -0.2760
      4 C         -22.0745   -9.4271   -9.4078 C.3     1  UNL1        0.0954
      5 C         -23.0124   -8.4692  -10.1674 C.3     1  UNL1        0.0399
      6 C         -22.3420   -7.1242  -10.5964 C.3     1  UNL1        0.0645
      7 C         -21.2539   -6.7283   -9.5645 C.3     1  UNL1        0.0399
      8 C         -20.1513   -7.7974   -9.4296 C.3     1  UNL1        0.0954
      9 C         -23.4266   -5.9924  -10.6425 C.3     1  UNL1        0.0477
     10 C         -24.3092   -6.1657  -11.8423 C.ar    1  UNL1        0.0220
     11 C         -25.5679   -5.6848  -12.1177 C.ar    1  UNL1        0.0923
     12 N         -25.8486   -5.9745  -13.4138 N.ar    1  UNL1       -0.2534
     13 N         -24.8048   -6.5810  -13.9729 N.ar    1  UNL1       -0.1651
     14 C         -23.8694   -6.6973  -13.0156 C.ar    1  UNL1        0.1515
     15 C         -22.5239   -7.2368  -13.1339 C.2     1  UNL1        0.2650
     16 O         -22.0595   -7.6092  -14.2435 O.2     1  UNL1       -0.2684
     17 N         -21.7270   -7.2943  -11.9401 N.am    1  UNL1       -0.3023
     18 H         -20.7171   -7.5390  -12.0422 H       1  UNL1        0.1497
     19 C         -22.3736  -11.8896  -13.8794 C.ar    1  UNL1        0.2252
     20 N         -22.6649  -12.9041  -14.7414 N.ar    1  UNL1       -0.2058
     21 C         -22.0355  -14.1066  -14.6848 C.ar    1  UNL1        0.1137
     22 I         -22.5528  -15.6145  -16.0605 I       1  UNL1       -0.0211
     23 C         -21.0563  -14.3411  -13.7185 C.ar    1  UNL1        0.0252
     24 C         -20.7273  -13.3251  -12.8128 C.ar    1  UNL1        0.0064
     25 C         -19.7513  -13.5341  -11.8287 C.ar    1  UNL1        0.0004
     26 C         -19.4358  -12.5184  -10.9228 C.ar    1  UNL1        0.0045
     27 C         -20.0900  -11.2765  -10.9843 C.ar    1  UNL1        0.0537
     28 C         -21.0487  -11.0570  -11.9886 C.ar    1  UNL1        0.0092
     29 C         -21.3865  -12.0773  -12.8931 C.ar    1  UNL1        0.0534
     30 C         -24.4552  -10.5511  -13.7252 C.3     1  UNL1        0.2542
     31 O         -23.0588  -10.6714  -13.9684 O.3     1  UNL1       -0.4561
     32 C         -27.0858   -5.6135  -14.1342 C.3     1  UNL1        0.0867
     33 C         -27.9848   -6.8570  -14.2582 C.3     1  UNL1        0.0244
     34 C         -27.8556   -4.5129  -13.3722 C.3     1  UNL1        0.0244
     35 C         -26.7326   -5.0843  -15.5379 C.3     1  UNL1        0.0244
@<TRIPOS>BOND
     1    30    31    1
     2    31    19    1
     3    19    20   ar
     4    20    21   ar
     5    21    22    1
     6    21    23   ar
     7    23    24   ar
     8    24    25   ar
     9    25    26   ar
    10    26    27   ar
    11    27     1    1
    12     1     2    2
    13     1     3   am
    14     3     4    1
    15     4     5    1
    16     5     6    1
    17     6     7    1
    18     7     8    1
    19     6     9    1
    20     9    10    1
    21    10    11   ar
    22    11    12   ar
    23    12    32    1
    24    32    33    1
    25    32    34    1
    26    32    35    1
    27    12    13   ar
    28    13    14   ar
    29    14    15    1
    30    15    16    2
    31    15    17   am
    32    27    28   ar
    33    28    29   ar
    34    29    19   ar
    35    29    24   ar
    36     8     3    1
    37    14    10   ar
    38    17     6    1
    39    17    18    1
@<TRIPOS>MOLECULE
*****
 35 39 0 0 0
SMALL
GASTEIGER

@<TRIPOS>ATOM
      1 C         -18.5218  -10.8412   -9.1477 C.2     1  UNL1        0.2490
      2 O         -17.7072  -11.7997   -9.0517 O.2     1  UNL1       -0.2699
      3 N         -19.2952  -10.6940  -10.3537 N.am    1  UNL1       -0.2760
      4 C         -19.4316   -9.3883  -11.0072 C.3     1  UNL1        0.0954
      5 C         -20.8955   -9.1183  -11.4053 C.3     1  UNL1        0.0399
      6 C         -21.7614  -10.4087  -11.5716 C.3     1  UNL1        0.0645
      7 C         -20.8698  -11.5785  -12.0638 C.3     1  UNL1        0.0399
      8 C         -19.7164  -11.8918  -11.0900 C.3     1  UNL1        0.0954
      9 C         -22.8837  -10.1499  -12.6361 C.3     1  UNL1        0.0477
     10 C         -23.9515   -9.2669  -12.0626 C.ar    1  UNL1        0.0220
     11 C         -24.9058   -8.4867  -12.6725 C.ar    1  UNL1        0.0923
     12 N         -25.7463   -8.0300  -11.7094 N.ar    1  UNL1       -0.2534
     13 N         -25.3828   -8.5224  -10.5281 N.ar    1  UNL1       -0.1651
     14 C         -24.2904   -9.2740  -10.7444 C.ar    1  UNL1        0.1515
     15 C         -23.5450  -10.0740   -9.7853 C.2     1  UNL1        0.2650
     16 O         -23.9264  -10.1940   -8.5912 O.2     1  UNL1       -0.2684
     17 N         -22.3737  -10.7558  -10.2612 N.am    1  UNL1       -0.3023
     18 H         -21.9206  -11.4459   -9.6218 H       1  UNL1        0.1497
     19 C         -17.5387   -9.4993   -4.4696 C.ar    1  UNL1        0.2252
     20 N         -17.7177   -8.6207   -3.4434 N.ar    1  UNL1       -0.2058
     21 C         -18.4944   -7.5128   -3.5649 C.ar    1  UNL1        0.1137
     22 I         -18.7110   -6.2120   -1.9232 I       1  UNL1       -0.0211
     23 C         -19.1471   -7.2421   -4.7683 C.ar    1  UNL1        0.0252
     24 C         -18.9902   -8.1201   -5.8479 C.ar    1  UNL1        0.0064
     25 C         -19.6375   -7.8760   -7.0669 C.ar    1  UNL1        0.0004
     26 C         -19.4832   -8.7621   -8.1360 C.ar    1  UNL1        0.0045
     27 C         -18.6799   -9.9073   -8.0056 C.ar    1  UNL1        0.0537
     28 C         -18.0082  -10.1376   -6.7924 C.ar    1  UNL1        0.0092
     29 C         -18.1706   -9.2629   -5.7053 C.ar    1  UNL1        0.0534
     30 C         -15.3984  -10.7169   -4.7620 C.3     1  UNL1        0.2542
     31 O         -16.7387  -10.6351   -4.2925 O.3     1  UNL1       -0.4561
     32 C         -26.9328   -7.1787  -11.9271 C.3     1  UNL1        0.0867
     33 C         -27.8053   -7.1864  -10.6589 C.3     1  UNL1        0.0244
     34 C         -26.5089   -5.7261  -12.2347 C.3     1  UNL1        0.0244
     35 C         -27.7450   -7.7171  -13.1212 C.3     1  UNL1        0.0244
@<TRIPOS>BOND
     1    30    31    1
     2    31    19    1
     3    19    20   ar
     4    20    21   ar
     5    21    22    1
     6    21    23   ar
     7    23    24   ar
     8    24    25   ar
     9    25    26   ar
    10    26    27   ar
    11    27     1    1
    12     1     2    2
    13     1     3   am
    14     3     4    1
    15     4     5    1
    16     5     6    1
    17     6     7    1
    18     7     8    1
    19     6     9    1
    20     9    10    1
    21    10    11   ar
    22    11    12   ar
    23    12    32    1
    24    32    33    1
    25    32    34    1
    26    32    35    1
    27    12    13   ar
    28    13    14   ar
    29    14    15    1
    30    15    16    2
    31    15    17   am
    32    27    28   ar
    33    28    29   ar
    34    29    19   ar
    35    29    24   ar
    36     8     3    1
    37    14    10   ar
    38    17     6    1
    39    17    18    1
@<TRIPOS>MOLECULE
*****
 35 39 0 0 0
SMALL
GASTEIGER

@<TRIPOS>ATOM
      1 C         -23.9513   -7.6691  -13.6708 C.2     1  UNL1        0.2490
      2 O         -24.8871   -7.0967  -14.2938 O.2     1  UNL1       -0.2699
      3 N         -23.1048   -6.8908  -12.8037 N.am    1  UNL1       -0.2760
      4 C         -21.6464   -7.0387  -12.8425 C.3     1  UNL1        0.0954
      5 C         -21.0615   -7.1367  -11.4202 C.3     1  UNL1        0.0399
      6 C         -21.9684   -6.5118  -10.3113 C.3     1  UNL1        0.0645
      7 C         -22.7737   -5.3243  -10.9004 C.3     1  UNL1        0.0399
      8 C         -23.6726   -5.7476  -12.0792 C.3     1  UNL1        0.0954
      9 C         -21.0696   -5.9786   -9.1420 C.3     1  UNL1        0.0477
     10 C         -20.5309   -7.1229   -8.3362 C.ar    1  UNL1        0.0220
     11 C         -19.4553   -7.2025   -7.4829 C.ar    1  UNL1        0.0923
     12 N         -19.5053   -8.4092   -6.8633 N.ar    1  UNL1       -0.2534
     13 N         -20.5872   -9.0726   -7.2624 N.ar    1  UNL1       -0.1651
     14 C         -21.2098   -8.2892   -8.1589 C.ar    1  UNL1        0.1515
     15 C         -22.4684   -8.5332   -8.8457 C.2     1  UNL1        0.2650
     16 O         -23.1713   -9.5465   -8.5910 O.2     1  UNL1       -0.2684
     17 N         -22.9011   -7.5526   -9.8021 N.am    1  UNL1       -0.3023
     18 H         -23.8672   -7.6439  -10.1874 H       1  UNL1        0.1497
     19 C         -23.1265  -11.6598  -16.5073 C.ar    1  UNL1        0.2252
     20 N         -22.9693  -13.0097  -16.6085 N.ar    1  UNL1       -0.2058
     21 C         -23.0195  -13.8284  -15.5257 C.ar    1  UNL1        0.1137
     22 I         -22.7645  -15.9030  -15.7805 I       1  UNL1       -0.0211
     23 C         -23.2429  -13.2976  -14.2546 C.ar    1  UNL1        0.0252
     24 C         -23.4104  -11.9152  -14.1067 C.ar    1  UNL1        0.0064
     25 C         -23.6409  -11.3548  -12.8428 C.ar    1  UNL1        0.0004
     26 C         -23.8165   -9.9756  -12.7054 C.ar    1  UNL1        0.0045
     27 C         -23.7649   -9.1326  -13.8281 C.ar    1  UNL1        0.0537
     28 C         -23.5057   -9.6910  -15.0919 C.ar    1  UNL1        0.0092
     29 C         -23.3457  -11.0783  -15.2440 C.ar    1  UNL1        0.0534
     30 C         -23.3264  -11.3631  -18.9611 C.3     1  UNL1        0.2542
     31 O         -23.0799  -10.8577  -17.6544 O.3     1  UNL1       -0.4561
     32 C         -18.5573   -8.8995   -5.8431 C.3     1  UNL1        0.0867
     33 C         -17.8373  -10.1514   -6.3761 C.3     1  UNL1        0.0244
     34 C         -17.5051   -7.8177   -5.5160 C.3     1  UNL1        0.0244
     35 C         -19.3212   -9.2488   -4.5510 C.3     1  UNL1        0.0244
@<TRIPOS>BOND
     1    30    31    1
     2    31    19    1
     3    19    20   ar
     4    20    21   ar
     5    21    22    1
     6    21    23   ar
     7    23    24   ar
     8    24    25   ar
     9    25    26   ar
    10    26    27   ar
    11    27     1    1
    12     1     2    2
    13     1     3   am
    14     3     4    1
    15     4     5    1
    16     5     6    1
    17     6     7    1
    18     7     8    1
    19     6     9    1
    20     9    10    1
    21    10    11   ar
    22    11    12   ar
    23    12    32    1
    24    32    33    1
    25    32    34    1
    26    32    35    1
    27    12    13   ar
    28    13    14   ar
    29    14    15    1
    30    15    16    2
    31    15    17   am
    32    27    28   ar
    33    28    29   ar
    34    29    19   ar
    35    29    24   ar
    36     8     3    1
    37    14    10   ar
    38    17     6    1
    39    17    18    1
@<TRIPOS>MOLECULE
*****
 35 39 0 0 0
SMALL
GASTEIGER

@<TRIPOS>ATOM
      1 C         -22.7247   -5.8674  -10.5894 C.2     1  UNL1        0.2490
      2 O         -22.6433   -4.6107  -10.5160 O.2     1  UNL1       -0.2699
      3 N         -23.8087   -6.4596  -11.3300 N.am    1  UNL1       -0.2760
      4 C         -24.5800   -7.5763  -10.7743 C.3     1  UNL1        0.0954
      5 C         -24.7805   -8.6872  -11.8232 C.3     1  UNL1        0.0399
      6 C         -24.6642   -8.1982  -13.3030 C.3     1  UNL1        0.0645
      7 C         -25.1475   -6.7282  -13.4088 C.3     1  UNL1        0.0399
      8 C         -24.3299   -5.7723  -12.5175 C.3     1  UNL1        0.0954
      9 C         -25.5693   -9.0921  -14.2201 C.3     1  UNL1        0.0477
     10 C         -24.9464  -10.4432  -14.4081 C.ar    1  UNL1        0.0220
     11 C         -25.4907  -11.6455  -14.7949 C.ar    1  UNL1        0.0923
     12 N         -24.4706  -12.5198  -14.9889 N.ar    1  UNL1       -0.2534
     13 N         -23.3091  -11.9060  -14.7786 N.ar    1  UNL1       -0.1651
     14 C         -23.6001  -10.6430  -14.4247 C.ar    1  UNL1        0.1515
     15 C         -22.6791   -9.5525  -14.1455 C.2     1  UNL1        0.2650
     16 O         -21.4353   -9.6892  -14.2866 O.2     1  UNL1       -0.2684
     17 N         -23.2451   -8.2967  -13.7377 N.am    1  UNL1       -0.3023
     18 H         -22.6064   -7.4727  -13.6799 H       1  UNL1        0.1497
     19 C         -20.0386  -10.0339  -10.3108 C.ar    1  UNL1        0.2252
     20 N         -19.0858  -10.7699   -9.6723 N.ar    1  UNL1       -0.2058
     21 C         -18.4362  -10.3145   -8.5696 C.ar    1  UNL1        0.1137
     22 I         -16.9775  -11.5237   -7.6510 I       1  UNL1       -0.0211
     23 C         -18.7375   -9.0558   -8.0478 C.ar    1  UNL1        0.0252
     24 C         -19.7111   -8.2674   -8.6734 C.ar    1  UNL1        0.0064
     25 C         -20.0375   -7.0012   -8.1686 C.ar    1  UNL1        0.0004
     26 C         -21.0169   -6.2251   -8.7932 C.ar    1  UNL1        0.0045
     27 C         -21.6871   -6.7004   -9.9329 C.ar    1  UNL1        0.0537
     28 C         -21.3402   -7.9582  -10.4560 C.ar    1  UNL1        0.0092
     29 C         -20.3698   -8.7545   -9.8253 C.ar    1  UNL1        0.0534
     30 C         -20.7424  -11.9429  -11.7283 C.3     1  UNL1        0.2542
     31 O         -20.6908  -10.5515  -11.4369 O.3     1  UNL1       -0.4561
     32 C         -24.6029  -13.9199  -15.4384 C.3     1  UNL1        0.0867
     33 C         -26.0476  -14.3965  -15.2032 C.3     1  UNL1        0.0244
     34 C         -24.2744  -14.0400  -16.9424 C.3     1  UNL1        0.0244
     35 C         -23.6252  -14.8123  -14.6490 C.3     1  UNL1        0.0244
@<TRIPOS>BOND
     1    30    31    1
     2    31    19    1
     3    19    20   ar
     4    20    21   ar
     5    21    22    1
     6    21    23   ar
     7    23    24   ar
     8    24    25   ar
     9    25    26   ar
    10    26    27   ar
    11    27     1    1
    12     1     2    2
    13     1     3   am
    14     3     4    1
    15     4     5    1
    16     5     6    1
    17     6     7    1
    18     7     8    1
    19     6     9    1
    20     9    10    1
    21    10    11   ar
    22    11    12   ar
    23    12    32    1
    24    32    33    1
    25    32    34    1
    26    32    35    1
    27    12    13   ar
    28    13    14   ar
    29    14    15    1
    30    15    16    2
    31    15    17   am
    32    27    28   ar
    33    28    29   ar
    34    29    19   ar
    35    29    24   ar
    36     8     3    1
    37    14    10   ar
    38    17     6    1
    39    17    18    1
@<TRIPOS>MOLECULE
*****
 35 39 0 0 0
SMALL
GASTEIGER

@<TRIPOS>ATOM
      1 C         -21.4096   -7.2378   -9.1527 C.2     1  UNL1        0.2490
      2 O         -21.3624   -6.1863   -8.4574 O.2     1  UNL1       -0.2699
      3 N         -22.5035   -7.4252  -10.0705 N.am    1  UNL1       -0.2760
      4 C         -23.2195   -8.7032  -10.1393 C.3     1  UNL1        0.0954
      5 C         -23.4277   -9.1435  -11.6012 C.3     1  UNL1        0.0399
      6 C         -23.3833   -7.9719  -12.6346 C.3     1  UNL1        0.0645
      7 C         -23.9134   -6.6716  -11.9759 C.3     1  UNL1        0.0399
      8 C         -23.0904   -6.2581  -10.7396 C.3     1  UNL1        0.0954
      9 C         -24.2965   -8.3229  -13.8603 C.3     1  UNL1        0.0477
     10 C         -23.6418   -9.3665  -14.7153 C.ar    1  UNL1        0.0220
     11 C         -24.1650  -10.2342  -15.6452 C.ar    1  UNL1        0.0923
     12 N         -23.1280  -10.8453  -16.2725 N.ar    1  UNL1       -0.2534
     13 N         -21.9778  -10.3690  -15.8031 N.ar    1  UNL1       -0.1651
     14 C         -22.2919   -9.4701  -14.8554 C.ar    1  UNL1        0.1515
     15 C         -21.3933   -8.6278  -14.0818 C.2     1  UNL1        0.2650
     16 O         -20.1525   -8.6189  -14.2957 O.2     1  UNL1       -0.2684
     17 N         -21.9798   -7.7745  -13.0860 N.am    1  UNL1       -0.3023
     18 H         -21.3639   -7.0636  -12.6326 H       1  UNL1        0.1497
     19 C         -18.0665   -9.6923   -6.4229 C.ar    1  UNL1        0.2252
     20 N         -17.0664  -10.6152   -6.3515 N.ar    1  UNL1       -0.2058
     21 C         -16.6435  -11.3112   -7.4387 C.ar    1  UNL1        0.1137
     22 I         -15.0909  -12.7183   -7.2305 I       1  UNL1       -0.0211
     23 C         -17.2316  -11.0912   -8.6849 C.ar    1  UNL1        0.0252
     24 C         -18.2625  -10.1508   -8.8020 C.ar    1  UNL1        0.0064
     25 C         -18.8683   -9.9057  -10.0420 C.ar    1  UNL1        0.0004
     26 C         -19.8896   -8.9588  -10.1519 C.ar    1  UNL1        0.0045
     27 C         -20.3232   -8.2403   -9.0252 C.ar    1  UNL1        0.0537
     28 C         -19.7353   -8.5059   -7.7762 C.ar    1  UNL1        0.0092
     29 C         -18.6953   -9.4428   -7.6577 C.ar    1  UNL1        0.0534
     30 C         -17.5590   -8.2025   -4.5067 C.3     1  UNL1        0.2542
     31 O         -18.4594   -8.9897   -5.2768 O.3     1  UNL1       -0.4561
     32 C         -23.2362  -11.8336  -17.3640 C.3     1  UNL1        0.0867
     33 C         -23.5435  -11.1037  -18.6840 C.3     1  UNL1        0.0244
     34 C         -21.9142  -12.6161  -17.5202 C.3     1  UNL1        0.0244
     35 C         -24.3650  -12.8341  -17.0472 C.3     1  UNL1        0.0244
@<TRIPOS>BOND
     1    30    31    1
     2    31    19    1
     3    19    20   ar
     4    20    21   ar
     5    21    22    1
     6    21    23   ar
     7    23    24   ar
     8    24    25   ar
     9    25    26   ar
    10    26    27   ar
    11    27     1    1
    12     1     2    2
    13     1     3   am
    14     3     4    1
    15     4     5    1
    16     5     6    1
    17     6     7    1
    18     7     8    1
    19     6     9    1
    20     9    10    1
    21    10    11   ar
    22    11    12   ar
    23    12    32    1
    24    32    33    1
    25    32    34    1
    26    32    35    1
    27    12    13   ar
    28    13    14   ar
    29    14    15    1
    30    15    16    2
    31    15    17   am
    32    27    28   ar
    33    28    29   ar
    34    29    19   ar
    35    29    24   ar
    36     8     3    1
    37    14    10   ar
    38    17     6    1
    39    17    18    1
@<TRIPOS>MOLECULE
*****
 35 39 0 0 0
SMALL
GASTEIGER

@<TRIPOS>ATOM
      1 C         -26.6432   -5.9411  -12.0313 C.2     1  UNL1        0.2490
      2 O         -27.4614   -5.4236  -11.2224 O.2     1  UNL1       -0.2699
      3 N         -25.7582   -6.9788  -11.5686 N.am    1  UNL1       -0.2760
      4 C         -24.3301   -6.9556  -11.9010 C.3     1  UNL1        0.0954
      5 C         -23.8470   -8.3429  -12.3662 C.3     1  UNL1        0.0399
      6 C         -24.7319   -9.5295  -11.8649 C.3     1  UNL1        0.0645
      7 C         -25.3458   -9.1789  -10.4843 C.3     1  UNL1        0.0399
      8 C         -26.2197   -7.9098  -10.5320 C.3     1  UNL1        0.0954
      9 C         -23.8437  -10.8126  -11.7088 C.3     1  UNL1        0.0477
     10 C         -23.5013  -11.3757  -13.0558 C.ar    1  UNL1        0.0220
     11 C         -22.4963  -12.2264  -13.4529 C.ar    1  UNL1        0.0923
     12 N         -22.7338  -12.5760  -14.7428 N.ar    1  UNL1       -0.2534
     13 N         -23.8650  -12.0123  -15.1581 N.ar    1  UNL1       -0.1651
     14 C         -24.3305  -11.2819  -14.1310 C.ar    1  UNL1        0.1515
     15 C         -25.5672  -10.5199  -14.0571 C.2     1  UNL1        0.2650
     16 O         -26.4054  -10.5332  -14.9967 O.2     1  UNL1       -0.2684
     17 N         -25.8163   -9.7786  -12.8522 N.am    1  UNL1       -0.3023
     18 H         -26.7618   -9.3525  -12.7314 H       1  UNL1        0.1497
     19 C         -28.8258   -3.6919  -15.8822 C.ar    1  UNL1        0.2252
     20 N         -28.7786   -3.2980  -17.1859 N.ar    1  UNL1       -0.2058
     21 C         -27.6981   -3.5322  -17.9753 C.ar    1  UNL1        0.1137
     22 I         -27.7167   -2.8850  -19.9789 I       1  UNL1       -0.0211
     23 C         -26.5861   -4.2011  -17.4620 C.ar    1  UNL1        0.0252
     24 C         -26.5940   -4.6236  -16.1269 C.ar    1  UNL1        0.0064
     25 C         -25.4931   -5.3017  -15.5859 C.ar    1  UNL1        0.0004
     26 C         -25.5130   -5.7283  -14.2557 C.ar    1  UNL1        0.0045
     27 C         -26.6329   -5.4849  -13.4431 C.ar    1  UNL1        0.0537
     28 C         -27.7258   -4.7802  -13.9772 C.ar    1  UNL1        0.0092
     29 C         -27.7237   -4.3626  -15.3184 C.ar    1  UNL1        0.0534
     30 C         -31.1892   -2.9723  -15.6704 C.3     1  UNL1        0.2542
     31 O         -29.9674   -3.4395  -15.1113 O.3     1  UNL1       -0.4561
     32 C         -21.9165  -13.4992  -15.5550 C.3     1  UNL1        0.0867
     33 C         -20.5621  -13.7271  -14.8599 C.3     1  UNL1        0.0244
     34 C         -22.6319  -14.8581  -15.7160 C.3     1  UNL1        0.0244
     35 C         -21.6884  -12.8950  -16.9544 C.3     1  UNL1        0.0244
@<TRIPOS>BOND
     1    30    31    1
     2    31    19    1
     3    19    20   ar
     4    20    21   ar
     5    21    22    1
     6    21    23   ar
     7    23    24   ar
     8    24    25   ar
     9    25    26   ar
    10    26    27   ar
    11    27     1    1
    12     1     2    2
    13     1     3   am
    14     3     4    1
    15     4     5    1
    16     5     6    1
    17     6     7    1
    18     7     8    1
    19     6     9    1
    20     9    10    1
    21    10    11   ar
    22    11    12   ar
    23    12    32    1
    24    32    33    1
    25    32    34    1
    26    32    35    1
    27    12    13   ar
    28    13    14   ar
    29    14    15    1
    30    15    16    2
    31    15    17   am
    32    27    28   ar
    33    28    29   ar
    34    29    19   ar
    35    29    24   ar
    36     8     3    1
    37    14    10   ar
    38    17     6    1
    39    17    18    1
