@<TRIPOS>MOLECULE
*****
 46 51 0 0 0
SMALL
GASTEIGER

@<TRIPOS>ATOM
      1 C         -64.4521  -52.2324  -24.7132 C.ar    1  UNL1        0.0702
      2 C         -63.8133  -52.5490  -23.5094 C.ar    1  UNL1        0.0191
      3 C         -64.3267  -53.5471  -22.6799 C.ar    1  UNL1        0.0356
      4 C         -65.5031  -54.2249  -23.0500 C.ar    1  UNL1        0.1318
      5 N         -66.1191  -53.8775  -24.2152 N.ar    1  UNL1       -0.2279
      6 C         -65.6353  -52.9119  -25.0403 C.ar    1  UNL1        0.1149
      7 N         -66.0639  -55.2732  -22.2231 N.pl3   1  UNL1       -0.2932
      8 C         -65.7360  -55.3559  -20.7906 C.3     1  UNL1        0.0923
      9 C         -67.0138  -55.3938  -19.9359 C.3     1  UNL1        0.0252
     10 C         -68.1823  -56.1724  -20.6009 C.3     1  UNL1        0.0472
     11 C         -67.6810  -57.1047  -21.7181 C.3     1  UNL1        0.0252
     12 C         -66.9620  -56.2888  -22.8025 C.3     1  UNL1        0.0923
     13 C         -68.9943  -56.9612  -19.5631 C.3     1  UNL1        0.2054
     14 O         -69.4773  -56.0766  -18.5537 O.3     1  UNL1       -0.4755
     15 C         -69.0561  -56.0927  -17.2161 C.ar    1  UNL1        0.1388
     16 C         -69.8790  -56.5534  -16.1717 C.ar    1  UNL1        0.0369
     17 C         -69.4114  -56.5491  -14.8560 C.ar    1  UNL1        0.0033
     18 C         -68.1251  -56.0879  -14.5673 C.ar    1  UNL1        0.0066
     19 C         -67.2891  -55.6239  -15.5969 C.ar    1  UNL1        0.0785
     20 C         -67.7673  -55.6312  -16.9204 C.ar    1  UNL1        0.0433
     21 C         -65.9266  -55.1356  -15.2890 C.2     1  UNL1        0.3381
     22 O         -65.7623  -54.0697  -14.6359 O.2     1  UNL1       -0.2451
     23 O         -64.8111  -55.8500  -15.7187 O.3     1  UNL1       -0.4771
     24 H         -63.8740  -55.5246  -15.5134 H       1  UNL1        0.2954
     25 C         -64.0894  -49.7840  -25.2785 C.2     1  UNL1        0.2839
     26 O         -64.9319  -49.3960  -24.4252 O.2     1  UNL1       -0.2665
     27 N         -63.9237  -51.1860  -25.5461 N.am    1  UNL1       -0.2766
     28 H         -63.4642  -51.4629  -26.4432 H       1  UNL1        0.1553
     29 C         -60.9945  -46.1867  -26.2315 C.ar    1  UNL1        0.1730
     30 C         -60.5412  -45.5220  -27.3957 C.ar    1  UNL1        0.0401
     31 C         -61.0244  -45.8893  -28.6804 C.ar    1  UNL1        0.0032
     32 C         -61.9725  -46.9323  -28.7949 C.ar    1  UNL1        0.0030
     33 C         -62.4003  -47.5678  -27.6297 C.ar    1  UNL1        0.0367
     34 C         -63.2951  -48.6001  -27.4213 C.ar    1  UNL1        0.0203
     35 C         -64.0869  -49.3457  -28.4532 C.3     1  UNL1        0.0345
     36 C         -63.2988  -48.7954  -26.0361 C.ar    1  UNL1        0.1948
     37 O         -62.4701  -47.9446  -25.4581 O.2     1  UNL1       -0.4462
     38 C         -61.9270  -47.2072  -26.3964 C.ar    1  UNL1        0.1788
     39 C         -60.5386  -45.1848  -29.8940 C.ar    1  UNL1        0.0001
     40 C         -59.2057  -45.3328  -30.3222 C.ar    1  UNL1        0.0000
     41 C         -58.7515  -44.6687  -31.4658 C.ar    1  UNL1        0.0000
     42 C         -59.6194  -43.8511  -32.1930 C.ar    1  UNL1        0.0000
     43 C         -60.9440  -43.6962  -31.7785 C.ar    1  UNL1        0.0000
     44 C         -61.4039  -44.3586  -30.6362 C.ar    1  UNL1        0.0000
     45 C         -59.7422  -46.7147  -24.1372 C.3     1  UNL1        0.2526
     46 O         -60.5511  -45.8631  -24.9413 O.3     1  UNL1       -0.4684
@<TRIPOS>BOND
     1    45    46    1
     2    46    29    1
     3    29    30   ar
     4    30    31   ar
     5    31    39    1
     6    39    40   ar
     7    40    41   ar
     8    41    42   ar
     9    42    43   ar
    10    43    44   ar
    11    31    32   ar
    12    32    33   ar
    13    33    34   ar
    14    34    35    1
    15    34    36   ar
    16    36    25    1
    17    25    26    2
    18    25    27   am
    19    27     1    1
    20     1     2   ar
    21     2     3   ar
    22     3     4   ar
    23     4     7    1
    24     7     8    1
    25     8     9    1
    26     9    10    1
    27    10    13    1
    28    13    14    1
    29    14    15    1
    30    15    16   ar
    31    16    17   ar
    32    17    18   ar
    33    18    19   ar
    34    19    21    1
    35    21    22    2
    36    21    23    1
    37    19    20   ar
    38    10    11    1
    39    11    12    1
    40     4     5   ar
    41     5     6   ar
    42    36    37   ar
    43    37    38   ar
    44    38    29   ar
    45    44    39   ar
    46    38    33   ar
    47     6     1   ar
    48    12     7    1
    49    20    15   ar
    50    27    28    1
    51    23    24    1
@<TRIPOS>MOLECULE
*****
 46 51 0 0 0
SMALL
GASTEIGER

@<TRIPOS>ATOM
      1 C         -64.3444  -52.1633  -24.6784 C.ar    1  UNL1        0.0702
      2 C         -63.6590  -52.4999  -23.5061 C.ar    1  UNL1        0.0191
      3 C         -64.1575  -53.4891  -22.6570 C.ar    1  UNL1        0.0356
      4 C         -65.3654  -54.1373  -22.9749 C.ar    1  UNL1        0.1318
      5 N         -66.0257  -53.7706  -24.1097 N.ar    1  UNL1       -0.2279
      6 C         -65.5572  -52.8132  -24.9531 C.ar    1  UNL1        0.1149
      7 N         -65.9127  -55.1755  -22.1265 N.pl3   1  UNL1       -0.2932
      8 C         -65.9293  -55.0181  -20.6632 C.3     1  UNL1        0.0923
      9 C         -67.3473  -55.2236  -20.1046 C.3     1  UNL1        0.0252
     10 C         -68.1639  -56.3036  -20.8666 C.3     1  UNL1        0.0472
     11 C         -67.2511  -57.2341  -21.6848 C.3     1  UNL1        0.0252
     12 C         -66.4497  -56.4185  -22.7100 C.3     1  UNL1        0.0923
     13 C         -69.0477  -57.1180  -19.9105 C.3     1  UNL1        0.2054
     14 O         -68.9434  -56.5910  -18.5892 O.3     1  UNL1       -0.4755
     15 C         -70.0037  -56.0060  -17.8817 C.ar    1  UNL1        0.1388
     16 C         -70.3600  -56.4142  -16.5830 C.ar    1  UNL1        0.0369
     17 C         -71.4244  -55.7985  -15.9213 C.ar    1  UNL1        0.0033
     18 C         -72.1424  -54.7744  -16.5430 C.ar    1  UNL1        0.0066
     19 C         -71.8014  -54.3536  -17.8395 C.ar    1  UNL1        0.0785
     20 C         -70.7275  -54.9787  -18.5000 C.ar    1  UNL1        0.0433
     21 C         -72.5632  -53.2685  -18.4964 C.2     1  UNL1        0.3381
     22 O         -73.8123  -53.1836  -18.3466 O.2     1  UNL1       -0.2451
     23 O         -71.9067  -52.3294  -19.2880 O.3     1  UNL1       -0.4771
     24 H         -72.4187  -51.5827  -19.7422 H       1  UNL1        0.2954
     25 C         -64.0240  -49.7219  -25.2971 C.2     1  UNL1        0.2839
     26 O         -64.8799  -49.3307  -24.4586 O.2     1  UNL1       -0.2665
     27 N         -63.8299  -51.1262  -25.5314 N.am    1  UNL1       -0.2766
     28 H         -63.3587  -51.4146  -26.4188 H       1  UNL1        0.1553
     29 C         -60.9504  -46.1243  -26.3154 C.ar    1  UNL1        0.1730
     30 C         -60.5160  -45.4649  -27.4897 C.ar    1  UNL1        0.0401
     31 C         -61.0180  -45.8396  -28.7650 C.ar    1  UNL1        0.0032
     32 C         -61.9659  -46.8848  -28.8598 C.ar    1  UNL1        0.0030
     33 C         -62.3748  -47.5150  -27.6850 C.ar    1  UNL1        0.0367
     34 C         -63.2645  -48.5477  -27.4577 C.ar    1  UNL1        0.0203
     35 C         -64.0706  -49.2999  -28.4736 C.3     1  UNL1        0.0345
     36 C         -63.2468  -48.7359  -26.0717 C.ar    1  UNL1        0.1948
     37 O         -62.4109  -47.8807  -25.5107 O.2     1  UNL1       -0.4462
     38 C         -61.8834  -47.1473  -26.4609 C.ar    1  UNL1        0.1788
     39 C         -60.5520  -45.1405  -29.9895 C.ar    1  UNL1        0.0001
     40 C         -59.2271  -45.2933  -30.4406 C.ar    1  UNL1        0.0000
     41 C         -58.7916  -44.6342  -31.5943 C.ar    1  UNL1        0.0000
     42 C         -59.6701  -43.8171  -32.3090 C.ar    1  UNL1        0.0000
     43 C         -60.9869  -43.6575  -31.8718 C.ar    1  UNL1        0.0000
     44 C         -61.4282  -44.3148  -30.7192 C.ar    1  UNL1        0.0000
     45 C         -60.5966  -44.4976  -24.4547 C.3     1  UNL1        0.2526
     46 O         -60.4879  -45.7934  -25.0338 O.3     1  UNL1       -0.4684
@<TRIPOS>BOND
     1    45    46    1
     2    46    29    1
     3    29    30   ar
     4    30    31   ar
     5    31    39    1
     6    39    40   ar
     7    40    41   ar
     8    41    42   ar
     9    42    43   ar
    10    43    44   ar
    11    31    32   ar
    12    32    33   ar
    13    33    34   ar
    14    34    35    1
    15    34    36   ar
    16    36    25    1
    17    25    26    2
    18    25    27   am
    19    27     1    1
    20     1     2   ar
    21     2     3   ar
    22     3     4   ar
    23     4     7    1
    24     7     8    1
    25     8     9    1
    26     9    10    1
    27    10    13    1
    28    13    14    1
    29    14    15    1
    30    15    16   ar
    31    16    17   ar
    32    17    18   ar
    33    18    19   ar
    34    19    21    1
    35    21    22    2
    36    21    23    1
    37    19    20   ar
    38    10    11    1
    39    11    12    1
    40     4     5   ar
    41     5     6   ar
    42    36    37   ar
    43    37    38   ar
    44    38    29   ar
    45    44    39   ar
    46    38    33   ar
    47     6     1   ar
    48    12     7    1
    49    20    15   ar
    50    27    28    1
    51    23    24    1
@<TRIPOS>MOLECULE
*****
 46 51 0 0 0
SMALL
GASTEIGER

@<TRIPOS>ATOM
      1 C         -66.4569  -53.8576  -23.7404 C.ar    1  UNL1        0.0702
      2 C         -66.4085  -54.8318  -24.7433 C.ar    1  UNL1        0.0191
      3 C         -67.5148  -55.6462  -24.9894 C.ar    1  UNL1        0.0356
      4 C         -68.6779  -55.4966  -24.2115 C.ar    1  UNL1        0.1318
      5 N         -68.6877  -54.5575  -23.2235 N.ar    1  UNL1       -0.2279
      6 C         -67.6240  -53.7509  -22.9687 C.ar    1  UNL1        0.1149
      7 N         -69.8511  -56.3144  -24.4400 N.pl3   1  UNL1       -0.2932
      8 C         -70.6188  -56.8588  -23.3084 C.3     1  UNL1        0.0923
      9 C         -72.1057  -56.4832  -23.4219 C.3     1  UNL1        0.0252
     10 C         -72.6279  -56.4522  -24.8848 C.3     1  UNL1        0.0472
     11 C         -71.7037  -57.2343  -25.8349 C.3     1  UNL1        0.0252
     12 C         -70.2912  -56.6318  -25.8108 C.3     1  UNL1        0.0923
     13 C         -74.0679  -56.9776  -24.9785 C.3     1  UNL1        0.2054
     14 O         -74.9600  -55.8971  -25.2456 O.3     1  UNL1       -0.4755
     15 C         -74.7953  -54.9700  -26.2849 C.ar    1  UNL1        0.1388
     16 C         -74.5221  -55.3613  -27.6086 C.ar    1  UNL1        0.0369
     17 C         -74.3673  -54.3979  -28.6074 C.ar    1  UNL1        0.0033
     18 C         -74.4822  -53.0402  -28.3001 C.ar    1  UNL1        0.0066
     19 C         -74.7544  -52.6303  -26.9840 C.ar    1  UNL1        0.0785
     20 C         -74.9091  -53.6071  -25.9828 C.ar    1  UNL1        0.0433
     21 C         -74.8757  -51.1916  -26.6605 C.2     1  UNL1        0.3381
     22 O         -75.0728  -50.3456  -27.5744 O.2     1  UNL1       -0.2451
     23 O         -74.7728  -50.7576  -25.3412 O.3     1  UNL1       -0.4771
     24 H         -74.8542  -49.7750  -25.1088 H       1  UNL1        0.2954
     25 C         -64.4927  -52.4458  -24.5115 C.2     1  UNL1        0.2839
     26 O         -64.6109  -52.8208  -25.7090 O.2     1  UNL1       -0.2665
     27 N         -65.3010  -53.0416  -23.4837 N.am    1  UNL1       -0.2766
     28 H         -64.9825  -52.9463  -22.4927 H       1  UNL1        0.1553
     29 C         -60.4828  -50.4224  -22.7078 C.ar    1  UNL1        0.1730
     30 C         -59.9447  -49.1147  -22.6524 C.ar    1  UNL1        0.0401
     31 C         -60.6393  -48.0152  -23.2247 C.ar    1  UNL1        0.0032
     32 C         -61.8858  -48.2324  -23.8562 C.ar    1  UNL1        0.0030
     33 C         -62.3901  -49.5320  -23.8943 C.ar    1  UNL1        0.0367
     34 C         -63.5532  -50.0511  -24.4305 C.ar    1  UNL1        0.0203
     35 C         -64.6394  -49.3085  -25.1491 C.3     1  UNL1        0.0345
     36 C         -63.4929  -51.4213  -24.1551 C.ar    1  UNL1        0.1948
     37 O         -62.3793  -51.7020  -23.5027 O.2     1  UNL1       -0.4462
     38 C         -61.7119  -50.5851  -23.3411 C.ar    1  UNL1        0.1788
     39 C         -60.0622  -46.6485  -23.1611 C.ar    1  UNL1        0.0001
     40 C         -60.8301  -45.5291  -23.5343 C.ar    1  UNL1        0.0000
     41 C         -60.2841  -44.2433  -23.4726 C.ar    1  UNL1        0.0000
     42 C         -58.9691  -44.0601  -23.0396 C.ar    1  UNL1        0.0000
     43 C         -58.1969  -45.1625  -22.6666 C.ar    1  UNL1        0.0000
     44 C         -58.7381  -46.4505  -22.7254 C.ar    1  UNL1        0.0000
     45 C         -59.9768  -52.8668  -22.6577 C.3     1  UNL1        0.2526
     46 O         -59.8395  -51.5408  -22.1587 O.3     1  UNL1       -0.4684
@<TRIPOS>BOND
     1    45    46    1
     2    46    29    1
     3    29    30   ar
     4    30    31   ar
     5    31    39    1
     6    39    40   ar
     7    40    41   ar
     8    41    42   ar
     9    42    43   ar
    10    43    44   ar
    11    31    32   ar
    12    32    33   ar
    13    33    34   ar
    14    34    35    1
    15    34    36   ar
    16    36    25    1
    17    25    26    2
    18    25    27   am
    19    27     1    1
    20     1     2   ar
    21     2     3   ar
    22     3     4   ar
    23     4     7    1
    24     7     8    1
    25     8     9    1
    26     9    10    1
    27    10    13    1
    28    13    14    1
    29    14    15    1
    30    15    16   ar
    31    16    17   ar
    32    17    18   ar
    33    18    19   ar
    34    19    21    1
    35    21    22    2
    36    21    23    1
    37    19    20   ar
    38    10    11    1
    39    11    12    1
    40     4     5   ar
    41     5     6   ar
    42    36    37   ar
    43    37    38   ar
    44    38    29   ar
    45    44    39   ar
    46    38    33   ar
    47     6     1   ar
    48    12     7    1
    49    20    15   ar
    50    27    28    1
    51    23    24    1
@<TRIPOS>MOLECULE
*****
 46 51 0 0 0
SMALL
GASTEIGER

@<TRIPOS>ATOM
      1 C         -66.3542  -53.8015  -23.6852 C.ar    1  UNL1        0.0702
      2 C         -66.3451  -54.8262  -24.6377 C.ar    1  UNL1        0.0191
      3 C         -67.4757  -55.6220  -24.8283 C.ar    1  UNL1        0.0356
      4 C         -68.6237  -55.4020  -24.0447 C.ar    1  UNL1        0.1318
      5 N         -68.5953  -54.4141  -23.1059 N.ar    1  UNL1       -0.2279
      6 C         -67.5074  -53.6246  -22.9056 C.ar    1  UNL1        0.1149
      7 N         -69.8209  -56.1984  -24.2167 N.pl3   1  UNL1       -0.2932
      8 C         -70.6609  -56.5506  -23.0605 C.3     1  UNL1        0.0923
      9 C         -72.1232  -56.1383  -23.2980 C.3     1  UNL1        0.0252
     10 C         -72.5790  -56.2912  -24.7754 C.3     1  UNL1        0.0472
     11 C         -71.6497  -57.2324  -25.5623 C.3     1  UNL1        0.0252
     12 C         -70.2143  -56.6865  -25.5512 C.3     1  UNL1        0.0923
     13 C         -74.0355  -56.7694  -24.8673 C.3     1  UNL1        0.2054
     14 O         -74.8425  -55.7503  -25.4544 O.3     1  UNL1       -0.4755
     15 C         -74.4708  -54.9885  -26.5717 C.ar    1  UNL1        0.1388
     16 C         -74.2704  -53.5973  -26.5032 C.ar    1  UNL1        0.0369
     17 C         -73.9001  -52.8847  -27.6456 C.ar    1  UNL1        0.0033
     18 C         -73.7263  -53.5468  -28.8630 C.ar    1  UNL1        0.0066
     19 C         -73.9222  -54.9354  -28.9508 C.ar    1  UNL1        0.0785
     20 C         -74.2953  -55.6468  -27.7954 C.ar    1  UNL1        0.0433
     21 C         -73.7376  -55.6350  -30.2415 C.2     1  UNL1        0.3381
     22 O         -73.5449  -54.9798  -31.3015 O.2     1  UNL1       -0.2451
     23 O         -73.7753  -57.0259  -30.2978 O.3     1  UNL1       -0.4771
     24 H         -73.6502  -57.5148  -31.1762 H       1  UNL1        0.2954
     25 C         -64.4456  -52.3653  -24.5454 C.2     1  UNL1        0.2839
     26 O         -64.6632  -52.6821  -25.7458 O.2     1  UNL1       -0.2665
     27 N         -65.1739  -53.0050  -23.4848 N.am    1  UNL1       -0.2766
     28 H         -64.7758  -52.9587  -22.5194 H       1  UNL1        0.1553
     29 C         -60.2532  -50.4600  -23.0551 C.ar    1  UNL1        0.1730
     30 C         -59.7119  -49.1564  -22.9542 C.ar    1  UNL1        0.0401
     31 C         -60.4675  -48.0200  -23.3498 C.ar    1  UNL1        0.0032
     32 C         -61.7788  -48.1961  -23.8491 C.ar    1  UNL1        0.0030
     33 C         -62.2846  -49.4927  -23.9361 C.ar    1  UNL1        0.0367
     34 C         -63.5021  -49.9768  -24.3757 C.ar    1  UNL1        0.0203
     35 C         -64.6639  -49.1877  -24.9004 C.3     1  UNL1        0.0345
     36 C         -63.4109  -51.3643  -24.2232 C.ar    1  UNL1        0.1948
     37 O         -62.2293  -51.6874  -23.7290 O.2     1  UNL1       -0.4462
     38 C         -61.5473  -50.5814  -23.5537 C.ar    1  UNL1        0.1788
     39 C         -59.8864  -46.6579  -23.2405 C.ar    1  UNL1        0.0001
     40 C         -58.5323  -46.4828  -22.8976 C.ar    1  UNL1        0.0000
     41 C         -57.9879  -45.1988  -22.7962 C.ar    1  UNL1        0.0000
     42 C         -58.7861  -44.0780  -23.0347 C.ar    1  UNL1        0.0000
     43 C         -60.1309  -44.2384  -23.3757 C.ar    1  UNL1        0.0000
     44 C         -60.6805  -45.5200  -23.4794 C.ar    1  UNL1        0.0000
     45 C         -60.1094  -52.9231  -22.6728 C.3     1  UNL1        0.2526
     46 O         -59.5511  -51.6137  -22.6782 O.3     1  UNL1       -0.4684
@<TRIPOS>BOND
     1    45    46    1
     2    46    29    1
     3    29    30   ar
     4    30    31   ar
     5    31    39    1
     6    39    40   ar
     7    40    41   ar
     8    41    42   ar
     9    42    43   ar
    10    43    44   ar
    11    31    32   ar
    12    32    33   ar
    13    33    34   ar
    14    34    35    1
    15    34    36   ar
    16    36    25    1
    17    25    26    2
    18    25    27   am
    19    27     1    1
    20     1     2   ar
    21     2     3   ar
    22     3     4   ar
    23     4     7    1
    24     7     8    1
    25     8     9    1
    26     9    10    1
    27    10    13    1
    28    13    14    1
    29    14    15    1
    30    15    16   ar
    31    16    17   ar
    32    17    18   ar
    33    18    19   ar
    34    19    21    1
    35    21    22    2
    36    21    23    1
    37    19    20   ar
    38    10    11    1
    39    11    12    1
    40     4     5   ar
    41     5     6   ar
    42    36    37   ar
    43    37    38   ar
    44    38    29   ar
    45    44    39   ar
    46    38    33   ar
    47     6     1   ar
    48    12     7    1
    49    20    15   ar
    50    27    28    1
    51    23    24    1
@<TRIPOS>MOLECULE
*****
 46 51 0 0 0
SMALL
GASTEIGER

@<TRIPOS>ATOM
      1 C         -64.3085  -52.0803  -24.7013 C.ar    1  UNL1        0.0702
      2 C         -63.6681  -52.3625  -23.4899 C.ar    1  UNL1        0.0191
      3 C         -64.1833  -53.3330  -22.6292 C.ar    1  UNL1        0.0356
      4 C         -65.3630  -54.0173  -22.9759 C.ar    1  UNL1        0.1318
      5 N         -65.9805  -53.7031  -24.1498 N.ar    1  UNL1       -0.2279
      6 C         -65.4951  -52.7650  -25.0050 C.ar    1  UNL1        0.1149
      7 N         -65.9259  -55.0378  -22.1162 N.pl3   1  UNL1       -0.2932
      8 C         -66.2770  -54.7332  -20.7197 C.3     1  UNL1        0.0923
      9 C         -67.7376  -55.1132  -20.4251 C.3     1  UNL1        0.0252
     10 C         -68.2107  -56.3882  -21.1763 C.3     1  UNL1        0.0472
     11 C         -67.0215  -57.2335  -21.6660 C.3     1  UNL1        0.0252
     12 C         -66.1437  -56.4072  -22.6174 C.3     1  UNL1        0.0923
     13 C         -69.1535  -57.2343  -20.3082 C.3     1  UNL1        0.2054
     14 O         -70.1912  -56.4115  -19.7784 O.3     1  UNL1       -0.4755
     15 C         -71.4690  -56.2837  -20.3420 C.ar    1  UNL1        0.1388
     16 C         -71.7597  -56.7004  -21.6542 C.ar    1  UNL1        0.0369
     17 C         -73.0495  -56.5514  -22.1682 C.ar    1  UNL1        0.0033
     18 C         -74.0592  -55.9882  -21.3845 C.ar    1  UNL1        0.0066
     19 C         -73.7877  -55.5660  -20.0721 C.ar    1  UNL1        0.0785
     20 C         -72.4856  -55.7194  -19.5611 C.ar    1  UNL1        0.0433
     21 C         -74.8587  -54.9696  -19.2435 C.2     1  UNL1        0.3381
     22 O         -75.3365  -53.8394  -19.5338 O.2     1  UNL1       -0.2451
     23 O         -75.3496  -55.6519  -18.1332 O.3     1  UNL1       -0.4771
     24 H         -76.0826  -55.2526  -17.5592 H       1  UNL1        0.2954
     25 C         -63.9561  -49.6520  -25.3532 C.2     1  UNL1        0.2839
     26 O         -64.8103  -49.2386  -24.5237 O.2     1  UNL1       -0.2665
     27 N         -63.7782  -51.0617  -25.5669 N.am    1  UNL1       -0.2766
     28 H         -63.3073  -51.3684  -26.4482 H       1  UNL1        0.1553
     29 C         -60.7683  -46.1697  -26.4203 C.ar    1  UNL1        0.1730
     30 C         -60.3457  -45.5094  -27.5985 C.ar    1  UNL1        0.0401
     31 C         -60.9054  -45.8415  -28.8615 C.ar    1  UNL1        0.0032
     32 C         -61.8994  -46.8443  -28.9400 C.ar    1  UNL1        0.0030
     33 C         -62.2952  -47.4764  -27.7617 C.ar    1  UNL1        0.0367
     34 C         -63.2199  -48.4746  -27.5202 C.ar    1  UNL1        0.0203
     35 C         -64.0905  -49.1754  -28.5195 C.3     1  UNL1        0.0345
     36 C         -63.1640  -48.6866  -26.1386 C.ar    1  UNL1        0.1948
     37 O         -62.2744  -47.8766  -25.5933 O.2     1  UNL1       -0.4462
     38 C         -61.7483  -47.1501  -26.5495 C.ar    1  UNL1        0.1788
     39 C         -60.4512  -45.1421  -30.0903 C.ar    1  UNL1        0.0001
     40 C         -61.3339  -44.3157  -30.8112 C.ar    1  UNL1        0.0000
     41 C         -60.9030  -43.6579  -31.9675 C.ar    1  UNL1        0.0000
     42 C         -59.5903  -43.8170  -32.4166 C.ar    1  UNL1        0.0000
     43 C         -58.7050  -44.6341  -31.7102 C.ar    1  UNL1        0.0000
     44 C         -59.1301  -45.2936  -30.5528 C.ar    1  UNL1        0.0000
     45 C         -60.8193  -44.9347  -24.2510 C.3     1  UNL1        0.2526
     46 O         -60.2498  -45.8799  -25.1502 O.3     1  UNL1       -0.4684
@<TRIPOS>BOND
     1    45    46    1
     2    46    29    1
     3    29    30   ar
     4    30    31   ar
     5    31    39    1
     6    39    40   ar
     7    40    41   ar
     8    41    42   ar
     9    42    43   ar
    10    43    44   ar
    11    31    32   ar
    12    32    33   ar
    13    33    34   ar
    14    34    35    1
    15    34    36   ar
    16    36    25    1
    17    25    26    2
    18    25    27   am
    19    27     1    1
    20     1     2   ar
    21     2     3   ar
    22     3     4   ar
    23     4     7    1
    24     7     8    1
    25     8     9    1
    26     9    10    1
    27    10    13    1
    28    13    14    1
    29    14    15    1
    30    15    16   ar
    31    16    17   ar
    32    17    18   ar
    33    18    19   ar
    34    19    21    1
    35    21    22    2
    36    21    23    1
    37    19    20   ar
    38    10    11    1
    39    11    12    1
    40     4     5   ar
    41     5     6   ar
    42    36    37   ar
    43    37    38   ar
    44    38    29   ar
    45    44    39   ar
    46    38    33   ar
    47     6     1   ar
    48    12     7    1
    49    20    15   ar
    50    27    28    1
    51    23    24    1
@<TRIPOS>MOLECULE
*****
 46 51 0 0 0
SMALL
GASTEIGER

@<TRIPOS>ATOM
      1 C         -65.5589  -53.3518  -23.0694 C.ar    1  UNL1        0.0702
      2 C         -65.3416  -54.6264  -22.5350 C.ar    1  UNL1        0.0191
      3 C         -66.3839  -55.5525  -22.4734 C.ar    1  UNL1        0.0356
      4 C         -67.6637  -55.1938  -22.9358 C.ar    1  UNL1        0.1318
      5 N         -67.8532  -53.9364  -23.4269 N.ar    1  UNL1       -0.2279
      6 C         -66.8524  -53.0199  -23.5001 C.ar    1  UNL1        0.1149
      7 N         -68.7703  -56.1273  -22.8989 N.pl3   1  UNL1       -0.2932
      8 C         -69.1438  -56.7996  -21.6439 C.3     1  UNL1        0.0923
      9 C         -70.6342  -56.5879  -21.3299 C.3     1  UNL1        0.0252
     10 C         -71.5364  -56.5559  -22.5944 C.3     1  UNL1        0.0472
     11 C         -70.8357  -57.1906  -23.8087 C.3     1  UNL1        0.0252
     12 C         -69.5351  -56.4358  -24.1210 C.3     1  UNL1        0.0923
     13 C         -72.8897  -57.2343  -22.3362 C.3     1  UNL1        0.2054
     14 O         -73.8353  -56.2684  -21.8807 O.3     1  UNL1       -0.4755
     15 C         -74.1386  -56.0288  -20.5325 C.ar    1  UNL1        0.1388
     16 C         -74.9782  -56.8761  -19.7861 C.ar    1  UNL1        0.0369
     17 C         -75.2483  -56.5928  -18.4457 C.ar    1  UNL1        0.0033
     18 C         -74.6878  -55.4677  -17.8369 C.ar    1  UNL1        0.0066
     19 C         -73.8472  -54.6100  -18.5662 C.ar    1  UNL1        0.0785
     20 C         -73.5796  -54.9019  -19.9166 C.ar    1  UNL1        0.0433
     21 C         -73.2544  -53.4185  -17.9194 C.2     1  UNL1        0.3381
     22 O         -72.3754  -53.5481  -17.0247 O.2     1  UNL1       -0.2451
     23 O         -73.6625  -52.1406  -18.2934 O.3     1  UNL1       -0.4771
     24 H         -73.2632  -51.3183  -17.8570 H       1  UNL1        0.2954
     25 C         -63.9373  -51.8461  -24.3140 C.2     1  UNL1        0.2839
     26 O         -64.2147  -52.3621  -25.4299 O.2     1  UNL1       -0.2665
     27 N         -64.4806  -52.4011  -23.1051 N.am    1  UNL1       -0.2766
     28 H         -64.0097  -52.1647  -22.2023 H       1  UNL1        0.1553
     29 C         -61.8887  -47.5799  -25.3291 C.ar    1  UNL1        0.1730
     30 C         -60.8024  -46.8306  -24.8183 C.ar    1  UNL1        0.0401
     31 C         -60.0211  -47.3220  -23.7380 C.ar    1  UNL1        0.0032
     32 C         -60.3339  -48.5780  -23.1682 C.ar    1  UNL1        0.0030
     33 C         -61.4097  -49.2929  -23.6937 C.ar    1  UNL1        0.0367
     34 C         -61.9512  -50.5187  -23.3561 C.ar    1  UNL1        0.0203
     35 C         -61.4942  -51.4540  -22.2773 C.3     1  UNL1        0.0345
     36 C         -63.0191  -50.6936  -24.2426 C.ar    1  UNL1        0.1948
     37 O         -63.1102  -49.6527  -25.0506 O.2     1  UNL1       -0.4462
     38 C         -62.1574  -48.8095  -24.7340 C.ar    1  UNL1        0.1788
     39 C         -58.8852  -46.5244  -23.2103 C.ar    1  UNL1        0.0001
     40 C         -57.7124  -47.1599  -22.7600 C.ar    1  UNL1        0.0000
     41 C         -56.6441  -46.4059  -22.2644 C.ar    1  UNL1        0.0000
     42 C         -56.7336  -45.0133  -22.2120 C.ar    1  UNL1        0.0000
     43 C         -57.8917  -44.3710  -22.6558 C.ar    1  UNL1        0.0000
     44 C         -58.9627  -45.1197  -23.1533 C.ar    1  UNL1        0.0000
     45 C         -63.0613  -47.9544  -27.5013 C.3     1  UNL1        0.2526
     46 O         -62.6902  -47.1419  -26.3930 O.3     1  UNL1       -0.4684
@<TRIPOS>BOND
     1    45    46    1
     2    46    29    1
     3    29    30   ar
     4    30    31   ar
     5    31    39    1
     6    39    40   ar
     7    40    41   ar
     8    41    42   ar
     9    42    43   ar
    10    43    44   ar
    11    31    32   ar
    12    32    33   ar
    13    33    34   ar
    14    34    35    1
    15    34    36   ar
    16    36    25    1
    17    25    26    2
    18    25    27   am
    19    27     1    1
    20     1     2   ar
    21     2     3   ar
    22     3     4   ar
    23     4     7    1
    24     7     8    1
    25     8     9    1
    26     9    10    1
    27    10    13    1
    28    13    14    1
    29    14    15    1
    30    15    16   ar
    31    16    17   ar
    32    17    18   ar
    33    18    19   ar
    34    19    21    1
    35    21    22    2
    36    21    23    1
    37    19    20   ar
    38    10    11    1
    39    11    12    1
    40     4     5   ar
    41     5     6   ar
    42    36    37   ar
    43    37    38   ar
    44    38    29   ar
    45    44    39   ar
    46    38    33   ar
    47     6     1   ar
    48    12     7    1
    49    20    15   ar
    50    27    28    1
    51    23    24    1
@<TRIPOS>MOLECULE
*****
 46 51 0 0 0
SMALL
GASTEIGER

@<TRIPOS>ATOM
      1 C         -63.8862  -51.1098  -24.2847 C.ar    1  UNL1        0.0702
      2 C         -63.1143  -51.9788  -23.5061 C.ar    1  UNL1        0.0191
      3 C         -63.6428  -53.1960  -23.0735 C.ar    1  UNL1        0.0356
      4 C         -64.9653  -53.5407  -23.4088 C.ar    1  UNL1        0.1318
      5 N         -65.7032  -52.6631  -24.1460 N.ar    1  UNL1       -0.2279
      6 C         -65.2083  -51.4745  -24.5813 C.ar    1  UNL1        0.1149
      7 N         -65.5490  -54.7976  -22.9885 N.pl3   1  UNL1       -0.2932
      8 C         -65.1084  -55.4517  -21.7457 C.3     1  UNL1        0.0923
      9 C         -66.3058  -55.7532  -20.8292 C.3     1  UNL1        0.0252
     10 C         -67.5952  -56.1461  -21.6018 C.3     1  UNL1        0.0472
     11 C         -67.2817  -56.5919  -23.0411 C.3     1  UNL1        0.0252
     12 C         -66.5851  -55.4561  -23.8049 C.3     1  UNL1        0.0923
     13 C         -68.3854  -57.2338  -20.8596 C.3     1  UNL1        0.2054
     14 O         -69.7693  -56.8896  -20.8289 O.3     1  UNL1       -0.4755
     15 C         -70.3221  -55.8952  -20.0089 C.ar    1  UNL1        0.1388
     16 C         -70.6668  -54.6210  -20.4964 C.ar    1  UNL1        0.0369
     17 C         -71.2151  -53.6660  -19.6378 C.ar    1  UNL1        0.0033
     18 C         -71.4249  -53.9681  -18.2905 C.ar    1  UNL1        0.0066
     19 C         -71.0867  -55.2349  -17.7855 C.ar    1  UNL1        0.0785
     20 C         -70.5346  -56.1922  -18.6567 C.ar    1  UNL1        0.0433
     21 C         -71.3097  -55.5531  -16.3577 C.2     1  UNL1        0.3381
     22 O         -72.0136  -56.5454  -16.0267 O.2     1  UNL1       -0.2451
     23 O         -70.7434  -54.7579  -15.3646 O.3     1  UNL1       -0.4771
     24 H         -70.8899  -54.9668  -14.3842 H       1  UNL1        0.2954
     25 C         -63.6000  -49.2394  -25.9775 C.2     1  UNL1        0.2839
     26 O         -64.1346  -49.9081  -26.9025 O.2     1  UNL1       -0.2665
     27 N         -63.3353  -49.8493  -24.7036 N.am    1  UNL1       -0.2766
     28 H         -62.6350  -49.3915  -24.0770 H       1  UNL1        0.1553
     29 C         -61.9507  -44.7653  -25.1471 C.ar    1  UNL1        0.1730
     30 C         -61.7634  -43.5948  -25.9202 C.ar    1  UNL1        0.0401
     31 C         -62.0975  -43.5714  -27.3010 C.ar    1  UNL1        0.0032
     32 C         -62.6258  -44.7339  -27.9087 C.ar    1  UNL1        0.0030
     33 C         -62.7992  -45.8712  -27.1208 C.ar    1  UNL1        0.0367
     34 C         -63.2792  -47.1321  -27.4200 C.ar    1  UNL1        0.0203
     35 C         -63.7699  -47.6327  -28.7452 C.3     1  UNL1        0.0345
     36 C         -63.2060  -47.8375  -26.2142 C.ar    1  UNL1        0.1948
     37 O         -62.7202  -47.0588  -25.2644 O.2     1  UNL1       -0.4462
     38 C         -62.4725  -45.8839  -25.7911 C.ar    1  UNL1        0.1788
     39 C         -61.8939  -42.3370  -28.1009 C.ar    1  UNL1        0.0001
     40 C         -62.8846  -41.8936  -28.9976 C.ar    1  UNL1        0.0000
     41 C         -62.6902  -40.7304  -29.7489 C.ar    1  UNL1        0.0000
     42 C         -61.5084  -39.9985  -29.6149 C.ar    1  UNL1        0.0000
     43 C         -60.5180  -40.4279  -28.7287 C.ar    1  UNL1        0.0000
     44 C         -60.7073  -41.5898  -27.9742 C.ar    1  UNL1        0.0000
     45 C         -60.5919  -44.1052  -23.1593 C.3     1  UNL1        0.2526
     46 O         -61.6387  -44.8415  -23.7822 O.3     1  UNL1       -0.4684
@<TRIPOS>BOND
     1    45    46    1
     2    46    29    1
     3    29    30   ar
     4    30    31   ar
     5    31    39    1
     6    39    40   ar
     7    40    41   ar
     8    41    42   ar
     9    42    43   ar
    10    43    44   ar
    11    31    32   ar
    12    32    33   ar
    13    33    34   ar
    14    34    35    1
    15    34    36   ar
    16    36    25    1
    17    25    26    2
    18    25    27   am
    19    27     1    1
    20     1     2   ar
    21     2     3   ar
    22     3     4   ar
    23     4     7    1
    24     7     8    1
    25     8     9    1
    26     9    10    1
    27    10    13    1
    28    13    14    1
    29    14    15    1
    30    15    16   ar
    31    16    17   ar
    32    17    18   ar
    33    18    19   ar
    34    19    21    1
    35    21    22    2
    36    21    23    1
    37    19    20   ar
    38    10    11    1
    39    11    12    1
    40     4     5   ar
    41     5     6   ar
    42    36    37   ar
    43    37    38   ar
    44    38    29   ar
    45    44    39   ar
    46    38    33   ar
    47     6     1   ar
    48    12     7    1
    49    20    15   ar
    50    27    28    1
    51    23    24    1
@<TRIPOS>MOLECULE
*****
 46 51 0 0 0
SMALL
GASTEIGER

@<TRIPOS>ATOM
      1 C         -64.7799  -52.6834  -24.4596 C.ar    1  UNL1        0.0702
      2 C         -65.1252  -53.3568  -25.6363 C.ar    1  UNL1        0.0191
      3 C         -66.0865  -54.3684  -25.6139 C.ar    1  UNL1        0.0356
      4 C         -66.6973  -54.7232  -24.3968 C.ar    1  UNL1        0.1318
      5 N         -66.3223  -54.0686  -23.2614 N.ar    1  UNL1       -0.2279
      6 C         -65.3918  -53.0780  -23.2601 C.ar    1  UNL1        0.1149
      7 N         -67.7060  -55.7602  -24.3308 N.pl3   1  UNL1       -0.2932
      8 C         -68.1520  -56.2923  -23.0330 C.3     1  UNL1        0.0923
      9 C         -69.6817  -56.2069  -22.9007 C.3     1  UNL1        0.0252
     10 C         -70.4347  -56.4484  -24.2381 C.3     1  UNL1        0.0472
     11 C         -69.5439  -57.1610  -25.2712 C.3     1  UNL1        0.0252
     12 C         -68.2952  -56.3158  -25.5628 C.3     1  UNL1        0.0923
     13 C         -71.7368  -57.2317  -24.0161 C.3     1  UNL1        0.2054
     14 O         -72.8467  -56.3358  -24.0235 O.3     1  UNL1       -0.4755
     15 C         -73.5174  -55.9123  -25.1801 C.ar    1  UNL1        0.1388
     16 C         -74.4228  -56.7378  -25.8721 C.ar    1  UNL1        0.0369
     17 C         -75.0653  -56.2676  -27.0192 C.ar    1  UNL1        0.0033
     18 C         -74.8142  -54.9760  -27.4876 C.ar    1  UNL1        0.0066
     19 C         -73.9133  -54.1372  -26.8101 C.ar    1  UNL1        0.0785
     20 C         -73.2696  -54.6181  -25.6548 C.ar    1  UNL1        0.0433
     21 C         -73.6487  -52.7692  -27.3079 C.2     1  UNL1        0.3381
     22 O         -74.2712  -52.3221  -28.3090 O.2     1  UNL1       -0.2451
     23 O         -72.7077  -51.9614  -26.6743 O.3     1  UNL1       -0.4771
     24 H         -72.5188  -51.0234  -27.0070 H       1  UNL1        0.2954
     25 C         -63.9976  -50.3237  -24.9750 C.2     1  UNL1        0.2839
     26 O         -65.0389  -50.0533  -25.6317 O.2     1  UNL1       -0.2665
     27 N         -63.7713  -51.6590  -24.4950 N.am    1  UNL1       -0.2766
     28 H         -62.7953  -51.9274  -24.2342 H       1  UNL1        0.1553
     29 C         -61.5204  -46.1889  -25.4150 C.ar    1  UNL1        0.1730
     30 C         -60.4045  -45.6030  -24.7714 C.ar    1  UNL1        0.0401
     31 C         -59.7366  -46.2757  -23.7130 C.ar    1  UNL1        0.0032
     32 C         -60.1935  -47.5486  -23.2999 C.ar    1  UNL1        0.0030
     33 C         -61.2950  -48.0999  -23.9536 C.ar    1  UNL1        0.0367
     34 C         -61.9628  -49.2972  -23.7793 C.ar    1  UNL1        0.0203
     35 C         -61.6566  -50.3785  -22.7870 C.3     1  UNL1        0.0345
     36 C         -62.9866  -49.2772  -24.7323 C.ar    1  UNL1        0.1948
     37 O         -62.9359  -48.1541  -25.4257 O.2     1  UNL1       -0.4462
     38 C         -61.9327  -47.4425  -24.9715 C.ar    1  UNL1        0.1788
     39 C         -58.5681  -45.6484  -23.0450 C.ar    1  UNL1        0.0001
     40 C         -58.4782  -44.2486  -22.9256 C.ar    1  UNL1        0.0000
     41 C         -57.3769  -43.6610  -22.2954 C.ar    1  UNL1        0.0000
     42 C         -56.3554  -44.4610  -21.7789 C.ar    1  UNL1        0.0000
     43 C         -56.4329  -45.8509  -21.8910 C.ar    1  UNL1        0.0000
     44 C         -57.5322  -46.4440  -22.5194 C.ar    1  UNL1        0.0000
     45 C         -62.1228  -45.9663  -27.8277 C.3     1  UNL1        0.2526
     46 O         -62.2142  -45.5688  -26.4639 O.3     1  UNL1       -0.4684
@<TRIPOS>BOND
     1    45    46    1
     2    46    29    1
     3    29    30   ar
     4    30    31   ar
     5    31    39    1
     6    39    40   ar
     7    40    41   ar
     8    41    42   ar
     9    42    43   ar
    10    43    44   ar
    11    31    32   ar
    12    32    33   ar
    13    33    34   ar
    14    34    35    1
    15    34    36   ar
    16    36    25    1
    17    25    26    2
    18    25    27   am
    19    27     1    1
    20     1     2   ar
    21     2     3   ar
    22     3     4   ar
    23     4     7    1
    24     7     8    1
    25     8     9    1
    26     9    10    1
    27    10    13    1
    28    13    14    1
    29    14    15    1
    30    15    16   ar
    31    16    17   ar
    32    17    18   ar
    33    18    19   ar
    34    19    21    1
    35    21    22    2
    36    21    23    1
    37    19    20   ar
    38    10    11    1
    39    11    12    1
    40     4     5   ar
    41     5     6   ar
    42    36    37   ar
    43    37    38   ar
    44    38    29   ar
    45    44    39   ar
    46    38    33   ar
    47     6     1   ar
    48    12     7    1
    49    20    15   ar
    50    27    28    1
    51    23    24    1
@<TRIPOS>MOLECULE
*****
 46 51 0 0 0
SMALL
GASTEIGER

@<TRIPOS>ATOM
      1 C         -63.4742  -41.7593  -22.1777 C.ar    1  UNL1        0.0702
      2 C         -63.1113  -42.9602  -21.5586 C.ar    1  UNL1        0.0191
      3 C         -62.5254  -43.9871  -22.3002 C.ar    1  UNL1        0.0356
      4 C         -62.3159  -43.8179  -23.6815 C.ar    1  UNL1        0.1318
      5 N         -62.7036  -42.6478  -24.2634 N.ar    1  UNL1       -0.2279
      6 C         -63.2722  -41.6330  -23.5605 C.ar    1  UNL1        0.1149
      7 N         -61.7026  -44.8542  -24.4860 N.pl3   1  UNL1       -0.2932
      8 C         -62.5313  -45.8281  -25.2147 C.3     1  UNL1        0.0923
      9 C         -62.1570  -45.8610  -26.7059 C.3     1  UNL1        0.0252
     10 C         -60.6408  -45.6480  -26.9700 C.3     1  UNL1        0.0472
     11 C         -59.8015  -45.9118  -25.7073 C.3     1  UNL1        0.0252
     12 C         -60.2353  -44.9650  -24.5786 C.3     1  UNL1        0.0923
     13 C         -60.1469  -46.5147  -28.1376 C.3     1  UNL1        0.2054
     14 O         -59.2551  -45.7600  -28.9560 O.3     1  UNL1       -0.4755
     15 C         -59.6210  -45.1220  -30.1501 C.ar    1  UNL1        0.1388
     16 C         -58.7831  -45.0988  -31.2803 C.ar    1  UNL1        0.0369
     17 C         -59.1951  -44.4497  -32.4460 C.ar    1  UNL1        0.0033
     18 C         -60.4404  -43.8195  -32.4985 C.ar    1  UNL1        0.0066
     19 C         -61.2906  -43.8320  -31.3800 C.ar    1  UNL1        0.0785
     20 C         -60.8686  -44.4881  -30.2087 C.ar    1  UNL1        0.0433
     21 C         -62.6095  -43.1638  -31.4376 C.2     1  UNL1        0.3381
     22 O         -63.0373  -42.6871  -32.5236 O.2     1  UNL1       -0.2451
     23 O         -63.3920  -43.0547  -30.2907 O.3     1  UNL1       -0.4771
     24 H         -64.2963  -42.5992  -30.3191 H       1  UNL1        0.2954
     25 C         -63.4170  -39.5397  -20.9465 C.2     1  UNL1        0.2839
     26 O         -62.1588  -39.4774  -20.9857 O.2     1  UNL1       -0.2665
     27 N         -64.0976  -40.7193  -21.4046 N.am    1  UNL1       -0.2766
     28 H         -65.0817  -40.8721  -21.0868 H       1  UNL1        0.1553
     29 C         -64.4530  -35.4264  -18.6153 C.ar    1  UNL1        0.1730
     30 C         -65.6250  -34.6778  -18.3535 C.ar    1  UNL1        0.0401
     31 C         -66.8911  -35.1152  -18.8275 C.ar    1  UNL1        0.0032
     32 C         -66.9792  -36.3160  -19.5692 C.ar    1  UNL1        0.0030
     33 C         -65.8069  -37.0317  -19.8103 C.ar    1  UNL1        0.0367
     34 C         -65.5741  -38.2118  -20.4907 C.ar    1  UNL1        0.0203
     35 C         -66.5800  -39.0814  -21.1833 C.3     1  UNL1        0.0345
     36 C         -64.1937  -38.4155  -20.3905 C.ar    1  UNL1        0.1948
     37 O         -63.6413  -37.4330  -19.7019 O.2     1  UNL1       -0.4462
     38 C         -64.5914  -36.6005  -19.3504 C.ar    1  UNL1        0.1788
     39 C         -68.1127  -34.3189  -18.5473 C.ar    1  UNL1        0.0001
     40 C         -69.3466  -34.6739  -19.1248 C.ar    1  UNL1        0.0000
     41 C         -70.4954  -33.9224  -18.8584 C.ar    1  UNL1        0.0000
     42 C         -70.4263  -32.8110  -18.0156 C.ar    1  UNL1        0.0000
     43 C         -69.2082  -32.4486  -17.4366 C.ar    1  UNL1        0.0000
     44 C         -68.0564  -33.1969  -17.6987 C.ar    1  UNL1        0.0000
     45 C         -62.0154  -35.0353  -18.9880 C.3     1  UNL1        0.2526
     46 O         -63.1805  -35.0403  -18.1704 O.3     1  UNL1       -0.4684
@<TRIPOS>BOND
     1    45    46    1
     2    46    29    1
     3    29    30   ar
     4    30    31   ar
     5    31    39    1
     6    39    40   ar
     7    40    41   ar
     8    41    42   ar
     9    42    43   ar
    10    43    44   ar
    11    31    32   ar
    12    32    33   ar
    13    33    34   ar
    14    34    35    1
    15    34    36   ar
    16    36    25    1
    17    25    26    2
    18    25    27   am
    19    27     1    1
    20     1     2   ar
    21     2     3   ar
    22     3     4   ar
    23     4     7    1
    24     7     8    1
    25     8     9    1
    26     9    10    1
    27    10    13    1
    28    13    14    1
    29    14    15    1
    30    15    16   ar
    31    16    17   ar
    32    17    18   ar
    33    18    19   ar
    34    19    21    1
    35    21    22    2
    36    21    23    1
    37    19    20   ar
    38    10    11    1
    39    11    12    1
    40     4     5   ar
    41     5     6   ar
    42    36    37   ar
    43    37    38   ar
    44    38    29   ar
    45    44    39   ar
    46    38    33   ar
    47     6     1   ar
    48    12     7    1
    49    20    15   ar
    50    27    28    1
    51    23    24    1
