@<TRIPOS>MOLECULE
*****
 43 47 0 0 0
SMALL
GASTEIGER

@<TRIPOS>ATOM
      1 C         -61.0275  -44.9027  -27.1682 C.3     1  UNL1        0.2392
      2 O         -60.3225  -44.8491  -25.9231 O.3     1  UNL1       -0.4694
      3 C         -60.8296  -44.1423  -24.8294 C.ar    1  UNL1        0.1723
      4 C         -60.0201  -43.8538  -23.7287 C.ar    1  UNL1        0.0398
      5 C         -60.5362  -43.1165  -22.6581 C.ar    1  UNL1        0.0026
      6 C         -61.8726  -42.6734  -22.6762 C.ar    1  UNL1        0.0233
      7 C         -62.6804  -42.9723  -23.7879 C.ar    1  UNL1        0.0393
      8 C         -62.1640  -43.7208  -24.8492 C.ar    1  UNL1        0.1725
      9 O         -62.9676  -44.0563  -25.9421 O.3     1  UNL1       -0.4679
     10 C         -62.5513  -45.0330  -26.9025 C.3     1  UNL1        0.2305
     11 C         -62.4213  -41.8429  -21.5402 C.3     1  UNL1        0.2223
     12 O         -62.1877  -40.4577  -21.7952 O.3     1  UNL1       -0.4715
     13 C         -62.7811  -39.4613  -21.0148 C.ar    1  UNL1        0.1477
     14 C         -62.2791  -38.1657  -21.0662 C.ar    1  UNL1        0.0737
     15 C         -62.8558  -37.1397  -20.2986 C.ar    1  UNL1        0.1406
     16 C         -63.9315  -37.4370  -19.4243 C.ar    1  UNL1        0.0456
     17 C         -64.3899  -38.7783  -19.3251 C.ar    1  UNL1        0.1433
     18 C         -63.8771  -39.7670  -20.1973 C.ar    1  UNL1        0.1049
     19 C         -64.5150  -41.1003  -20.3765 C.2     1  UNL1        0.2095
     20 O         -65.6307  -41.3533  -19.8469 O.2     1  UNL1       -0.2884
     21 C         -63.9256  -42.1037  -21.3403 C.3     1  UNL1        0.2169
     22 O         -64.1082  -43.4076  -20.8497 O.3     1  UNL1       -0.3739
     23 H         -65.0288  -43.6845  -21.0984 H       1  UNL1        0.2110
     24 C         -64.5881  -36.3078  -18.6243 C.3     1  UNL1        0.0283
     25 C         -63.5450  -35.3833  -17.9822 C.3     1  UNL1        0.0049
     26 C         -65.6072  -35.5161  -19.4530 C.3     1  UNL1        0.0049
     27 O         -62.3749  -35.8206  -20.3783 O.3     1  UNL1       -0.4715
     28 C         -61.1327  -35.4389  -20.9610 C.3     1  UNL1        0.2525
     29 O         -65.3413  -39.1167  -18.3573 O.3     1  UNL1       -0.4714
     30 C         -65.0689  -40.0808  -17.3419 C.3     1  UNL1        0.2525
     31 C         -63.3593  -44.8657  -28.1689 C.ar    1  UNL1        0.0241
     32 C         -64.0061  -45.9676  -28.7457 C.ar    1  UNL1        0.0026
     33 C         -64.7329  -45.8214  -29.9281 C.ar    1  UNL1        0.0398
     34 C         -64.8220  -44.5668  -30.5600 C.ar    1  UNL1        0.1724
     35 C         -64.1724  -43.4587  -29.9945 C.ar    1  UNL1        0.1722
     36 C         -63.4410  -43.6144  -28.8009 C.ar    1  UNL1        0.0393
     37 O         -65.5439  -44.3815  -31.7498 O.3     1  UNL1       -0.4684
     38 C         -65.6497  -45.3502  -32.7881 C.3     1  UNL1        0.2526
     39 O         -64.2756  -42.2206  -30.6485 O.3     1  UNL1       -0.4684
     40 C         -64.8855  -41.0612  -30.0903 C.3     1  UNL1        0.2526
     41 C         -60.4851  -46.0667  -28.0045 C.3     1  UNL1        0.1897
     42 C         -59.8554  -44.7515  -29.7868 C.3     1  UNL1        0.1743
     43 O         -59.3904  -45.6148  -28.7739 O.3     1  UNL1       -0.3471
@<TRIPOS>BOND
     1    42    43    1
     2    43    41    1
     3    41     1    1
     4     1     2    1
     5     2     3    1
     6     3     4   ar
     7     4     5   ar
     8     5     6   ar
     9     6    11    1
    10    11    12    1
    11    12    13    1
    12    13    14   ar
    13    14    15   ar
    14    15    27    1
    15    27    28    1
    16    15    16   ar
    17    16    24    1
    18    24    25    1
    19    24    26    1
    20    16    17   ar
    21    17    29    1
    22    29    30    1
    23    17    18   ar
    24    18    19    1
    25    19    20    2
    26    19    21    1
    27    21    22    1
    28     6     7   ar
    29     7     8   ar
    30     8     9    1
    31     9    10    1
    32    10    31    1
    33    31    32   ar
    34    32    33   ar
    35    33    34   ar
    36    34    37    1
    37    37    38    1
    38    34    35   ar
    39    35    39    1
    40    39    40    1
    41    35    36   ar
    42    10     1    1
    43    36    31   ar
    44     8     3   ar
    45    21    11    1
    46    18    13   ar
    47    22    23    1
@<TRIPOS>MOLECULE
*****
 43 47 0 0 0
SMALL
GASTEIGER

@<TRIPOS>ATOM
      1 C         -60.6995  -45.1438  -26.9799 C.3     1  UNL1        0.2392
      2 O         -59.9438  -44.8614  -25.7970 O.3     1  UNL1       -0.4694
      3 C         -60.5054  -44.1651  -24.7234 C.ar    1  UNL1        0.1723
      4 C         -59.6982  -43.6463  -23.7089 C.ar    1  UNL1        0.0398
      5 C         -60.2755  -42.9236  -22.6598 C.ar    1  UNL1        0.0026
      6 C         -61.6689  -42.7262  -22.6121 C.ar    1  UNL1        0.0233
      7 C         -62.4731  -43.2559  -23.6370 C.ar    1  UNL1        0.0393
      8 C         -61.8930  -43.9887  -24.6760 C.ar    1  UNL1        0.1725
      9 O         -62.6853  -44.5520  -25.6798 O.3     1  UNL1       -0.4679
     10 C         -62.1560  -45.5178  -26.5946 C.3     1  UNL1        0.2305
     11 C         -62.2913  -41.9123  -21.5024 C.3     1  UNL1        0.2223
     12 O         -62.0728  -40.5215  -21.7398 O.3     1  UNL1       -0.4715
     13 C         -62.7251  -39.5409  -20.9868 C.ar    1  UNL1        0.1477
     14 C         -62.2472  -38.2353  -21.0076 C.ar    1  UNL1        0.0737
     15 C         -62.8826  -37.2247  -20.2664 C.ar    1  UNL1        0.1406
     16 C         -63.9953  -37.5475  -19.4493 C.ar    1  UNL1        0.0456
     17 C         -64.4312  -38.8981  -19.3788 C.ar    1  UNL1        0.1433
     18 C         -63.8550  -39.8722  -20.2276 C.ar    1  UNL1        0.1049
     19 C         -64.4561  -41.2170  -20.4443 C.2     1  UNL1        0.2095
     20 O         -65.5921  -41.4947  -19.9733 O.2     1  UNL1       -0.2884
     21 C         -63.7984  -42.2038  -21.3806 C.3     1  UNL1        0.2169
     22 O         -63.9796  -43.5135  -20.9050 O.3     1  UNL1       -0.3739
     23 H         -64.8805  -43.8073  -21.2015 H       1  UNL1        0.2110
     24 C         -64.7144  -36.4355  -18.6795 C.3     1  UNL1        0.0283
     25 C         -63.7236  -35.4645  -18.0232 C.3     1  UNL1        0.0049
     26 C         -65.7418  -35.6929  -19.5426 C.3     1  UNL1        0.0049
     27 O         -62.4248  -35.8960  -20.3163 O.3     1  UNL1       -0.4715
     28 C         -61.2417  -35.4652  -20.9819 C.3     1  UNL1        0.2525
     29 O         -65.4238  -39.2600  -18.4622 O.3     1  UNL1       -0.4714
     30 C         -65.1304  -40.0500  -17.3113 C.3     1  UNL1        0.2525
     31 C         -63.0542  -45.6034  -27.8073 C.ar    1  UNL1        0.0241
     32 C         -63.6248  -44.4426  -28.3478 C.ar    1  UNL1        0.0026
     33 C         -64.4739  -44.5207  -29.4527 C.ar    1  UNL1        0.0398
     34 C         -64.7728  -45.7665  -30.0357 C.ar    1  UNL1        0.1724
     35 C         -64.2122  -46.9355  -29.4978 C.ar    1  UNL1        0.1722
     36 C         -63.3561  -46.8481  -28.3828 C.ar    1  UNL1        0.0393
     37 O         -65.6221  -45.8843  -31.1473 O.3     1  UNL1       -0.4684
     38 C         -65.4158  -45.2263  -32.3932 C.3     1  UNL1        0.2526
     39 O         -64.5309  -48.1642  -30.0976 O.3     1  UNL1       -0.4684
     40 C         -64.5315  -49.4169  -29.4205 C.3     1  UNL1        0.2526
     41 C         -60.0050  -46.2604  -27.7668 C.3     1  UNL1        0.1897
     42 C         -59.8156  -44.7098  -29.4588 C.3     1  UNL1        0.1743
     43 O         -59.1257  -45.6854  -28.7105 O.3     1  UNL1       -0.3471
@<TRIPOS>BOND
     1    42    43    1
     2    43    41    1
     3    41     1    1
     4     1     2    1
     5     2     3    1
     6     3     4   ar
     7     4     5   ar
     8     5     6   ar
     9     6    11    1
    10    11    12    1
    11    12    13    1
    12    13    14   ar
    13    14    15   ar
    14    15    27    1
    15    27    28    1
    16    15    16   ar
    17    16    24    1
    18    24    25    1
    19    24    26    1
    20    16    17   ar
    21    17    29    1
    22    29    30    1
    23    17    18   ar
    24    18    19    1
    25    19    20    2
    26    19    21    1
    27    21    22    1
    28     6     7   ar
    29     7     8   ar
    30     8     9    1
    31     9    10    1
    32    10    31    1
    33    31    32   ar
    34    32    33   ar
    35    33    34   ar
    36    34    37    1
    37    37    38    1
    38    34    35   ar
    39    35    39    1
    40    39    40    1
    41    35    36   ar
    42    10     1    1
    43    36    31   ar
    44     8     3   ar
    45    21    11    1
    46    18    13   ar
    47    22    23    1
@<TRIPOS>MOLECULE
*****
 43 47 0 0 0
SMALL
GASTEIGER

@<TRIPOS>ATOM
      1 C         -60.7220  -45.1592  -26.9379 C.3     1  UNL1        0.2392
      2 O         -60.4649  -45.4933  -25.5696 O.3     1  UNL1       -0.4694
      3 C         -60.9812  -44.7243  -24.5231 C.ar    1  UNL1        0.1723
      4 C         -60.5010  -44.8774  -23.2209 C.ar    1  UNL1        0.0398
      5 C         -61.0067  -44.0753  -22.1927 C.ar    1  UNL1        0.0026
      6 C         -62.0080  -43.1218  -22.4593 C.ar    1  UNL1        0.0233
      7 C         -62.4872  -42.9782  -23.7737 C.ar    1  UNL1        0.0393
      8 C         -61.9882  -43.7912  -24.7950 C.ar    1  UNL1        0.1725
      9 O         -62.4831  -43.6840  -26.0974 O.3     1  UNL1       -0.4679
     10 C         -62.1874  -44.6708  -27.0917 C.3     1  UNL1        0.2305
     11 C         -62.5277  -42.2265  -21.3595 C.3     1  UNL1        0.2223
     12 O         -62.2821  -40.8595  -21.6902 O.3     1  UNL1       -0.4715
     13 C         -62.8506  -39.8166  -20.9532 C.ar    1  UNL1        0.1477
     14 C         -62.3343  -38.5317  -21.0803 C.ar    1  UNL1        0.0737
     15 C         -62.8859  -37.4601  -20.3579 C.ar    1  UNL1        0.1406
     16 C         -63.9502  -37.6979  -19.4520 C.ar    1  UNL1        0.0456
     17 C         -64.4226  -39.0264  -19.2757 C.ar    1  UNL1        0.1433
     18 C         -63.9363  -40.0655  -20.1034 C.ar    1  UNL1        0.1049
     19 C         -64.5927  -41.3981  -20.2024 C.2     1  UNL1        0.2095
     20 O         -65.7023  -41.6092  -19.6423 O.2     1  UNL1       -0.2884
     21 C         -64.0315  -42.4576  -21.1220 C.3     1  UNL1        0.2169
     22 O         -64.2211  -43.7319  -20.5611 O.3     1  UNL1       -0.3739
     23 H         -65.1489  -44.0096  -20.7802 H       1  UNL1        0.2110
     24 C         -64.5799  -36.5205  -18.7015 C.3     1  UNL1        0.0283
     25 C         -63.5154  -35.5766  -18.1263 C.3     1  UNL1        0.0049
     26 C         -65.6042  -35.7608  -19.5535 C.3     1  UNL1        0.0049
     27 O         -62.3909  -36.1531  -20.5141 O.3     1  UNL1       -0.4715
     28 C         -61.1309  -35.8212  -21.0889 C.3     1  UNL1        0.2525
     29 O         -65.3616  -39.3020  -18.2763 O.3     1  UNL1       -0.4714
     30 C         -65.0751  -40.1979  -17.2039 C.3     1  UNL1        0.2525
     31 C         -62.4463  -44.0919  -28.4638 C.ar    1  UNL1        0.0241
     32 C         -63.2334  -44.7914  -29.3892 C.ar    1  UNL1        0.0026
     33 C         -63.4544  -44.2712  -30.6653 C.ar    1  UNL1        0.0398
     34 C         -62.8857  -43.0399  -31.0418 C.ar    1  UNL1        0.1724
     35 C         -62.0903  -42.3350  -30.1250 C.ar    1  UNL1        0.1722
     36 C         -61.8723  -42.8666  -28.8391 C.ar    1  UNL1        0.0393
     37 O         -63.0860  -42.4854  -32.3159 O.3     1  UNL1       -0.4684
     38 C         -62.6111  -43.0598  -33.5292 C.3     1  UNL1        0.2526
     39 O         -61.5333  -41.1113  -30.5293 O.3     1  UNL1       -0.4684
     40 C         -61.4735  -39.9438  -29.7163 C.3     1  UNL1        0.2526
     41 C         -60.4233  -46.3772  -27.8186 C.3     1  UNL1        0.1897
     42 C         -61.5383  -48.1432  -26.8486 C.3     1  UNL1        0.1743
     43 O         -61.5743  -47.1925  -27.8891 O.3     1  UNL1       -0.3471
@<TRIPOS>BOND
     1    42    43    1
     2    43    41    1
     3    41     1    1
     4     1     2    1
     5     2     3    1
     6     3     4   ar
     7     4     5   ar
     8     5     6   ar
     9     6    11    1
    10    11    12    1
    11    12    13    1
    12    13    14   ar
    13    14    15   ar
    14    15    27    1
    15    27    28    1
    16    15    16   ar
    17    16    24    1
    18    24    25    1
    19    24    26    1
    20    16    17   ar
    21    17    29    1
    22    29    30    1
    23    17    18   ar
    24    18    19    1
    25    19    20    2
    26    19    21    1
    27    21    22    1
    28     6     7   ar
    29     7     8   ar
    30     8     9    1
    31     9    10    1
    32    10    31    1
    33    31    32   ar
    34    32    33   ar
    35    33    34   ar
    36    34    37    1
    37    37    38    1
    38    34    35   ar
    39    35    39    1
    40    39    40    1
    41    35    36   ar
    42    10     1    1
    43    36    31   ar
    44     8     3   ar
    45    21    11    1
    46    18    13   ar
    47    22    23    1
@<TRIPOS>MOLECULE
*****
 43 47 0 0 0
SMALL
GASTEIGER

@<TRIPOS>ATOM
      1 C         -61.9449  -46.6764  -25.8829 C.3     1  UNL1        0.2392
      2 O         -61.6408  -45.2782  -25.9346 O.3     1  UNL1       -0.4694
      3 C         -61.9248  -44.4314  -24.8598 C.ar    1  UNL1        0.1723
      4 C         -61.8957  -43.0442  -25.0173 C.ar    1  UNL1        0.0398
      5 C         -62.2152  -42.2134  -23.9385 C.ar    1  UNL1        0.0026
      6 C         -62.5540  -42.7665  -22.6886 C.ar    1  UNL1        0.0233
      7 C         -62.5769  -44.1647  -22.5398 C.ar    1  UNL1        0.0393
      8 C         -62.2438  -44.9903  -23.6170 C.ar    1  UNL1        0.1725
      9 O         -62.2263  -46.3800  -23.4711 O.3     1  UNL1       -0.4679
     10 C         -61.6387  -47.2274  -24.4644 C.3     1  UNL1        0.2305
     11 C         -62.9386  -41.8733  -21.5329 C.3     1  UNL1        0.2223
     12 O         -62.6021  -40.5188  -21.8339 O.3     1  UNL1       -0.4715
     13 C         -63.0433  -39.4616  -21.0328 C.ar    1  UNL1        0.1477
     14 C         -62.4328  -38.2177  -21.1488 C.ar    1  UNL1        0.0737
     15 C         -62.8556  -37.1327  -20.3624 C.ar    1  UNL1        0.1406
     16 C         -63.8843  -37.3185  -19.4047 C.ar    1  UNL1        0.0456
     17 C         -64.4520  -38.6111  -19.2435 C.ar    1  UNL1        0.1433
     18 C         -64.0972  -39.6548  -20.1302 C.ar    1  UNL1        0.1049
     19 C         -64.8635  -40.9271  -20.2334 C.2     1  UNL1        0.2095
     20 O         -65.9541  -41.0702  -19.6173 O.2     1  UNL1       -0.2884
     21 C         -64.4408  -41.9936  -21.2167 C.3     1  UNL1        0.2169
     22 O         -64.7016  -43.2684  -20.6864 O.3     1  UNL1       -0.3739
     23 H         -65.6594  -43.4641  -20.8604 H       1  UNL1        0.2110
     24 C         -64.3749  -36.1230  -18.5823 C.3     1  UNL1        0.0283
     25 C         -63.2079  -35.2824  -18.0470 C.3     1  UNL1        0.0049
     26 C         -65.3862  -35.2595  -19.3464 C.3     1  UNL1        0.0049
     27 O         -62.2661  -35.8640  -20.5054 O.3     1  UNL1       -0.4715
     28 C         -60.9890  -35.6186  -21.0858 C.3     1  UNL1        0.2525
     29 O         -65.3539  -38.8478  -18.2009 O.3     1  UNL1       -0.4714
     30 C         -65.1308  -39.8722  -17.2336 C.3     1  UNL1        0.2525
     31 C         -62.1518  -48.6379  -24.2860 C.ar    1  UNL1        0.0241
     32 C         -63.3528  -49.0350  -24.8902 C.ar    1  UNL1        0.0026
     33 C         -63.8417  -50.3294  -24.7077 C.ar    1  UNL1        0.0398
     34 C         -63.1381  -51.2517  -23.9105 C.ar    1  UNL1        0.1724
     35 C         -61.9382  -50.8619  -23.2954 C.ar    1  UNL1        0.1722
     36 C         -61.4513  -49.5539  -23.4847 C.ar    1  UNL1        0.0393
     37 O         -63.5987  -52.5618  -23.7042 O.3     1  UNL1       -0.4684
     38 C         -64.8887  -53.0320  -24.0818 C.3     1  UNL1        0.2526
     39 O         -61.2598  -51.8017  -22.5031 O.3     1  UNL1       -0.4684
     40 C         -60.2429  -52.6764  -22.9810 C.3     1  UNL1        0.2526
     41 C         -61.1486  -47.4056  -26.9704 C.3     1  UNL1        0.1897
     42 C         -63.0898  -47.3873  -28.2090 C.3     1  UNL1        0.1743
     43 O         -62.0309  -48.1928  -27.7427 O.3     1  UNL1       -0.3471
@<TRIPOS>BOND
     1    42    43    1
     2    43    41    1
     3    41     1    1
     4     1     2    1
     5     2     3    1
     6     3     4   ar
     7     4     5   ar
     8     5     6   ar
     9     6    11    1
    10    11    12    1
    11    12    13    1
    12    13    14   ar
    13    14    15   ar
    14    15    27    1
    15    27    28    1
    16    15    16   ar
    17    16    24    1
    18    24    25    1
    19    24    26    1
    20    16    17   ar
    21    17    29    1
    22    29    30    1
    23    17    18   ar
    24    18    19    1
    25    19    20    2
    26    19    21    1
    27    21    22    1
    28     6     7   ar
    29     7     8   ar
    30     8     9    1
    31     9    10    1
    32    10    31    1
    33    31    32   ar
    34    32    33   ar
    35    33    34   ar
    36    34    37    1
    37    37    38    1
    38    34    35   ar
    39    35    39    1
    40    39    40    1
    41    35    36   ar
    42    10     1    1
    43    36    31   ar
    44     8     3   ar
    45    21    11    1
    46    18    13   ar
    47    22    23    1
@<TRIPOS>MOLECULE
*****
 43 47 0 0 0
SMALL
GASTEIGER

@<TRIPOS>ATOM
      1 C         -64.9992  -54.6844  -22.9325 C.3     1  UNL1        0.2392
      2 O         -63.8762  -53.9075  -22.5018 O.3     1  UNL1       -0.4694
      3 C         -63.5454  -52.7000  -23.1226 C.ar    1  UNL1        0.1723
      4 C         -62.3053  -52.0985  -22.8980 C.ar    1  UNL1        0.0398
      5 C         -61.9795  -50.9071  -23.5542 C.ar    1  UNL1        0.0026
      6 C         -62.8998  -50.3016  -24.4313 C.ar    1  UNL1        0.0233
      7 C         -64.1473  -50.9138  -24.6478 C.ar    1  UNL1        0.0393
      8 C         -64.4733  -52.0971  -23.9795 C.ar    1  UNL1        0.1725
      9 O         -65.7239  -52.6947  -24.1573 O.3     1  UNL1       -0.4679
     10 C         -66.1792  -53.7434  -23.2955 C.3     1  UNL1        0.2305
     11 C         -62.5358  -49.0368  -25.1723 C.3     1  UNL1        0.2223
     12 O         -63.2953  -48.9452  -26.3777 O.3     1  UNL1       -0.4715
     13 C         -63.3141  -47.7747  -27.1418 C.ar    1  UNL1        0.1477
     14 C         -63.7730  -47.8242  -28.4534 C.ar    1  UNL1        0.0737
     15 C         -63.8099  -46.6651  -29.2469 C.ar    1  UNL1        0.1406
     16 C         -63.3290  -45.4392  -28.7216 C.ar    1  UNL1        0.0456
     17 C         -62.7951  -45.4145  -27.4051 C.ar    1  UNL1        0.1433
     18 C         -62.8830  -46.5637  -26.5847 C.ar    1  UNL1        0.1049
     19 C         -62.6432  -46.5319  -25.1157 C.2     1  UNL1        0.2095
     20 O         -62.4790  -45.4347  -24.5167 O.2     1  UNL1       -0.2884
     21 C         -62.7730  -47.7938  -24.2948 C.3     1  UNL1        0.2169
     22 O         -61.8396  -47.7835  -23.2446 O.3     1  UNL1       -0.3739
     23 H         -62.2358  -47.2452  -22.5102 H       1  UNL1        0.2110
     24 C         -63.4140  -44.1684  -29.5725 C.3     1  UNL1        0.0283
     25 C         -62.5023  -44.2456  -30.8045 C.3     1  UNL1        0.0049
     26 C         -64.8554  -43.8163  -29.9606 C.3     1  UNL1        0.0049
     27 O         -64.3099  -46.7048  -30.5606 O.3     1  UNL1       -0.4715
     28 C         -65.2607  -47.6488  -31.0435 C.3     1  UNL1        0.2525
     29 O         -62.1758  -44.2541  -26.9291 O.3     1  UNL1       -0.4714
     30 C         -60.8117  -43.9573  -27.2219 C.3     1  UNL1        0.2525
     31 C         -67.3075  -54.4903  -23.9690 C.ar    1  UNL1        0.0241
     32 C         -67.0887  -55.1574  -25.1825 C.ar    1  UNL1        0.0026
     33 C         -68.1342  -55.8276  -25.8192 C.ar    1  UNL1        0.0398
     34 C         -69.4233  -55.8385  -25.2542 C.ar    1  UNL1        0.1724
     35 C         -69.6546  -55.1678  -24.0432 C.ar    1  UNL1        0.1722
     36 C         -68.5942  -54.4939  -23.4066 C.ar    1  UNL1        0.0393
     37 O         -70.4991  -56.5018  -25.8656 O.3     1  UNL1       -0.4684
     38 C         -71.1981  -56.0211  -27.0092 C.3     1  UNL1        0.2526
     39 O         -70.9511  -55.1926  -23.5050 O.3     1  UNL1       -0.4684
     40 C         -71.2798  -55.6962  -22.2142 C.3     1  UNL1        0.2526
     41 C         -65.3734  -55.6824  -21.8315 C.3     1  UNL1        0.1897
     42 C         -67.0693  -56.0455  -20.3166 C.3     1  UNL1        0.1743
     43 O         -66.2627  -55.0628  -20.9261 O.3     1  UNL1       -0.3471
@<TRIPOS>BOND
     1    42    43    1
     2    43    41    1
     3    41     1    1
     4     1     2    1
     5     2     3    1
     6     3     4   ar
     7     4     5   ar
     8     5     6   ar
     9     6    11    1
    10    11    12    1
    11    12    13    1
    12    13    14   ar
    13    14    15   ar
    14    15    27    1
    15    27    28    1
    16    15    16   ar
    17    16    24    1
    18    24    25    1
    19    24    26    1
    20    16    17   ar
    21    17    29    1
    22    29    30    1
    23    17    18   ar
    24    18    19    1
    25    19    20    2
    26    19    21    1
    27    21    22    1
    28     6     7   ar
    29     7     8   ar
    30     8     9    1
    31     9    10    1
    32    10    31    1
    33    31    32   ar
    34    32    33   ar
    35    33    34   ar
    36    34    37    1
    37    37    38    1
    38    34    35   ar
    39    35    39    1
    40    39    40    1
    41    35    36   ar
    42    10     1    1
    43    36    31   ar
    44     8     3   ar
    45    21    11    1
    46    18    13   ar
    47    22    23    1
@<TRIPOS>MOLECULE
*****
 43 47 0 0 0
SMALL
GASTEIGER

@<TRIPOS>ATOM
      1 C         -61.6784  -43.9861  -30.2910 C.3     1  UNL1        0.2392
      2 O         -60.7457  -43.2183  -29.5224 O.3     1  UNL1       -0.4694
      3 C         -60.9612  -42.9563  -28.1667 C.ar    1  UNL1        0.1723
      4 C         -60.2136  -41.9831  -27.5004 C.ar    1  UNL1        0.0398
      5 C         -60.4666  -41.7119  -26.1518 C.ar    1  UNL1        0.0026
      6 C         -61.4627  -42.4238  -25.4562 C.ar    1  UNL1        0.0233
      7 C         -62.2074  -43.4043  -26.1357 C.ar    1  UNL1        0.0393
      8 C         -61.9418  -43.6809  -27.4796 C.ar    1  UNL1        0.1725
      9 O         -62.6492  -44.6788  -28.1552 O.3     1  UNL1       -0.4679
     10 C         -62.2224  -45.1606  -29.4341 C.3     1  UNL1        0.2305
     11 C         -61.7658  -42.1056  -24.0112 C.3     1  UNL1        0.2223
     12 O         -63.1742  -41.9533  -23.8332 O.3     1  UNL1       -0.4715
     13 C         -63.7444  -41.8700  -22.5596 C.ar    1  UNL1        0.1477
     14 C         -65.0423  -41.3898  -22.4240 C.ar    1  UNL1        0.0737
     15 C         -65.6470  -41.2983  -21.1589 C.ar    1  UNL1        0.1406
     16 C         -64.9100  -41.6539  -20.0011 C.ar    1  UNL1        0.0456
     17 C         -63.5603  -42.0747  -20.1443 C.ar    1  UNL1        0.1433
     18 C         -63.0157  -42.2766  -21.4343 C.ar    1  UNL1        0.1049
     19 C         -61.7399  -43.0066  -21.6709 C.2     1  UNL1        0.2095
     20 O         -61.1542  -43.5972  -20.7235 O.2     1  UNL1       -0.2884
     21 C         -61.2244  -43.2039  -23.0774 C.3     1  UNL1        0.2169
     22 O         -59.8198  -43.1672  -23.0853 O.3     1  UNL1       -0.3739
     23 H         -59.5049  -44.0722  -22.8252 H       1  UNL1        0.2110
     24 C         -65.5872  -41.5976  -18.6284 C.3     1  UNL1        0.0283
     25 C         -65.5071  -42.9448  -17.8980 C.3     1  UNL1        0.0049
     26 C         -65.0554  -40.4529  -17.7573 C.3     1  UNL1        0.0049
     27 O         -66.9728  -40.8498  -21.0229 O.3     1  UNL1       -0.4715
     28 C         -67.5667  -39.8125  -21.7972 C.3     1  UNL1        0.2525
     29 O         -62.7728  -42.2789  -19.0066 O.3     1  UNL1       -0.4714
     30 C         -61.7143  -41.3890  -18.6569 C.3     1  UNL1        0.2525
     31 C         -63.3740  -45.8659  -30.1130 C.ar    1  UNL1        0.0241
     32 C         -64.1694  -45.1849  -31.0452 C.ar    1  UNL1        0.0026
     33 C         -65.2484  -45.8259  -31.6558 C.ar    1  UNL1        0.0398
     34 C         -65.5553  -47.1628  -31.3401 C.ar    1  UNL1        0.1724
     35 C         -64.7694  -47.8513  -30.4030 C.ar    1  UNL1        0.1722
     36 C         -63.6821  -47.1976  -29.7913 C.ar    1  UNL1        0.0393
     37 O         -66.6322  -47.8401  -31.9339 O.3     1  UNL1       -0.4684
     38 C         -66.6284  -48.3534  -33.2622 C.3     1  UNL1        0.2526
     39 O         -65.1012  -49.1827  -30.1051 O.3     1  UNL1       -0.4684
     40 C         -64.4949  -49.9541  -29.0731 C.3     1  UNL1        0.2526
     41 C         -60.9940  -44.4742  -31.5723 C.3     1  UNL1        0.1897
     42 C         -59.9865  -43.7241  -33.5024 C.3     1  UNL1        0.1743
     43 O         -60.9197  -43.4069  -32.4942 O.3     1  UNL1       -0.3471
@<TRIPOS>BOND
     1    42    43    1
     2    43    41    1
     3    41     1    1
     4     1     2    1
     5     2     3    1
     6     3     4   ar
     7     4     5   ar
     8     5     6   ar
     9     6    11    1
    10    11    12    1
    11    12    13    1
    12    13    14   ar
    13    14    15   ar
    14    15    27    1
    15    27    28    1
    16    15    16   ar
    17    16    24    1
    18    24    25    1
    19    24    26    1
    20    16    17   ar
    21    17    29    1
    22    29    30    1
    23    17    18   ar
    24    18    19    1
    25    19    20    2
    26    19    21    1
    27    21    22    1
    28     6     7   ar
    29     7     8   ar
    30     8     9    1
    31     9    10    1
    32    10    31    1
    33    31    32   ar
    34    32    33   ar
    35    33    34   ar
    36    34    37    1
    37    37    38    1
    38    34    35   ar
    39    35    39    1
    40    39    40    1
    41    35    36   ar
    42    10     1    1
    43    36    31   ar
    44     8     3   ar
    45    21    11    1
    46    18    13   ar
    47    22    23    1
@<TRIPOS>MOLECULE
*****
 43 47 0 0 0
SMALL
GASTEIGER

@<TRIPOS>ATOM
      1 C         -62.9217  -41.5612  -20.0343 C.3     1  UNL1        0.2392
      2 O         -62.4147  -42.7632  -20.6244 O.3     1  UNL1       -0.4694
      3 C         -62.4284  -42.9566  -22.0084 C.ar    1  UNL1        0.1723
      4 C         -62.2059  -44.2225  -22.5542 C.ar    1  UNL1        0.0398
      5 C         -62.2564  -44.4026  -23.9403 C.ar    1  UNL1        0.0026
      6 C         -62.5176  -43.3119  -24.7918 C.ar    1  UNL1        0.0233
      7 C         -62.7369  -42.0406  -24.2320 C.ar    1  UNL1        0.0393
      8 C         -62.6720  -41.8632  -22.8473 C.ar    1  UNL1        0.1725
      9 O         -62.8508  -40.5979  -22.2817 O.3     1  UNL1       -0.4679
     10 C         -62.5294  -40.3413  -20.9104 C.3     1  UNL1        0.2305
     11 C         -62.6127  -43.5105  -26.2861 C.3     1  UNL1        0.2223
     12 O         -63.1777  -44.7904  -26.5703 O.3     1  UNL1       -0.4715
     13 C         -63.5762  -45.1419  -27.8633 C.ar    1  UNL1        0.1477
     14 C         -63.7982  -46.4803  -28.1680 C.ar    1  UNL1        0.0737
     15 C         -64.2045  -46.8669  -29.4564 C.ar    1  UNL1        0.1406
     16 C         -64.3438  -45.8876  -30.4720 C.ar    1  UNL1        0.0456
     17 C         -64.0447  -44.5319  -30.1693 C.ar    1  UNL1        0.1433
     18 C         -63.7586  -44.1514  -28.8372 C.ar    1  UNL1        0.1049
     19 C         -63.7475  -42.7335  -28.3832 C.2     1  UNL1        0.2095
     20 O         -64.1292  -41.8111  -29.1531 O.2     1  UNL1       -0.2884
     21 C         -63.4529  -42.3978  -26.9397 C.3     1  UNL1        0.2169
     22 O         -62.7527  -41.1822  -26.8611 O.3     1  UNL1       -0.3739
     23 H         -63.4275  -40.4555  -26.9097 H       1  UNL1        0.2110
     24 C         -64.8320  -46.3062  -31.8622 C.3     1  UNL1        0.0283
     25 C         -65.6186  -47.6231  -31.8172 C.3     1  UNL1        0.0049
     26 C         -65.6285  -45.1989  -32.5634 C.3     1  UNL1        0.0049
     27 O         -64.4673  -48.2154  -29.7565 O.3     1  UNL1       -0.4715
     28 C         -64.1601  -49.3154  -28.9057 C.3     1  UNL1        0.2525
     29 O         -64.0258  -43.5800  -31.1940 O.3     1  UNL1       -0.4714
     30 C         -62.8121  -43.1909  -31.8346 C.3     1  UNL1        0.2525
     31 C         -63.2273  -39.0782  -20.4607 C.ar    1  UNL1        0.0241
     32 C         -64.5515  -39.1267  -20.0032 C.ar    1  UNL1        0.0026
     33 C         -65.2069  -37.9589  -19.6102 C.ar    1  UNL1        0.0398
     34 C         -64.5487  -36.7163  -19.6725 C.ar    1  UNL1        0.1724
     35 C         -63.2251  -36.6559  -20.1356 C.ar    1  UNL1        0.1722
     36 C         -62.5706  -37.8390  -20.5303 C.ar    1  UNL1        0.0393
     37 O         -65.1753  -35.5210  -19.2856 O.3     1  UNL1       -0.4684
     38 C         -64.9972  -34.8893  -18.0220 C.3     1  UNL1        0.2526
     39 O         -62.5950  -35.4024  -20.1904 O.3     1  UNL1       -0.4684
     40 C         -61.3859  -35.1369  -20.8941 C.3     1  UNL1        0.2526
     41 C         -62.3894  -41.4395  -18.6025 C.3     1  UNL1        0.1897
     42 C         -64.5269  -42.0281  -17.9801 C.3     1  UNL1        0.1743
     43 O         -63.4608  -41.1392  -17.7328 O.3     1  UNL1       -0.3471
@<TRIPOS>BOND
     1    42    43    1
     2    43    41    1
     3    41     1    1
     4     1     2    1
     5     2     3    1
     6     3     4   ar
     7     4     5   ar
     8     5     6   ar
     9     6    11    1
    10    11    12    1
    11    12    13    1
    12    13    14   ar
    13    14    15   ar
    14    15    27    1
    15    27    28    1
    16    15    16   ar
    17    16    24    1
    18    24    25    1
    19    24    26    1
    20    16    17   ar
    21    17    29    1
    22    29    30    1
    23    17    18   ar
    24    18    19    1
    25    19    20    2
    26    19    21    1
    27    21    22    1
    28     6     7   ar
    29     7     8   ar
    30     8     9    1
    31     9    10    1
    32    10    31    1
    33    31    32   ar
    34    32    33   ar
    35    33    34   ar
    36    34    37    1
    37    37    38    1
    38    34    35   ar
    39    35    39    1
    40    39    40    1
    41    35    36   ar
    42    10     1    1
    43    36    31   ar
    44     8     3   ar
    45    21    11    1
    46    18    13   ar
    47    22    23    1
@<TRIPOS>MOLECULE
*****
 43 47 0 0 0
SMALL
GASTEIGER

@<TRIPOS>ATOM
      1 C         -64.1575  -41.2376  -19.3273 C.3     1  UNL1        0.2392
      2 O         -63.7916  -42.5686  -19.7076 O.3     1  UNL1       -0.4694
      3 C         -63.2860  -42.8491  -20.9799 C.ar    1  UNL1        0.1723
      4 C         -63.2033  -44.1646  -21.4408 C.ar    1  UNL1        0.0398
      5 C         -62.7255  -44.4229  -22.7296 C.ar    1  UNL1        0.0026
      6 C         -62.3139  -43.3649  -23.5626 C.ar    1  UNL1        0.0233
      7 C         -62.3980  -42.0439  -23.0874 C.ar    1  UNL1        0.0393
      8 C         -62.8636  -41.7920  -21.7941 C.ar    1  UNL1        0.1725
      9 O         -62.9163  -40.4870  -21.2971 O.3     1  UNL1       -0.4679
     10 C         -63.1316  -40.2264  -19.9059 C.3     1  UNL1        0.2305
     11 C         -61.8353  -43.6370  -24.9691 C.3     1  UNL1        0.2223
     12 O         -62.9535  -43.7371  -25.8511 O.3     1  UNL1       -0.4715
     13 C         -62.7883  -43.7698  -27.2388 C.ar    1  UNL1        0.1477
     14 C         -63.8389  -44.2023  -28.0404 C.ar    1  UNL1        0.0737
     15 C         -63.7077  -44.2422  -29.4389 C.ar    1  UNL1        0.1406
     16 C         -62.4742  -43.8835  -30.0387 C.ar    1  UNL1        0.0456
     17 C         -61.3841  -43.5122  -29.2064 C.ar    1  UNL1        0.1433
     18 C         -61.5778  -43.3606  -27.8133 C.ar    1  UNL1        0.1049
     19 C         -60.5939  -42.6802  -26.9269 C.2     1  UNL1        0.2095
     20 O         -59.5946  -42.0867  -27.4152 O.2     1  UNL1       -0.2884
     21 C         -60.8726  -42.5351  -25.4489 C.3     1  UNL1        0.2169
     22 O         -59.6732  -42.6195  -24.7220 O.3     1  UNL1       -0.3739
     23 H         -59.2545  -41.7195  -24.7483 H       1  UNL1        0.2110
     24 C         -62.3493  -43.8831  -31.5653 C.3     1  UNL1        0.0283
     25 C         -62.9335  -42.6062  -32.1845 C.3     1  UNL1        0.0049
     26 C         -60.9111  -44.1301  -32.0373 C.3     1  UNL1        0.0049
     27 O         -64.7816  -44.6421  -30.2539 O.3     1  UNL1       -0.4715
     28 C         -66.0291  -43.9620  -30.3515 C.3     1  UNL1        0.2525
     29 O         -60.1201  -43.3069  -29.7690 O.3     1  UNL1       -0.4714
     30 C         -59.1279  -44.3316  -29.7797 C.3     1  UNL1        0.2525
     31 C         -63.5901  -38.7970  -19.7296 C.ar    1  UNL1        0.0241
     32 C         -64.8111  -38.5187  -19.0996 C.ar    1  UNL1        0.0026
     33 C         -65.2488  -37.2012  -18.9568 C.ar    1  UNL1        0.0398
     34 C         -64.4725  -36.1347  -19.4479 C.ar    1  UNL1        0.1724
     35 C         -63.2518  -36.4029  -20.0864 C.ar    1  UNL1        0.1722
     36 C         -62.8169  -37.7353  -20.2263 C.ar    1  UNL1        0.0393
     37 O         -64.8801  -34.7971  -19.3224 O.3     1  UNL1       -0.4684
     38 C         -66.0267  -34.3682  -18.5951 C.3     1  UNL1        0.2526
     39 O         -62.5004  -35.3197  -20.5693 O.3     1  UNL1       -0.4684
     40 C         -61.1247  -35.3887  -20.9303 C.3     1  UNL1        0.2526
     41 C         -64.2495  -41.1574  -17.7997 C.3     1  UNL1        0.1897
     42 C         -65.8019  -42.8284  -17.4823 C.3     1  UNL1        0.1743
     43 O         -65.5740  -41.4396  -17.3990 O.3     1  UNL1       -0.3471
@<TRIPOS>BOND
     1    42    43    1
     2    43    41    1
     3    41     1    1
     4     1     2    1
     5     2     3    1
     6     3     4   ar
     7     4     5   ar
     8     5     6   ar
     9     6    11    1
    10    11    12    1
    11    12    13    1
    12    13    14   ar
    13    14    15   ar
    14    15    27    1
    15    27    28    1
    16    15    16   ar
    17    16    24    1
    18    24    25    1
    19    24    26    1
    20    16    17   ar
    21    17    29    1
    22    29    30    1
    23    17    18   ar
    24    18    19    1
    25    19    20    2
    26    19    21    1
    27    21    22    1
    28     6     7   ar
    29     7     8   ar
    30     8     9    1
    31     9    10    1
    32    10    31    1
    33    31    32   ar
    34    32    33   ar
    35    33    34   ar
    36    34    37    1
    37    37    38    1
    38    34    35   ar
    39    35    39    1
    40    39    40    1
    41    35    36   ar
    42    10     1    1
    43    36    31   ar
    44     8     3   ar
    45    21    11    1
    46    18    13   ar
    47    22    23    1
