@<TRIPOS>MOLECULE
*****
 38 42 0 0 0
SMALL
GASTEIGER

@<TRIPOS>ATOM
      1 C         -28.8985   50.7224   -8.5280 C.ar    1  UNL1        0.1317
      2 C         -30.1326   50.5308   -9.1790 C.ar    1  UNL1        0.0286
      3 C         -30.2065   50.5544  -10.5852 C.ar    1  UNL1        0.0777
      4 C         -29.0434   50.7813  -11.3354 C.ar    1  UNL1        0.2967
      5 N         -27.8780   50.9731  -10.6675 N.ar    1  UNL1       -0.1224
      6 C         -26.6508   51.2369  -11.1375 C.ar    1  UNL1        0.3137
      7 C         -25.8150   51.3792  -10.0332 C.ar    1  UNL1        0.1320
      8 N         -26.5268   51.2035   -8.8920 N.ar    1  UNL1       -0.2941
      9 C         -27.7763   50.9520   -9.3295 C.ar    1  UNL1        0.3123
     10 H         -26.2060   51.2491   -7.9623 H       1  UNL1        0.1718
     11 N         -27.5713   49.9358   -4.8645 N.3     1  UNL1       -0.2647
     12 C         -27.3264   51.3564   -5.1992 C.3     1  UNL1        0.0941
     13 C         -28.1762   51.8400   -6.3968 C.3     1  UNL1        0.1084
     14 N         -28.8020   50.7118   -7.0960 N.pl3   1  UNL1       -0.2988
     15 C         -29.5037   49.6724   -6.3314 C.3     1  UNL1        0.1084
     16 C         -29.0178   49.6484   -4.8815 C.3     1  UNL1        0.0941
     17 C         -26.9695   49.5939   -3.5604 C.3     1  UNL1        0.1200
     18 N         -27.5230   46.0184   -2.9020 N.ar    1  UNL1       -0.3129
     19 C         -28.4692   46.6449   -2.1503 C.ar    1  UNL1        0.1785
     20 N         -28.4163   47.9894   -2.2655 N.ar    1  UNL1       -0.2274
     21 C         -27.3977   48.2218   -3.1162 C.ar    1  UNL1        0.0884
     22 C         -26.8499   47.0178   -3.5150 C.ar    1  UNL1        0.0537
     23 C         -25.6649   46.8319   -4.4190 C.3     1  UNL1        0.0514
     24 C         -29.4328   45.9987   -1.2331 C.2     1  UNL1        0.2073
     25 C         -30.7348   45.4276   -1.6978 C.3     1  UNL1        0.0806
     26 O         -29.1613   45.9574   -0.0035 O.2     1  UNL1       -0.2881
     27 C         -25.9627   44.3730   -1.9436 C.3     1  UNL1        0.0265
     28 C         -27.1349   44.6010   -2.8918 C.3     1  UNL1        0.1073
     29 C         -24.3639   51.6862  -10.0455 C.ar    1  UNL1        0.0218
     30 C         -23.7458   52.0881  -11.2387 C.ar    1  UNL1        0.0013
     31 C         -22.3820   52.3848  -11.2702 C.ar    1  UNL1       -0.0042
     32 C         -21.5845   52.2868  -10.1100 C.ar    1  UNL1       -0.0228
     33 C         -22.2181   51.8840   -8.9118 C.ar    1  UNL1       -0.0042
     34 C         -23.5841   51.5879   -8.8827 C.ar    1  UNL1        0.0013
     35 C         -20.0841   52.6377  -10.1847 C.3     1  UNL1        0.0189
     36 C         -19.9156   54.1583  -10.4012 C.3     1  UNL1        0.0044
     37 C         -19.3493   51.9172  -11.3409 C.3     1  UNL1        0.0044
     38 C         -19.3982   52.2293   -8.8638 C.3     1  UNL1        0.0044
@<TRIPOS>BOND
     1    27    28    1
     2    28    18    1
     3    18    19   ar
     4    19    24    1
     5    24    25    1
     6    24    26    2
     7    19    20   ar
     8    20    21   ar
     9    21    17    1
    10    17    11    1
    11    11    12    1
    12    12    13    1
    13    13    14    1
    14    14     1    1
    15     1     2   ar
    16     2     3   ar
    17     3     4   ar
    18     4     5   ar
    19     5     6   ar
    20     6     7   ar
    21     7    29    1
    22    29    30   ar
    23    30    31   ar
    24    31    32   ar
    25    32    35    1
    26    35    36    1
    27    35    37    1
    28    35    38    1
    29    32    33   ar
    30    33    34   ar
    31     7     8   ar
    32     8     9   ar
    33    14    15    1
    34    15    16    1
    35    21    22   ar
    36    22    23    1
    37    22    18   ar
    38    16    11    1
    39     9     1   ar
    40     9     5   ar
    41    34    29   ar
    42     8    10    1
@<TRIPOS>MOLECULE
*****
 38 42 0 0 0
SMALL
GASTEIGER

@<TRIPOS>ATOM
      1 C         -28.6633   50.8322   -8.5776 C.ar    1  UNL1        0.1317
      2 C         -29.8883   50.6221   -9.2398 C.ar    1  UNL1        0.0286
      3 C         -29.9422   50.6010  -10.6470 C.ar    1  UNL1        0.0777
      4 C         -28.7680   50.8020  -11.3873 C.ar    1  UNL1        0.2967
      5 N         -27.6118   51.0131  -10.7092 N.ar    1  UNL1       -0.1224
      6 C         -26.3775   51.2598  -11.1697 C.ar    1  UNL1        0.3137
      7 C         -25.5572   51.4357  -10.0586 C.ar    1  UNL1        0.1320
      8 N         -26.2856   51.2976   -8.9226 N.ar    1  UNL1       -0.2941
      9 C         -27.5293   51.0344   -9.3698 C.ar    1  UNL1        0.3123
     10 H         -25.9780   51.3722   -7.9904 H       1  UNL1        0.1718
     11 N         -27.4307   50.1061   -4.8688 N.3     1  UNL1       -0.2647
     12 C         -27.1057   51.4991   -5.2484 C.3     1  UNL1        0.0941
     13 C         -27.9118   51.9844   -6.4752 C.3     1  UNL1        0.1084
     14 N         -28.5872   50.8670   -7.1447 N.pl3   1  UNL1       -0.2988
     15 C         -29.3540   49.8938   -6.3558 C.3     1  UNL1        0.1084
     16 C         -28.8901   49.8953   -4.8986 C.3     1  UNL1        0.0941
     17 C         -26.8661   49.7791   -3.5445 C.3     1  UNL1        0.1200
     18 N         -27.7766   46.3868   -2.4545 N.ar    1  UNL1       -0.3129
     19 C         -26.6382   46.2085   -3.1792 C.ar    1  UNL1        0.1785
     20 N         -26.1501   47.3675   -3.6713 N.ar    1  UNL1       -0.2274
     21 C         -27.0127   48.3116   -3.2473 C.ar    1  UNL1        0.0884
     22 C         -28.0085   47.7181   -2.4957 C.ar    1  UNL1        0.0537
     23 C         -29.1929   48.4067   -1.8799 C.3     1  UNL1        0.0514
     24 C         -25.9903   44.9170   -3.4944 C.2     1  UNL1        0.2073
     25 C         -25.2295   44.1239   -2.4797 C.3     1  UNL1        0.0806
     26 O         -26.0526   44.4825   -4.6754 O.2     1  UNL1       -0.2881
     27 C         -29.7595   45.0242   -2.9756 C.3     1  UNL1        0.0265
     28 C         -28.7007   45.3694   -1.9342 C.3     1  UNL1        0.1073
     29 C         -24.1055   51.7398  -10.0598 C.ar    1  UNL1        0.0218
     30 C         -23.4630   52.0715  -11.2617 C.ar    1  UNL1        0.0013
     31 C         -22.0982   52.3642  -11.2833 C.ar    1  UNL1       -0.0042
     32 C         -21.3239   52.3323  -10.1038 C.ar    1  UNL1       -0.0228
     33 C         -21.9819   51.9999   -8.8971 C.ar    1  UNL1       -0.0042
     34 C         -23.3489   51.7076   -8.8781 C.ar    1  UNL1        0.0013
     35 C         -19.8215   52.6765  -10.1689 C.3     1  UNL1        0.0189
     36 C         -19.6339   54.2072  -10.0737 C.3     1  UNL1        0.0044
     37 C         -19.1470   52.2040  -11.4795 C.3     1  UNL1        0.0044
     38 C         -19.0909   51.9967   -8.9915 C.3     1  UNL1        0.0044
@<TRIPOS>BOND
     1    27    28    1
     2    28    18    1
     3    18    19   ar
     4    19    24    1
     5    24    25    1
     6    24    26    2
     7    19    20   ar
     8    20    21   ar
     9    21    17    1
    10    17    11    1
    11    11    12    1
    12    12    13    1
    13    13    14    1
    14    14     1    1
    15     1     2   ar
    16     2     3   ar
    17     3     4   ar
    18     4     5   ar
    19     5     6   ar
    20     6     7   ar
    21     7    29    1
    22    29    30   ar
    23    30    31   ar
    24    31    32   ar
    25    32    35    1
    26    35    36    1
    27    35    37    1
    28    35    38    1
    29    32    33   ar
    30    33    34   ar
    31     7     8   ar
    32     8     9   ar
    33    14    15    1
    34    15    16    1
    35    21    22   ar
    36    22    23    1
    37    22    18   ar
    38    16    11    1
    39     9     1   ar
    40     9     5   ar
    41    34    29   ar
    42     8    10    1
@<TRIPOS>MOLECULE
*****
 38 42 0 0 0
SMALL
GASTEIGER

@<TRIPOS>ATOM
      1 C         -29.4502   48.7222   -9.4775 C.ar    1  UNL1        0.1317
      2 C         -30.8006   48.9656   -9.7947 C.ar    1  UNL1        0.0286
      3 C         -31.1664   50.1230  -10.5089 C.ar    1  UNL1        0.0777
      4 C         -30.1772   51.0399  -10.8938 C.ar    1  UNL1        0.2967
      5 N         -28.8903   50.7724  -10.5569 N.ar    1  UNL1       -0.1224
      6 C         -27.7783   51.4889  -10.7722 C.ar    1  UNL1        0.3137
      7 C         -26.7242   50.7857  -10.1954 C.ar    1  UNL1        0.1320
      8 N         -27.1883   49.6438   -9.6292 N.ar    1  UNL1       -0.2941
      9 C         -28.5117   49.6765   -9.8810 C.ar    1  UNL1        0.3123
     10 H         -26.6781   48.9533   -9.1473 H       1  UNL1        0.1718
     11 N         -29.6004   45.6433   -6.9677 N.3     1  UNL1       -0.2647
     12 C         -29.6192   45.1598   -8.3663 C.3     1  UNL1        0.0941
     13 C         -29.1391   46.2313   -9.3721 C.3     1  UNL1        0.1084
     14 N         -29.0565   47.5540   -8.7423 N.pl3   1  UNL1       -0.2988
     15 C         -28.3894   47.7079   -7.4428 C.3     1  UNL1        0.1084
     16 C         -28.3485   46.3740   -6.6960 C.3     1  UNL1        0.0941
     17 C         -29.7860   44.5232   -6.0240 C.3     1  UNL1        0.1200
     18 N         -29.1677   45.6429   -2.5760 N.ar    1  UNL1       -0.3129
     19 C         -27.9635   45.1618   -2.9900 C.ar    1  UNL1        0.1785
     20 N         -27.9994   44.6956   -4.2569 N.ar    1  UNL1       -0.2274
     21 C         -29.2721   44.8839   -4.6568 C.ar    1  UNL1        0.0884
     22 C         -29.9919   45.4699   -3.6336 C.ar    1  UNL1        0.0537
     23 C         -31.4568   45.8017   -3.6488 C.3     1  UNL1        0.0514
     24 C         -26.7309   45.0624   -2.1788 C.2     1  UNL1        0.2073
     25 C         -25.3612   45.1500   -2.7733 C.3     1  UNL1        0.0806
     26 O         -26.8382   44.8614   -0.9396 O.2     1  UNL1       -0.2881
     27 C         -29.5513   47.5624   -1.0832 C.3     1  UNL1        0.0265
     28 C         -29.5784   46.0443   -1.2232 C.3     1  UNL1        0.1073
     29 C         -25.2956   51.1836  -10.1662 C.ar    1  UNL1        0.0218
     30 C         -24.6247   51.4643  -11.3656 C.ar    1  UNL1        0.0013
     31 C         -23.2812   51.8436  -11.3590 C.ar    1  UNL1       -0.0042
     32 C         -22.5573   51.9526  -10.1525 C.ar    1  UNL1       -0.0228
     33 C         -23.2438   51.6705   -8.9489 C.ar    1  UNL1       -0.0042
     34 C         -24.5893   51.2913   -8.9581 C.ar    1  UNL1        0.0013
     35 C         -21.0779   52.3888  -10.1881 C.3     1  UNL1        0.0189
     36 C         -20.2550   51.3707  -11.0088 C.3     1  UNL1        0.0044
     37 C         -20.4383   52.4808   -8.7816 C.3     1  UNL1        0.0044
     38 C         -20.9724   53.7813  -10.8454 C.3     1  UNL1        0.0044
@<TRIPOS>BOND
     1    27    28    1
     2    28    18    1
     3    18    19   ar
     4    19    24    1
     5    24    25    1
     6    24    26    2
     7    19    20   ar
     8    20    21   ar
     9    21    17    1
    10    17    11    1
    11    11    12    1
    12    12    13    1
    13    13    14    1
    14    14     1    1
    15     1     2   ar
    16     2     3   ar
    17     3     4   ar
    18     4     5   ar
    19     5     6   ar
    20     6     7   ar
    21     7    29    1
    22    29    30   ar
    23    30    31   ar
    24    31    32   ar
    25    32    35    1
    26    35    36    1
    27    35    37    1
    28    35    38    1
    29    32    33   ar
    30    33    34   ar
    31     7     8   ar
    32     8     9   ar
    33    14    15    1
    34    15    16    1
    35    21    22   ar
    36    22    23    1
    37    22    18   ar
    38    16    11    1
    39     9     1   ar
    40     9     5   ar
    41    34    29   ar
    42     8    10    1
@<TRIPOS>MOLECULE
*****
 38 42 0 0 0
SMALL
GASTEIGER

@<TRIPOS>ATOM
      1 C         -28.9641   50.3650   -7.6049 C.ar    1  UNL1        0.1317
      2 C         -30.2901   50.2639   -8.0683 C.ar    1  UNL1        0.0286
      3 C         -30.5896   50.4964   -9.4247 C.ar    1  UNL1        0.0777
      4 C         -29.5591   50.8409  -10.3115 C.ar    1  UNL1        0.2967
      5 N         -28.2980   50.9393   -9.8204 N.ar    1  UNL1       -0.1224
      6 C         -27.1584   51.2790  -10.4387 C.ar    1  UNL1        0.3137
      7 C         -26.1531   51.2610   -9.4758 C.ar    1  UNL1        0.1320
      8 N         -26.6743   50.9120   -8.2731 N.ar    1  UNL1       -0.2941
      9 C         -27.9822   50.7197   -8.5347 C.ar    1  UNL1        0.3123
     10 H         -26.2069   50.8207   -7.4114 H       1  UNL1        0.1718
     11 N         -27.9167   48.5026   -4.2529 N.3     1  UNL1       -0.2647
     12 C         -26.8159   49.3784   -4.7125 C.3     1  UNL1        0.0941
     13 C         -27.2865   50.4374   -5.7359 C.3     1  UNL1        0.1084
     14 N         -28.6380   50.1417   -6.2251 N.pl3   1  UNL1       -0.2988
     15 C         -29.7067   49.8099   -5.2737 C.3     1  UNL1        0.1084
     16 C         -29.1182   49.3047   -3.9557 C.3     1  UNL1        0.0941
     17 C         -27.4980   47.7057   -3.0827 C.3     1  UNL1        0.1200
     18 N         -30.4526   46.9465   -1.0288 N.ar    1  UNL1       -0.3129
     19 C         -29.8678   47.9988   -0.3934 C.ar    1  UNL1        0.1785
     20 N         -28.7455   48.4208   -1.0146 N.ar    1  UNL1       -0.2274
     21 C         -28.6128   47.6037   -2.0776 C.ar    1  UNL1        0.0884
     22 C         -29.6592   46.7019   -2.0958 C.ar    1  UNL1        0.0537
     23 C         -29.8610   45.5881   -3.0833 C.3     1  UNL1        0.0514
     24 C         -30.3123   48.6171    0.8744 C.2     1  UNL1        0.2073
     25 C         -29.5777   48.4360    2.1647 C.3     1  UNL1        0.0806
     26 O         -31.3729   49.2973    0.8752 O.2     1  UNL1       -0.2881
     27 C         -31.0789   45.1540    0.5380 C.3     1  UNL1        0.0265
     28 C         -31.5555   46.0934   -0.5645 C.3     1  UNL1        0.1073
     29 C         -24.7179   51.5768   -9.6774 C.ar    1  UNL1        0.0218
     30 C         -23.8153   51.4316   -8.6136 C.ar    1  UNL1        0.0013
     31 C         -22.4602   51.7204   -8.7840 C.ar    1  UNL1       -0.0042
     32 C         -21.9577   52.1692  -10.0241 C.ar    1  UNL1       -0.0228
     33 C         -22.8753   52.3091  -11.0908 C.ar    1  UNL1       -0.0042
     34 C         -24.2318   52.0187  -10.9177 C.ar    1  UNL1        0.0013
     35 C         -20.4507   52.4636  -10.1742 C.3     1  UNL1        0.0189
     36 C         -19.7388   52.2348   -8.8220 C.3     1  UNL1        0.0044
     37 C         -20.1577   53.9178  -10.6161 C.3     1  UNL1        0.0044
     38 C         -19.8495   51.5184  -11.2360 C.3     1  UNL1        0.0044
@<TRIPOS>BOND
     1    27    28    1
     2    28    18    1
     3    18    19   ar
     4    19    24    1
     5    24    25    1
     6    24    26    2
     7    19    20   ar
     8    20    21   ar
     9    21    17    1
    10    17    11    1
    11    11    12    1
    12    12    13    1
    13    13    14    1
    14    14     1    1
    15     1     2   ar
    16     2     3   ar
    17     3     4   ar
    18     4     5   ar
    19     5     6   ar
    20     6     7   ar
    21     7    29    1
    22    29    30   ar
    23    30    31   ar
    24    31    32   ar
    25    32    35    1
    26    35    36    1
    27    35    37    1
    28    35    38    1
    29    32    33   ar
    30    33    34   ar
    31     7     8   ar
    32     8     9   ar
    33    14    15    1
    34    15    16    1
    35    21    22   ar
    36    22    23    1
    37    22    18   ar
    38    16    11    1
    39     9     1   ar
    40     9     5   ar
    41    34    29   ar
    42     8    10    1
@<TRIPOS>MOLECULE
*****
 38 42 0 0 0
SMALL
GASTEIGER

@<TRIPOS>ATOM
      1 C         -28.0499   48.9819   -8.4278 C.ar    1  UNL1        0.1317
      2 C         -29.4333   49.1697   -8.6132 C.ar    1  UNL1        0.0286
      3 C         -29.9086   50.2593   -9.3684 C.ar    1  UNL1        0.0777
      4 C         -28.9949   51.1650   -9.9269 C.ar    1  UNL1        0.2967
      5 N         -27.6717   50.9533   -9.7133 N.ar    1  UNL1       -0.1224
      6 C         -26.6116   51.6753  -10.1021 C.ar    1  UNL1        0.3137
      7 C         -25.4808   51.0430   -9.5925 C.ar    1  UNL1        0.1320
      8 N         -25.8464   49.9389   -8.8945 N.ar    1  UNL1       -0.2941
      9 C         -27.1896   49.9224   -9.0021 C.ar    1  UNL1        0.3123
     10 H         -25.2667   49.2997   -8.4206 H       1  UNL1        0.1718
     11 N         -27.0193   46.7615   -5.2959 N.3     1  UNL1       -0.2647
     12 C         -28.1973   46.1721   -5.9707 C.3     1  UNL1        0.0941
     13 C         -28.3919   46.7121   -7.4062 C.3     1  UNL1        0.1084
     14 N         -27.5441   47.8839   -7.6540 N.pl3   1  UNL1       -0.2988
     15 C         -26.1225   47.8525   -7.2860 C.3     1  UNL1        0.1084
     16 C         -25.8659   46.7920   -6.2145 C.3     1  UNL1        0.0941
     17 C         -26.7020   46.0236   -4.0571 C.3     1  UNL1        0.1200
     18 N         -28.9216   47.3267   -1.4304 N.ar    1  UNL1       -0.3129
     19 C         -29.3181   46.0343   -1.5893 C.ar    1  UNL1        0.1785
     20 N         -28.6034   45.3851   -2.5335 N.ar    1  UNL1       -0.2274
     21 C         -27.7272   46.3004   -2.9913 C.ar    1  UNL1        0.0884
     22 C         -27.9125   47.4907   -2.3151 C.ar    1  UNL1        0.0537
     23 C         -27.1768   48.7780   -2.5553 C.3     1  UNL1        0.0514
     24 C         -30.4411   45.3679   -0.8951 C.2     1  UNL1        0.2073
     25 C         -31.5736   44.7188   -1.6254 C.3     1  UNL1        0.0806
     26 O         -30.4627   45.3766    0.3647 O.2     1  UNL1       -0.2881
     27 C         -30.8455   48.8606   -1.3541 C.3     1  UNL1        0.0265
     28 C         -29.5703   48.3963   -0.6590 C.3     1  UNL1        0.1073
     29 C         -24.0701   51.4736   -9.7494 C.ar    1  UNL1        0.0218
     30 C         -23.2431   51.5788   -8.6214 C.ar    1  UNL1        0.0013
     31 C         -21.9117   51.9791   -8.7485 C.ar    1  UNL1       -0.0042
     32 C         -21.3587   52.2929  -10.0084 C.ar    1  UNL1       -0.0228
     33 C         -22.2000   52.1805  -11.1394 C.ar    1  UNL1       -0.0042
     34 C         -23.5328   51.7790  -11.0096 C.ar    1  UNL1        0.0013
     35 C         -19.8787   52.7174  -10.1067 C.3     1  UNL1        0.0189
     36 C         -19.4547   52.7859  -11.5909 C.3     1  UNL1        0.0044
     37 C         -18.9177   51.7374   -9.3912 C.3     1  UNL1        0.0044
     38 C         -19.7025   54.1072   -9.4589 C.3     1  UNL1        0.0044
@<TRIPOS>BOND
     1    27    28    1
     2    28    18    1
     3    18    19   ar
     4    19    24    1
     5    24    25    1
     6    24    26    2
     7    19    20   ar
     8    20    21   ar
     9    21    17    1
    10    17    11    1
    11    11    12    1
    12    12    13    1
    13    13    14    1
    14    14     1    1
    15     1     2   ar
    16     2     3   ar
    17     3     4   ar
    18     4     5   ar
    19     5     6   ar
    20     6     7   ar
    21     7    29    1
    22    29    30   ar
    23    30    31   ar
    24    31    32   ar
    25    32    35    1
    26    35    36    1
    27    35    37    1
    28    35    38    1
    29    32    33   ar
    30    33    34   ar
    31     7     8   ar
    32     8     9   ar
    33    14    15    1
    34    15    16    1
    35    21    22   ar
    36    22    23    1
    37    22    18   ar
    38    16    11    1
    39     9     1   ar
    40     9     5   ar
    41    34    29   ar
    42     8    10    1
@<TRIPOS>MOLECULE
*****
 38 42 0 0 0
SMALL
GASTEIGER

@<TRIPOS>ATOM
      1 C         -29.3337   50.0023   -9.2955 C.ar    1  UNL1        0.1317
      2 C         -30.4054   50.0501   -8.3831 C.ar    1  UNL1        0.0286
      3 C         -30.2713   50.7413   -7.1634 C.ar    1  UNL1        0.0777
      4 C         -29.0578   51.3740   -6.8566 C.ar    1  UNL1        0.2967
      5 N         -28.0473   51.2925   -7.7585 N.ar    1  UNL1       -0.1224
      6 C         -26.7976   51.7728   -7.6956 C.ar    1  UNL1        0.3137
      7 C         -26.1536   51.3836   -8.8669 C.ar    1  UNL1        0.1320
      8 N         -27.0046   50.6679   -9.6437 N.ar    1  UNL1       -0.2941
      9 C         -28.1473   50.6450   -8.9297 C.ar    1  UNL1        0.3123
     10 H         -26.8288   50.2608  -10.5227 H       1  UNL1        0.1718
     11 N         -30.8868   47.8819  -12.2777 N.3     1  UNL1       -0.2647
     12 C         -30.6574   49.2778  -12.7127 C.3     1  UNL1        0.0941
     13 C         -29.6830   50.0375  -11.7833 C.3     1  UNL1        0.1084
     14 N         -29.4454   49.2956  -10.5398 N.pl3   1  UNL1       -0.2988
     15 C         -29.1247   47.8631  -10.5895 C.3     1  UNL1        0.1084
     16 C         -29.6096   47.2468  -11.9024 C.3     1  UNL1        0.0941
     17 C         -31.5820   47.1134  -13.3292 C.3     1  UNL1        0.1200
     18 N         -30.3030   47.4194  -16.7636 N.ar    1  UNL1       -0.3129
     19 C         -30.5139   48.7059  -16.3719 C.ar    1  UNL1        0.1785
     20 N         -30.9953   48.7921  -15.1131 N.ar    1  UNL1       -0.2274
     21 C         -31.0970   47.5152  -14.6955 C.ar    1  UNL1        0.0884
     22 C         -30.6684   46.6691  -15.7000 C.ar    1  UNL1        0.0537
     23 C         -30.6667   45.1675  -15.6624 C.3     1  UNL1        0.0514
     24 C         -30.3283   49.9180  -17.1986 C.2     1  UNL1        0.2073
     25 C         -31.4027   50.4678  -18.0821 C.3     1  UNL1        0.0806
     26 O         -29.2071   50.4926  -17.1845 O.2     1  UNL1       -0.2881
     27 C         -28.6459   47.4683  -18.5834 C.3     1  UNL1        0.0265
     28 C         -29.9817   46.9106  -18.1044 C.3     1  UNL1        0.1073
     29 C         -24.7503   51.6709   -9.2520 C.ar    1  UNL1        0.0218
     30 C         -23.7049   51.3400   -8.3772 C.ar    1  UNL1        0.0013
     31 C         -22.3773   51.5992   -8.7226 C.ar    1  UNL1       -0.0042
     32 C         -22.0459   52.2028   -9.9545 C.ar    1  UNL1       -0.0228
     33 C         -23.1069   52.5295  -10.8303 C.ar    1  UNL1       -0.0042
     34 C         -24.4355   52.2684  -10.4823 C.ar    1  UNL1        0.0013
     35 C         -20.5652   52.4589  -10.3037 C.3     1  UNL1        0.0189
     36 C         -20.4364   53.7879  -11.0812 C.3     1  UNL1        0.0044
     37 C         -19.9468   51.3431  -11.1804 C.3     1  UNL1        0.0044
     38 C         -19.7415   52.5454   -9.0013 C.3     1  UNL1        0.0044
@<TRIPOS>BOND
     1    27    28    1
     2    28    18    1
     3    18    19   ar
     4    19    24    1
     5    24    25    1
     6    24    26    2
     7    19    20   ar
     8    20    21   ar
     9    21    17    1
    10    17    11    1
    11    11    12    1
    12    12    13    1
    13    13    14    1
    14    14     1    1
    15     1     2   ar
    16     2     3   ar
    17     3     4   ar
    18     4     5   ar
    19     5     6   ar
    20     6     7   ar
    21     7    29    1
    22    29    30   ar
    23    30    31   ar
    24    31    32   ar
    25    32    35    1
    26    35    36    1
    27    35    37    1
    28    35    38    1
    29    32    33   ar
    30    33    34   ar
    31     7     8   ar
    32     8     9   ar
    33    14    15    1
    34    15    16    1
    35    21    22   ar
    36    22    23    1
    37    22    18   ar
    38    16    11    1
    39     9     1   ar
    40     9     5   ar
    41    34    29   ar
    42     8    10    1
@<TRIPOS>MOLECULE
*****
 38 42 0 0 0
SMALL
GASTEIGER

@<TRIPOS>ATOM
      1 C         -30.0030   49.1583   -9.5470 C.ar    1  UNL1        0.1317
      2 C         -31.2934   49.3020  -10.0925 C.ar    1  UNL1        0.0286
      3 C         -31.5170   50.1819  -11.1691 C.ar    1  UNL1        0.0777
      4 C         -30.4470   50.9246  -11.6892 C.ar    1  UNL1        0.2967
      5 N         -29.2230   50.7648  -11.1259 N.ar    1  UNL1       -0.1224
      6 C         -28.0605   51.3690  -11.4088 C.ar    1  UNL1        0.3137
      7 C         -27.1164   50.8720  -10.5144 C.ar    1  UNL1        0.1320
      8 N         -27.6977   49.9676   -9.6873 N.ar    1  UNL1       -0.2941
      9 C         -28.9791   49.9313  -10.1027 C.ar    1  UNL1        0.3123
     10 H         -27.2813   49.4576   -8.9554 H       1  UNL1        0.1718
     11 N         -30.6509   46.6591   -6.5246 N.3     1  UNL1       -0.2647
     12 C         -30.0592   45.9300   -7.6685 C.3     1  UNL1        0.0941
     13 C         -29.3930   46.8748   -8.6950 C.3     1  UNL1        0.1084
     14 N         -29.7546   48.2745   -8.4437 N.pl3   1  UNL1       -0.2988
     15 C         -29.6688   48.8220   -7.0834 C.3     1  UNL1        0.1084
     16 C         -29.7220   47.6998   -6.0458 C.3     1  UNL1        0.0941
     17 C         -31.0177   45.7250   -5.4417 C.3     1  UNL1        0.1200
     18 N         -28.5827   45.7654   -2.6860 N.ar    1  UNL1       -0.3129
     19 C         -29.4489   46.7694   -2.3786 C.ar    1  UNL1        0.1785
     20 N         -30.4291   46.9079   -3.2972 N.ar    1  UNL1       -0.2274
     21 C         -30.1710   45.9615   -4.2207 C.ar    1  UNL1        0.0884
     22 C         -29.0444   45.2535   -3.8490 C.ar    1  UNL1        0.0537
     23 C         -28.3885   44.1475   -4.6253 C.3     1  UNL1        0.0514
     24 C         -29.3523   47.6915   -1.2263 C.2     1  UNL1        0.2073
     25 C         -30.5212   48.0219   -0.3535 C.3     1  UNL1        0.0806
     26 O         -28.2472   48.2486   -0.9899 O.2     1  UNL1       -0.2881
     27 C         -26.1443   46.0751   -2.8226 C.3     1  UNL1        0.0265
     28 C         -27.2970   45.4384   -2.0537 C.3     1  UNL1        0.1073
     29 C         -25.6839   51.2471  -10.4283 C.ar    1  UNL1        0.0218
     30 C         -25.1351   51.6272   -9.1947 C.ar    1  UNL1        0.0013
     31 C         -23.7884   51.9805   -9.0922 C.ar    1  UNL1       -0.0042
     32 C         -22.9411   51.9707  -10.2207 C.ar    1  UNL1       -0.0228
     33 C         -23.5035   51.5830  -11.4588 C.ar    1  UNL1       -0.0042
     34 C         -24.8523   51.2291  -11.5588 C.ar    1  UNL1        0.0013
     35 C         -21.4553   52.3544  -10.0614 C.3     1  UNL1        0.0189
     36 C         -20.5772   51.3883  -10.8879 C.3     1  UNL1        0.0044
     37 C         -20.9661   52.2908   -8.5943 C.3     1  UNL1        0.0044
     38 C         -21.2441   53.7975  -10.5662 C.3     1  UNL1        0.0044
@<TRIPOS>BOND
     1    27    28    1
     2    28    18    1
     3    18    19   ar
     4    19    24    1
     5    24    25    1
     6    24    26    2
     7    19    20   ar
     8    20    21   ar
     9    21    17    1
    10    17    11    1
    11    11    12    1
    12    12    13    1
    13    13    14    1
    14    14     1    1
    15     1     2   ar
    16     2     3   ar
    17     3     4   ar
    18     4     5   ar
    19     5     6   ar
    20     6     7   ar
    21     7    29    1
    22    29    30   ar
    23    30    31   ar
    24    31    32   ar
    25    32    35    1
    26    35    36    1
    27    35    37    1
    28    35    38    1
    29    32    33   ar
    30    33    34   ar
    31     7     8   ar
    32     8     9   ar
    33    14    15    1
    34    15    16    1
    35    21    22   ar
    36    22    23    1
    37    22    18   ar
    38    16    11    1
    39     9     1   ar
    40     9     5   ar
    41    34    29   ar
    42     8    10    1
@<TRIPOS>MOLECULE
*****
 38 42 0 0 0
SMALL
GASTEIGER

@<TRIPOS>ATOM
      1 C         -27.2169   51.1616   -8.9216 C.ar    1  UNL1        0.1317
      2 C         -28.3956   51.1507   -9.6922 C.ar    1  UNL1        0.0286
      3 C         -28.3290   51.2424  -11.0960 C.ar    1  UNL1        0.0777
      4 C         -27.0797   51.3561  -11.7233 C.ar    1  UNL1        0.2967
      5 N         -25.9704   51.3750  -10.9421 N.ar    1  UNL1       -0.1224
      6 C         -24.6807   51.5057  -11.2829 C.ar    1  UNL1        0.3137
      7 C         -23.9455   51.4975  -10.1007 C.ar    1  UNL1        0.1320
      8 N         -24.7808   51.3627   -9.0405 N.ar    1  UNL1       -0.2941
      9 C         -26.0027   51.2852   -9.6035 C.ar    1  UNL1        0.3123
     10 H         -24.5489   51.3292   -8.0843 H       1  UNL1        0.1718
     11 N         -28.2356   49.9861   -5.2635 N.3     1  UNL1       -0.2647
     12 C         -26.8582   49.5428   -5.5742 C.3     1  UNL1        0.0941
     13 C         -26.2430   50.3074   -6.7688 C.3     1  UNL1        0.1084
     14 N         -27.2622   51.0788   -7.4894 N.pl3   1  UNL1       -0.2988
     15 C         -28.2048   51.9246   -6.7454 C.3     1  UNL1        0.1084
     16 C         -28.3180   51.4583   -5.2934 C.3     1  UNL1        0.0941
     17 C         -28.6776   49.4482   -3.9616 C.3     1  UNL1        0.1200
     18 N         -28.5456   45.7787   -3.7570 N.ar    1  UNL1       -0.3129
     19 C         -27.2540   46.1681   -3.5754 C.ar    1  UNL1        0.1785
     20 N         -27.1056   47.5096   -3.6222 N.ar    1  UNL1       -0.2274
     21 C         -28.3461   47.9852   -3.8461 C.ar    1  UNL1        0.0884
     22 C         -29.2344   46.9300   -3.9235 C.ar    1  UNL1        0.0537
     23 C         -30.7057   47.0209   -4.2121 C.3     1  UNL1        0.0514
     24 C         -26.0831   45.2798   -3.4112 C.2     1  UNL1        0.2073
     25 C         -25.7710   44.5808   -2.1261 C.3     1  UNL1        0.0806
     26 O         -25.2962   45.1319   -4.3840 O.2     1  UNL1       -0.2881
     27 C         -29.4145   44.2051   -5.4390 C.3     1  UNL1        0.0265
     28 C         -29.0732   44.4235   -3.9690 C.3     1  UNL1        0.1073
     29 C         -22.4741   51.6242   -9.9635 C.ar    1  UNL1        0.0218
     30 C         -21.9166   51.9779   -8.7260 C.ar    1  UNL1        0.0013
     31 C         -20.5339   52.0990   -8.5755 C.ar    1  UNL1       -0.0042
     32 C         -19.6573   51.8746   -9.6585 C.ar    1  UNL1       -0.0228
     33 C         -20.2294   51.5154  -10.9007 C.ar    1  UNL1       -0.0042
     34 C         -21.6142   51.3943  -11.0487 C.ar    1  UNL1        0.0013
     35 C         -18.1348   52.0049   -9.4461 C.3     1  UNL1        0.0189
     36 C         -17.5324   50.6167   -9.1340 C.3     1  UNL1        0.0044
     37 C         -17.7638   52.9485   -8.2766 C.3     1  UNL1        0.0044
     38 C         -17.4871   52.5677  -10.7290 C.3     1  UNL1        0.0044
@<TRIPOS>BOND
     1    27    28    1
     2    28    18    1
     3    18    19   ar
     4    19    24    1
     5    24    25    1
     6    24    26    2
     7    19    20   ar
     8    20    21   ar
     9    21    17    1
    10    17    11    1
    11    11    12    1
    12    12    13    1
    13    13    14    1
    14    14     1    1
    15     1     2   ar
    16     2     3   ar
    17     3     4   ar
    18     4     5   ar
    19     5     6   ar
    20     6     7   ar
    21     7    29    1
    22    29    30   ar
    23    30    31   ar
    24    31    32   ar
    25    32    35    1
    26    35    36    1
    27    35    37    1
    28    35    38    1
    29    32    33   ar
    30    33    34   ar
    31     7     8   ar
    32     8     9   ar
    33    14    15    1
    34    15    16    1
    35    21    22   ar
    36    22    23    1
    37    22    18   ar
    38    16    11    1
    39     9     1   ar
    40     9     5   ar
    41    34    29   ar
    42     8    10    1
@<TRIPOS>MOLECULE
*****
 38 42 0 0 0
SMALL
GASTEIGER

@<TRIPOS>ATOM
      1 C         -29.5769   47.6851   -6.3555 C.ar    1  UNL1        0.1317
      2 C         -30.3174   47.5423   -5.1661 C.ar    1  UNL1        0.0286
      3 C         -30.0849   48.4027   -4.0756 C.ar    1  UNL1        0.0777
      4 C         -29.1018   49.3978   -4.1768 C.ar    1  UNL1        0.2967
      5 N         -28.4034   49.4923   -5.3364 N.ar    1  UNL1       -0.1224
      6 C         -27.4051   50.3204   -5.6740 C.ar    1  UNL1        0.3137
      7 C         -27.0144   49.9797   -6.9661 C.ar    1  UNL1        0.1320
      8 N         -27.7696   48.9475   -7.4179 N.ar    1  UNL1       -0.2941
      9 C         -28.6057   48.6899   -6.3929 C.ar    1  UNL1        0.3123
     10 H         -27.7189   48.4932   -8.2899 H       1  UNL1        0.1718
     11 N         -30.3853   46.4512  -10.0468 N.3     1  UNL1       -0.2647
     12 C         -28.9486   46.2569   -9.7496 C.3     1  UNL1        0.0941
     13 C         -28.6435   46.3030   -8.2347 C.3     1  UNL1        0.1084
     14 N         -29.7909   46.8132   -7.4755 N.pl3   1  UNL1       -0.2988
     15 C         -31.1356   46.2805   -7.7310 C.3     1  UNL1        0.1084
     16 C         -31.2114   45.6516   -9.1229 C.3     1  UNL1        0.0941
     17 C         -30.6781   46.1197  -11.4554 C.3     1  UNL1        0.1200
     18 N         -30.0942   48.5638  -14.1405 N.ar    1  UNL1       -0.3129
     19 C         -30.1028   49.3139  -13.0047 C.ar    1  UNL1        0.1785
     20 N         -30.3109   48.5724  -11.8953 N.ar    1  UNL1       -0.2274
     21 C         -30.4433   47.3096  -12.3456 C.ar    1  UNL1        0.0884
     22 C         -30.3053   47.2963  -13.7201 C.ar    1  UNL1        0.0537
     23 C         -30.4339   46.0997  -14.6189 C.3     1  UNL1        0.0514
     24 C         -29.9769   50.7851  -12.9222 C.2     1  UNL1        0.2073
     25 C         -28.8062   51.4630  -12.2839 C.3     1  UNL1        0.0806
     26 O         -30.9107   51.4976  -13.3782 O.2     1  UNL1       -0.2881
     27 C         -31.5165   49.3396  -15.9939 C.3     1  UNL1        0.0265
     28 C         -30.0975   49.0172  -15.5384 C.3     1  UNL1        0.1073
     29 C         -25.9368   50.6087   -7.7681 C.ar    1  UNL1        0.0218
     30 C         -24.5955   50.4214   -7.4031 C.ar    1  UNL1        0.0013
     31 C         -23.5666   51.0022   -8.1469 C.ar    1  UNL1       -0.0042
     32 C         -23.8411   51.7954   -9.2814 C.ar    1  UNL1       -0.0228
     33 C         -25.1964   51.9752   -9.6425 C.ar    1  UNL1       -0.0042
     34 C         -26.2249   51.3921   -8.8964 C.ar    1  UNL1        0.0013
     35 C         -22.6742   52.4071  -10.0841 C.3     1  UNL1        0.0189
     36 C         -21.4442   52.5788   -9.1649 C.3     1  UNL1        0.0044
     37 C         -23.0098   53.7959  -10.6796 C.3     1  UNL1        0.0044
     38 C         -22.3123   51.4679  -11.2542 C.3     1  UNL1        0.0044
@<TRIPOS>BOND
     1    27    28    1
     2    28    18    1
     3    18    19   ar
     4    19    24    1
     5    24    25    1
     6    24    26    2
     7    19    20   ar
     8    20    21   ar
     9    21    17    1
    10    17    11    1
    11    11    12    1
    12    12    13    1
    13    13    14    1
    14    14     1    1
    15     1     2   ar
    16     2     3   ar
    17     3     4   ar
    18     4     5   ar
    19     5     6   ar
    20     6     7   ar
    21     7    29    1
    22    29    30   ar
    23    30    31   ar
    24    31    32   ar
    25    32    35    1
    26    35    36    1
    27    35    37    1
    28    35    38    1
    29    32    33   ar
    30    33    34   ar
    31     7     8   ar
    32     8     9   ar
    33    14    15    1
    34    15    16    1
    35    21    22   ar
    36    22    23    1
    37    22    18   ar
    38    16    11    1
    39     9     1   ar
    40     9     5   ar
    41    34    29   ar
    42     8    10    1
