@<TRIPOS>MOLECULE
*****
 40 44 0 0 0
SMALL
GASTEIGER

@<TRIPOS>ATOM
      1 C          -8.8566  -10.3846   32.1821 C.3     1  UNL1        0.1332
      2 N          -9.2161  -11.5582   31.3859 N.ar    1  UNL1       -0.2977
      3 C         -10.3128  -12.3612   31.5052 C.ar    1  UNL1        0.2018
      4 N         -10.3262  -13.4035   30.6350 N.ar    1  UNL1       -0.2135
      5 C          -9.2028  -13.2159   29.9215 C.ar    1  UNL1        0.0999
      6 C          -8.7429  -13.9903   28.8484 C.ar    1  UNL1        0.0282
      7 C          -7.5582  -13.5856   28.1831 C.ar    1  UNL1        0.0888
      8 C          -6.8875  -12.4332   28.6610 C.ar    1  UNL1        0.1401
      9 C          -7.3548  -11.6998   29.7276 C.ar    1  UNL1        0.0327
     10 C          -8.5352  -12.1029   30.3593 C.ar    1  UNL1        0.0789
     11 C          -6.4369  -10.5601   30.0029 C.3     1  UNL1        0.0709
     12 C          -5.3599  -10.7080   28.8786 C.3     1  UNL1        0.1375
     13 C          -5.4018   -9.5188   27.9094 C.3     1  UNL1        0.0439
     14 C          -3.9512  -10.8709   29.4648 C.3     1  UNL1        0.0439
     15 O          -5.7146  -11.8974   28.1713 O.3     1  UNL1       -0.4824
     16 C          -7.0487  -14.3684   27.0378 C.2     1  UNL1        0.2525
     17 O          -5.8196  -14.6459   26.9897 O.2     1  UNL1       -0.2697
     18 N          -7.9337  -14.8097   25.9919 N.am    1  UNL1       -0.2803
     19 H          -8.9412  -14.5405   26.0370 H       1  UNL1        0.1552
     20 C          -7.5045  -15.5399   24.8308 C.ar    1  UNL1        0.0510
     21 C          -8.2837  -16.5748   24.2871 C.ar    1  UNL1        0.0214
     22 C          -7.8629  -17.2419   23.1336 C.ar    1  UNL1        0.0357
     23 BR         -8.9390  -18.6355   22.3927 Br      1  UNL1       -0.0490
     24 C          -6.6658  -16.8789   22.5101 C.ar    1  UNL1        0.0106
     25 C          -5.8721  -15.8478   23.0405 C.ar    1  UNL1        0.0731
     26 C          -6.3175  -15.1631   24.1849 C.ar    1  UNL1        0.0186
     27 C          -4.6123  -15.4136   22.3341 C.3     1  UNL1        0.4186
     28 F          -3.5308  -16.1672   22.7568 F       1  UNL1       -0.1659
     29 F          -4.3701  -14.0818   22.6135 F       1  UNL1       -0.1659
     30 F          -4.7396  -15.5714   20.9648 F       1  UNL1       -0.1659
     31 N         -11.3878  -12.1431   32.4305 N.pl3   1  UNL1       -0.2814
     32 H         -11.6147  -11.1549   32.6823 H       1  UNL1        0.1551
     33 C         -12.1318  -13.1907   33.0737 C.ar    1  UNL1        0.0889
     34 C         -13.3895  -13.5441   32.5561 C.ar    1  UNL1        0.1543
     35 F         -13.8788  -12.9123   31.4596 F       1  UNL1       -0.2028
     36 C         -14.1359  -14.5669   33.1472 C.ar    1  UNL1        0.0310
     37 C         -13.6433  -15.2353   34.2686 C.ar    1  UNL1        0.0033
     38 C         -12.4086  -14.8743   34.8111 C.ar    1  UNL1        0.0128
     39 C         -11.6507  -13.8506   34.2290 C.ar    1  UNL1        0.0733
     40 CL        -10.1511  -13.3816   35.0224 Cl      1  UNL1       -0.0809
@<TRIPOS>BOND
     1     1     2    1
     2     2     3   ar
     3     3    31    1
     4    31    33    1
     5    33    34   ar
     6    34    35    1
     7    34    36   ar
     8    36    37   ar
     9    37    38   ar
    10    38    39   ar
    11    39    40    1
    12     3     4   ar
    13     4     5   ar
    14     5     6   ar
    15     6     7   ar
    16     7    16    1
    17    16    17    2
    18    16    18   am
    19    18    20    1
    20    20    21   ar
    21    21    22   ar
    22    22    23    1
    23    22    24   ar
    24    24    25   ar
    25    25    27    1
    26    27    28    1
    27    27    29    1
    28    27    30    1
    29    25    26   ar
    30     7     8   ar
    31     8     9   ar
    32     9    10   ar
    33     9    11    1
    34    11    12    1
    35    12    13    1
    36    12    14    1
    37    12    15    1
    38    10     2   ar
    39    39    33   ar
    40    10     5   ar
    41    26    20   ar
    42    15     8    1
    43    31    32    1
    44    18    19    1
@<TRIPOS>MOLECULE
*****
 40 44 0 0 0
SMALL
GASTEIGER

@<TRIPOS>ATOM
      1 C          -8.8839  -10.3549   32.0454 C.3     1  UNL1        0.1332
      2 N          -9.2166  -11.5399   31.2543 N.ar    1  UNL1       -0.2977
      3 C         -10.3100  -12.3496   31.3575 C.ar    1  UNL1        0.2018
      4 N         -10.2960  -13.4014   30.4988 N.ar    1  UNL1       -0.2135
      5 C          -9.1578  -13.2134   29.8092 C.ar    1  UNL1        0.0999
      6 C          -8.6678  -13.9962   28.7557 C.ar    1  UNL1        0.0282
      7 C          -7.4710  -13.5901   28.1133 C.ar    1  UNL1        0.0888
      8 C          -6.8197  -12.4276   28.5934 C.ar    1  UNL1        0.1401
      9 C          -7.3167  -11.6859   29.6408 C.ar    1  UNL1        0.0327
     10 C          -8.5084  -12.0908   30.2498 C.ar    1  UNL1        0.0789
     11 C          -6.4135  -10.5365   29.9244 C.3     1  UNL1        0.0709
     12 C          -5.3099  -10.6888   28.8268 C.3     1  UNL1        0.1375
     13 C          -5.3380   -9.5107   27.8436 C.3     1  UNL1        0.0439
     14 C          -3.9139  -10.8349   29.4469 C.3     1  UNL1        0.0439
     15 O          -5.6397  -11.8885   28.1248 O.3     1  UNL1       -0.4824
     16 C          -6.9297  -14.3817   26.9887 C.2     1  UNL1        0.2525
     17 O          -5.7271  -14.7583   27.0336 O.2     1  UNL1       -0.2697
     18 N          -7.7546  -14.7206   25.8588 N.am    1  UNL1       -0.2803
     19 H          -8.7375  -14.3706   25.8291 H       1  UNL1        0.1552
     20 C          -7.2875  -15.4527   24.7137 C.ar    1  UNL1        0.0510
     21 C          -6.0024  -15.2444   24.1857 C.ar    1  UNL1        0.0214
     22 C          -5.5575  -15.9985   23.0965 C.ar    1  UNL1        0.0357
     23 BR         -3.8017  -15.7193   22.3979 Br      1  UNL1       -0.0490
     24 C          -6.3875  -16.9696   22.5294 C.ar    1  UNL1        0.0106
     25 C          -7.6768  -17.1906   23.0425 C.ar    1  UNL1        0.0731
     26 C          -8.1051  -16.4472   24.1564 C.ar    1  UNL1        0.0186
     27 C          -8.5494  -18.2802   22.4716 C.3     1  UNL1        0.4186
     28 F          -7.9048  -19.5038   22.5312 F       1  UNL1       -0.1659
     29 F          -8.8384  -17.9870   21.1521 F       1  UNL1       -0.1659
     30 F          -9.7337  -18.3811   23.1811 F       1  UNL1       -0.1659
     31 N         -11.4075  -12.1293   32.2553 N.pl3   1  UNL1       -0.2814
     32 H         -11.7270  -11.1443   32.3943 H       1  UNL1        0.1551
     33 C         -12.0560  -13.1621   33.0153 C.ar    1  UNL1        0.0889
     34 C         -13.3193  -13.6164   32.6003 C.ar    1  UNL1        0.1543
     35 F         -13.9029  -13.0939   31.4925 F       1  UNL1       -0.2028
     36 C         -13.9743  -14.6285   33.3068 C.ar    1  UNL1        0.0310
     37 C         -13.3840  -15.1853   34.4419 C.ar    1  UNL1        0.0033
     38 C         -12.1427  -14.7227   34.8825 C.ar    1  UNL1        0.0128
     39 C         -11.4757  -13.7085   34.1842 C.ar    1  UNL1        0.0733
     40 CL         -9.9622  -13.1061   34.8511 Cl      1  UNL1       -0.0809
@<TRIPOS>BOND
     1     1     2    1
     2     2     3   ar
     3     3    31    1
     4    31    33    1
     5    33    34   ar
     6    34    35    1
     7    34    36   ar
     8    36    37   ar
     9    37    38   ar
    10    38    39   ar
    11    39    40    1
    12     3     4   ar
    13     4     5   ar
    14     5     6   ar
    15     6     7   ar
    16     7    16    1
    17    16    17    2
    18    16    18   am
    19    18    20    1
    20    20    21   ar
    21    21    22   ar
    22    22    23    1
    23    22    24   ar
    24    24    25   ar
    25    25    27    1
    26    27    28    1
    27    27    29    1
    28    27    30    1
    29    25    26   ar
    30     7     8   ar
    31     8     9   ar
    32     9    10   ar
    33     9    11    1
    34    11    12    1
    35    12    13    1
    36    12    14    1
    37    12    15    1
    38    10     2   ar
    39    39    33   ar
    40    10     5   ar
    41    26    20   ar
    42    15     8    1
    43    31    32    1
    44    18    19    1
@<TRIPOS>MOLECULE
*****
 40 44 0 0 0
SMALL
GASTEIGER

@<TRIPOS>ATOM
      1 C          -9.2687  -10.0828   34.1531 C.3     1  UNL1        0.1332
      2 N          -8.5250  -10.3503   32.9219 N.ar    1  UNL1       -0.2977
      3 C          -7.3458   -9.8035   32.5068 C.ar    1  UNL1        0.2018
      4 N          -6.9428  -10.2337   31.2835 N.ar    1  UNL1       -0.2135
      5 C          -7.8998  -11.1134   30.9421 C.ar    1  UNL1        0.0999
      6 C          -7.9577  -11.8913   29.7784 C.ar    1  UNL1        0.0282
      7 C          -9.0258  -12.8123   29.6349 C.ar    1  UNL1        0.0888
      8 C          -9.9943  -12.8739   30.6666 C.ar    1  UNL1        0.1401
      9 C          -9.9199  -12.0864   31.7928 C.ar    1  UNL1        0.0327
     10 C          -8.8489  -11.1974   31.9261 C.ar    1  UNL1        0.0789
     11 C         -11.0787  -12.3643   32.6857 C.3     1  UNL1        0.0709
     12 C         -11.8374  -13.4975   31.9202 C.3     1  UNL1        0.1375
     13 C         -11.8180  -14.8120   32.7121 C.3     1  UNL1        0.0439
     14 C         -13.2806  -13.0901   31.5950 C.3     1  UNL1        0.0439
     15 O         -11.1145  -13.6780   30.7013 O.3     1  UNL1       -0.4824
     16 C          -9.1139  -13.6608   28.4280 C.2     1  UNL1        0.2525
     17 O         -10.2099  -13.7237   27.8077 O.2     1  UNL1       -0.2697
     18 N          -7.9730  -14.4051   27.9628 N.am    1  UNL1       -0.2803
     19 H          -7.0857  -14.3625   28.5109 H       1  UNL1        0.1552
     20 C          -7.9944  -15.2789   26.8220 C.ar    1  UNL1        0.0510
     21 C          -8.8778  -16.3690   26.7509 C.ar    1  UNL1        0.0214
     22 C          -8.9068  -17.1792   25.6127 C.ar    1  UNL1        0.0357
     23 BR        -10.1244  -18.6482   25.5196 Br      1  UNL1       -0.0490
     24 C          -8.0602  -16.9058   24.5348 C.ar    1  UNL1        0.0106
     25 C          -7.1685  -15.8212   24.5885 C.ar    1  UNL1        0.0731
     26 C          -7.1664  -14.9945   25.7259 C.ar    1  UNL1        0.0186
     27 C          -6.2992  -15.4879   23.4020 C.3     1  UNL1        0.4186
     28 F          -5.2166  -14.7176   23.7905 F       1  UNL1       -0.1659
     29 F          -7.0445  -14.7828   22.4757 F       1  UNL1       -0.1659
     30 F          -5.8171  -16.6419   22.8087 F       1  UNL1       -0.1659
     31 N          -6.5596   -8.8796   33.2732 N.pl3   1  UNL1       -0.2814
     32 H          -6.6644   -8.9030   34.3124 H       1  UNL1        0.1551
     33 C          -5.6845   -7.8911   32.7059 C.ar    1  UNL1        0.0889
     34 C          -4.4885   -7.5812   33.3754 C.ar    1  UNL1        0.1543
     35 F          -4.1665   -8.2191   34.5288 F       1  UNL1       -0.2028
     36 C          -3.6066   -6.6349   32.8469 C.ar    1  UNL1        0.0310
     37 C          -3.9160   -5.9774   31.6558 C.ar    1  UNL1        0.0033
     38 C          -5.1148   -6.2539   30.9958 C.ar    1  UNL1        0.0128
     39 C          -6.0078   -7.1995   31.5148 C.ar    1  UNL1        0.0733
     40 CL         -7.5432   -7.4264   30.6844 Cl      1  UNL1       -0.0809
@<TRIPOS>BOND
     1     1     2    1
     2     2     3   ar
     3     3    31    1
     4    31    33    1
     5    33    34   ar
     6    34    35    1
     7    34    36   ar
     8    36    37   ar
     9    37    38   ar
    10    38    39   ar
    11    39    40    1
    12     3     4   ar
    13     4     5   ar
    14     5     6   ar
    15     6     7   ar
    16     7    16    1
    17    16    17    2
    18    16    18   am
    19    18    20    1
    20    20    21   ar
    21    21    22   ar
    22    22    23    1
    23    22    24   ar
    24    24    25   ar
    25    25    27    1
    26    27    28    1
    27    27    29    1
    28    27    30    1
    29    25    26   ar
    30     7     8   ar
    31     8     9   ar
    32     9    10   ar
    33     9    11    1
    34    11    12    1
    35    12    13    1
    36    12    14    1
    37    12    15    1
    38    10     2   ar
    39    39    33   ar
    40    10     5   ar
    41    26    20   ar
    42    15     8    1
    43    31    32    1
    44    18    19    1
@<TRIPOS>MOLECULE
*****
 40 44 0 0 0
SMALL
GASTEIGER

@<TRIPOS>ATOM
      1 C          -9.2492  -10.5340   33.0815 C.3     1  UNL1        0.1332
      2 N          -9.4662  -11.5128   32.0160 N.ar    1  UNL1       -0.2977
      3 C         -10.5597  -12.2987   31.7954 C.ar    1  UNL1        0.2018
      4 N         -10.4247  -13.1416   30.7393 N.ar    1  UNL1       -0.2135
      5 C          -9.2047  -12.8379   30.2643 C.ar    1  UNL1        0.0999
      6 C          -8.5731  -13.3879   29.1413 C.ar    1  UNL1        0.0282
      7 C          -7.3025  -12.8828   28.7667 C.ar    1  UNL1        0.0888
      8 C          -6.7276  -11.8669   29.5690 C.ar    1  UNL1        0.1401
      9 C          -7.3650  -11.3556   30.6763 C.ar    1  UNL1        0.0327
     10 C          -8.6262  -11.8523   31.0194 C.ar    1  UNL1        0.0789
     11 C          -6.5140  -10.3165   31.3191 C.3     1  UNL1        0.0709
     12 C          -5.2715  -10.2566   30.3713 C.3     1  UNL1        0.1375
     13 C          -5.1721   -8.8944   29.6712 C.3     1  UNL1        0.0439
     14 C          -3.9714  -10.5667   31.1251 C.3     1  UNL1        0.0439
     15 O          -5.4977  -11.2690   29.3891 O.3     1  UNL1       -0.4824
     16 C          -6.6104  -13.4274   27.5798 C.2     1  UNL1        0.2525
     17 O          -5.5531  -12.8670   27.1821 O.2     1  UNL1       -0.2697
     18 N          -7.1280  -14.5769   26.8850 N.am    1  UNL1       -0.2803
     19 H          -8.0218  -15.0043   27.2136 H       1  UNL1        0.1552
     20 C          -6.5317  -15.1377   25.7038 C.ar    1  UNL1        0.0510
     21 C          -5.3742  -15.9309   25.7737 C.ar    1  UNL1        0.0214
     22 C          -4.8377  -16.4979   24.6147 C.ar    1  UNL1        0.0357
     23 BR         -3.2738  -17.5894   24.7238 Br      1  UNL1       -0.0490
     24 C          -5.4536  -16.2835   23.3785 C.ar    1  UNL1        0.0106
     25 C          -6.6107  -15.4913   23.2885 C.ar    1  UNL1        0.0731
     26 C          -7.1597  -14.9485   24.4637 C.ar    1  UNL1        0.0186
     27 C          -7.3113  -15.3105   21.9653 C.3     1  UNL1        0.4186
     28 F          -8.3528  -14.4063   22.0835 F       1  UNL1       -0.1659
     29 F          -7.8166  -16.5276   21.5480 F       1  UNL1       -0.1659
     30 F          -6.4329  -14.8344   21.0073 F       1  UNL1       -0.1659
     31 N         -11.7695  -12.2494   32.5655 N.pl3   1  UNL1       -0.2814
     32 H         -12.1202  -11.3084   32.8535 H       1  UNL1        0.1551
     33 C         -12.4961  -13.4057   33.0128 C.ar    1  UNL1        0.0889
     34 C         -13.6946  -13.7456   32.3626 C.ar    1  UNL1        0.1543
     35 F         -14.1432  -12.9983   31.3228 F       1  UNL1       -0.2028
     36 C         -14.4213  -14.8705   32.7613 C.ar    1  UNL1        0.0310
     37 C         -13.9691  -15.6571   33.8214 C.ar    1  UNL1        0.0033
     38 C         -12.7956  -15.3139   34.4954 C.ar    1  UNL1        0.0128
     39 C         -12.0580  -14.1888   34.1066 C.ar    1  UNL1        0.0733
     40 CL        -10.6435  -13.7595   35.0621 Cl      1  UNL1       -0.0809
@<TRIPOS>BOND
     1     1     2    1
     2     2     3   ar
     3     3    31    1
     4    31    33    1
     5    33    34   ar
     6    34    35    1
     7    34    36   ar
     8    36    37   ar
     9    37    38   ar
    10    38    39   ar
    11    39    40    1
    12     3     4   ar
    13     4     5   ar
    14     5     6   ar
    15     6     7   ar
    16     7    16    1
    17    16    17    2
    18    16    18   am
    19    18    20    1
    20    20    21   ar
    21    21    22   ar
    22    22    23    1
    23    22    24   ar
    24    24    25   ar
    25    25    27    1
    26    27    28    1
    27    27    29    1
    28    27    30    1
    29    25    26   ar
    30     7     8   ar
    31     8     9   ar
    32     9    10   ar
    33     9    11    1
    34    11    12    1
    35    12    13    1
    36    12    14    1
    37    12    15    1
    38    10     2   ar
    39    39    33   ar
    40    10     5   ar
    41    26    20   ar
    42    15     8    1
    43    31    32    1
    44    18    19    1
@<TRIPOS>MOLECULE
*****
 40 44 0 0 0
SMALL
GASTEIGER

@<TRIPOS>ATOM
      1 C          -9.0319  -14.4130   28.2323 C.3     1  UNL1        0.1332
      2 N          -7.7144  -14.3715   27.5975 N.ar    1  UNL1       -0.2977
      3 C          -6.5986  -13.6978   28.0014 C.ar    1  UNL1        0.2018
      4 N          -5.5428  -13.8308   27.1579 N.ar    1  UNL1       -0.2135
      5 C          -6.0176  -14.6531   26.2067 C.ar    1  UNL1        0.0999
      6 C          -5.3222  -15.1574   25.1001 C.ar    1  UNL1        0.0282
      7 C          -5.9885  -16.0682   24.2421 C.ar    1  UNL1        0.0888
      8 C          -7.3347  -16.3959   24.5364 C.ar    1  UNL1        0.1401
      9 C          -7.9980  -15.8733   25.6230 C.ar    1  UNL1        0.0327
     10 C          -7.3187  -14.9914   26.4692 C.ar    1  UNL1        0.0789
     11 C          -9.3942  -16.3892   25.6637 C.3     1  UNL1        0.0709
     12 C          -9.4380  -17.3568   24.4358 C.3     1  UNL1        0.1375
     13 C          -9.6394  -18.8115   24.8818 C.3     1  UNL1        0.0439
     14 C         -10.5267  -16.9487   23.4345 C.3     1  UNL1        0.0439
     15 O          -8.1579  -17.2341   23.8136 O.3     1  UNL1       -0.4824
     16 C          -5.2839  -16.6330   23.0721 C.2     1  UNL1        0.2525
     17 O          -5.5863  -16.2165   21.9209 O.2     1  UNL1       -0.2697
     18 N          -4.2695  -17.6410   23.2359 N.am    1  UNL1       -0.2803
     19 H          -4.0589  -17.9930   24.1957 H       1  UNL1        0.1552
     20 C          -3.5707  -18.2626   22.1447 C.ar    1  UNL1        0.0510
     21 C          -4.1443  -19.3158   21.4129 C.ar    1  UNL1        0.0214
     22 C          -3.4606  -19.8757   20.3304 C.ar    1  UNL1        0.0357
     23 BR         -4.2576  -21.2955   19.3313 Br      1  UNL1       -0.0490
     24 C          -2.2032  -19.3866   19.9655 C.ar    1  UNL1        0.0106
     25 C          -1.6126  -18.3352   20.6868 C.ar    1  UNL1        0.0731
     26 C          -2.3203  -17.7590   21.7565 C.ar    1  UNL1        0.0186
     27 C          -0.2844  -17.7652   20.2561 C.3     1  UNL1        0.4186
     28 F           0.5639  -17.6291   21.3415 F       1  UNL1       -0.1659
     29 F          -0.4864  -16.5234   19.6837 F       1  UNL1       -0.1659
     30 F           0.3273  -18.5940   19.3314 F       1  UNL1       -0.1659
     31 N          -6.4997  -12.9332   29.2117 N.pl3   1  UNL1       -0.2814
     32 H          -6.2651  -13.4480   30.0899 H       1  UNL1        0.1551
     33 C          -6.7563  -11.5224   29.3052 C.ar    1  UNL1        0.0889
     34 C          -5.8056  -10.6256   28.7891 C.ar    1  UNL1        0.1543
     35 F          -4.6749  -11.0920   28.2017 F       1  UNL1       -0.2028
     36 C          -6.0269   -9.2472   28.8503 C.ar    1  UNL1        0.0310
     37 C          -7.1893   -8.7500   29.4406 C.ar    1  UNL1        0.0033
     38 C          -8.1283   -9.6287   29.9839 C.ar    1  UNL1        0.0128
     39 C          -7.9187  -11.0122   29.9299 C.ar    1  UNL1        0.0733
     40 CL         -9.0947  -12.0560   30.7209 Cl      1  UNL1       -0.0809
@<TRIPOS>BOND
     1     1     2    1
     2     2     3   ar
     3     3    31    1
     4    31    33    1
     5    33    34   ar
     6    34    35    1
     7    34    36   ar
     8    36    37   ar
     9    37    38   ar
    10    38    39   ar
    11    39    40    1
    12     3     4   ar
    13     4     5   ar
    14     5     6   ar
    15     6     7   ar
    16     7    16    1
    17    16    17    2
    18    16    18   am
    19    18    20    1
    20    20    21   ar
    21    21    22   ar
    22    22    23    1
    23    22    24   ar
    24    24    25   ar
    25    25    27    1
    26    27    28    1
    27    27    29    1
    28    27    30    1
    29    25    26   ar
    30     7     8   ar
    31     8     9   ar
    32     9    10   ar
    33     9    11    1
    34    11    12    1
    35    12    13    1
    36    12    14    1
    37    12    15    1
    38    10     2   ar
    39    39    33   ar
    40    10     5   ar
    41    26    20   ar
    42    15     8    1
    43    31    32    1
    44    18    19    1
@<TRIPOS>MOLECULE
*****
 40 44 0 0 0
SMALL
GASTEIGER

@<TRIPOS>ATOM
      1 C          -9.2841  -10.0098   34.0786 C.3     1  UNL1        0.1332
      2 N          -8.4935  -10.3002   32.8822 N.ar    1  UNL1       -0.2977
      3 C          -7.2969   -9.7640   32.5049 C.ar    1  UNL1        0.2018
      4 N          -6.8476  -10.2159   31.3058 N.ar    1  UNL1       -0.2135
      5 C          -7.7936  -11.0984   30.9417 C.ar    1  UNL1        0.0999
      6 C          -7.8086  -11.8955   29.7897 C.ar    1  UNL1        0.0282
      7 C          -8.8735  -12.8157   29.6196 C.ar    1  UNL1        0.0888
      8 C          -9.8821  -12.8570   30.6133 C.ar    1  UNL1        0.1401
      9 C          -9.8492  -12.0509   31.7282 C.ar    1  UNL1        0.0327
     10 C          -8.7811  -11.1630   31.8887 C.ar    1  UNL1        0.0789
     11 C         -11.0432  -12.3102   32.5793 C.3     1  UNL1        0.0709
     12 C         -11.7753  -13.4539   31.8035 C.3     1  UNL1        0.1375
     13 C         -11.7919  -14.7549   32.6173 C.3     1  UNL1        0.0439
     14 C         -13.2031  -13.0477   31.4149 C.3     1  UNL1        0.0439
     15 O         -11.0057  -13.6570   30.6172 O.3     1  UNL1       -0.4824
     16 C          -8.9172  -13.6841   28.4245 C.2     1  UNL1        0.2525
     17 O         -10.0393  -14.0278   27.9633 O.2     1  UNL1       -0.2697
     18 N          -7.7044  -14.1335   27.7927 N.am    1  UNL1       -0.2803
     19 H          -6.7875  -13.8623   28.2113 H       1  UNL1        0.1552
     20 C          -7.6686  -15.0086   26.6533 C.ar    1  UNL1        0.0510
     21 C          -6.6257  -14.9457   25.7140 C.ar    1  UNL1        0.0214
     22 C          -6.5931  -15.8353   24.6369 C.ar    1  UNL1        0.0357
     23 BR         -5.1608  -15.7524   23.3757 Br      1  UNL1       -0.0490
     24 C          -7.5959  -16.7979   24.4910 C.ar    1  UNL1        0.0106
     25 C          -8.6481  -16.8747   25.4191 C.ar    1  UNL1        0.0731
     26 C          -8.6573  -15.9942   26.5153 C.ar    1  UNL1        0.0186
     27 C          -9.6963  -17.9522   25.2976 C.3     1  UNL1        0.4186
     28 F          -9.1972  -19.0438   24.6080 F       1  UNL1       -0.1659
     29 F         -10.7885  -17.4495   24.6157 F       1  UNL1       -0.1659
     30 F         -10.1042  -18.3816   26.5487 F       1  UNL1       -0.1659
     31 N          -6.5381   -8.8297   33.2862 N.pl3   1  UNL1       -0.2814
     32 H          -6.6816   -8.8373   34.3209 H       1  UNL1        0.1551
     33 C          -5.6406   -7.8509   32.7371 C.ar    1  UNL1        0.0889
     34 C          -4.4576   -7.5508   33.4336 C.ar    1  UNL1        0.1543
     35 F          -4.1687   -8.1887   34.5957 F       1  UNL1       -0.2028
     36 C          -3.5547   -6.6142   32.9236 C.ar    1  UNL1        0.0310
     37 C          -3.8300   -5.9568   31.7241 C.ar    1  UNL1        0.0033
     38 C          -5.0156   -6.2236   31.0369 C.ar    1  UNL1        0.0128
     39 C          -5.9295   -7.1594   31.5371 C.ar    1  UNL1        0.0733
     40 CL         -7.4472   -7.3737   30.6718 Cl      1  UNL1       -0.0809
@<TRIPOS>BOND
     1     1     2    1
     2     2     3   ar
     3     3    31    1
     4    31    33    1
     5    33    34   ar
     6    34    35    1
     7    34    36   ar
     8    36    37   ar
     9    37    38   ar
    10    38    39   ar
    11    39    40    1
    12     3     4   ar
    13     4     5   ar
    14     5     6   ar
    15     6     7   ar
    16     7    16    1
    17    16    17    2
    18    16    18   am
    19    18    20    1
    20    20    21   ar
    21    21    22   ar
    22    22    23    1
    23    22    24   ar
    24    24    25   ar
    25    25    27    1
    26    27    28    1
    27    27    29    1
    28    27    30    1
    29    25    26   ar
    30     7     8   ar
    31     8     9   ar
    32     9    10   ar
    33     9    11    1
    34    11    12    1
    35    12    13    1
    36    12    14    1
    37    12    15    1
    38    10     2   ar
    39    39    33   ar
    40    10     5   ar
    41    26    20   ar
    42    15     8    1
    43    31    32    1
    44    18    19    1
@<TRIPOS>MOLECULE
*****
 40 44 0 0 0
SMALL
GASTEIGER

@<TRIPOS>ATOM
      1 C         -11.5469   -9.8936   33.2874 C.3     1  UNL1        0.1332
      2 N         -10.6605  -10.1218   32.1461 N.ar    1  UNL1       -0.2977
      3 C          -9.8036   -9.2442   31.5482 C.ar    1  UNL1        0.2018
      4 N          -9.1533   -9.7594   30.4732 N.ar    1  UNL1       -0.2135
      5 C          -9.6033  -11.0249   30.4258 C.ar    1  UNL1        0.0999
      6 C          -9.2214  -12.0253   29.5224 C.ar    1  UNL1        0.0282
      7 C          -9.7699  -13.3230   29.6811 C.ar    1  UNL1        0.0888
      8 C         -10.6990  -13.5287   30.7301 C.ar    1  UNL1        0.1401
      9 C         -11.0673  -12.5227   31.5941 C.ar    1  UNL1        0.0327
     10 C         -10.5015  -11.2541   31.4342 C.ar    1  UNL1        0.0789
     11 C         -12.0621  -13.0344   32.5768 C.3     1  UNL1        0.0709
     12 C         -12.1889  -14.5425   32.1827 C.3     1  UNL1        0.1375
     13 C         -11.6692  -15.4547   33.3021 C.3     1  UNL1        0.0439
     14 C         -13.6335  -14.9111   31.8195 C.3     1  UNL1        0.0439
     15 O         -11.3598  -14.7017   31.0303 O.3     1  UNL1       -0.4824
     16 C          -9.3809  -14.4086   28.7568 C.2     1  UNL1        0.2525
     17 O          -9.4742  -15.6035   29.1489 O.2     1  UNL1       -0.2697
     18 N          -8.9031  -14.1150   27.4311 N.am    1  UNL1       -0.2803
     19 H          -8.8042  -13.1175   27.1403 H       1  UNL1        0.1552
     20 C          -8.4714  -15.1145   26.4929 C.ar    1  UNL1        0.0510
     21 C          -9.2615  -16.2405   26.2072 C.ar    1  UNL1        0.0214
     22 C          -8.8372  -17.1769   25.2606 C.ar    1  UNL1        0.0357
     23 BR         -9.9278  -18.6950   24.8669 Br      1  UNL1       -0.0490
     24 C          -7.6258  -16.9951   24.5876 C.ar    1  UNL1        0.0106
     25 C          -6.8212  -15.8762   24.8616 C.ar    1  UNL1        0.0731
     26 C          -7.2696  -14.9247   25.7946 C.ar    1  UNL1        0.0186
     27 C          -5.5448  -15.6467   24.0918 C.3     1  UNL1        0.4186
     28 F          -4.8816  -16.8428   23.8777 F       1  UNL1       -0.1659
     29 F          -4.7245  -14.7998   24.8132 F       1  UNL1       -0.1659
     30 F          -5.8120  -15.0747   22.8600 F       1  UNL1       -0.1659
     31 N          -9.5617   -7.9036   31.9992 N.pl3   1  UNL1       -0.2814
     32 H          -9.3181   -7.7699   33.0063 H       1  UNL1        0.1551
     33 C          -9.6869   -6.7334   31.1746 C.ar    1  UNL1        0.0889
     34 C          -8.5195   -6.0829   30.7404 C.ar    1  UNL1        0.1543
     35 F          -7.2997   -6.5659   31.0861 F       1  UNL1       -0.2028
     36 C          -8.6020   -4.9500   29.9266 C.ar    1  UNL1        0.0310
     37 C          -9.8479   -4.4459   29.5518 C.ar    1  UNL1        0.0033
     38 C         -11.0161   -5.0649   30.0005 C.ar    1  UNL1        0.0128
     39 C         -10.9478   -6.2005   30.8171 C.ar    1  UNL1        0.0733
     40 CL        -12.4574   -6.8704   31.4259 Cl      1  UNL1       -0.0809
@<TRIPOS>BOND
     1     1     2    1
     2     2     3   ar
     3     3    31    1
     4    31    33    1
     5    33    34   ar
     6    34    35    1
     7    34    36   ar
     8    36    37   ar
     9    37    38   ar
    10    38    39   ar
    11    39    40    1
    12     3     4   ar
    13     4     5   ar
    14     5     6   ar
    15     6     7   ar
    16     7    16    1
    17    16    17    2
    18    16    18   am
    19    18    20    1
    20    20    21   ar
    21    21    22   ar
    22    22    23    1
    23    22    24   ar
    24    24    25   ar
    25    25    27    1
    26    27    28    1
    27    27    29    1
    28    27    30    1
    29    25    26   ar
    30     7     8   ar
    31     8     9   ar
    32     9    10   ar
    33     9    11    1
    34    11    12    1
    35    12    13    1
    36    12    14    1
    37    12    15    1
    38    10     2   ar
    39    39    33   ar
    40    10     5   ar
    41    26    20   ar
    42    15     8    1
    43    31    32    1
    44    18    19    1
@<TRIPOS>MOLECULE
*****
 40 44 0 0 0
SMALL
GASTEIGER

@<TRIPOS>ATOM
      1 C         -10.6749   -9.9368   33.5535 C.3     1  UNL1        0.1332
      2 N          -9.8315  -10.2304   32.3946 N.ar    1  UNL1       -0.2977
      3 C          -8.8375   -9.4681   31.8534 C.ar    1  UNL1        0.2018
      4 N          -8.2749  -10.0095   30.7426 N.ar    1  UNL1       -0.2135
      5 C          -8.9278  -11.1769   30.6114 C.ar    1  UNL1        0.0999
      6 C          -8.7112  -12.1629   29.6400 C.ar    1  UNL1        0.0282
      7 C          -9.4678  -13.3596   29.7128 C.ar    1  UNL1        0.0888
      8 C         -10.4246  -13.4796   30.7503 C.ar    1  UNL1        0.1401
      9 C         -10.6266  -12.4877   31.6826 C.ar    1  UNL1        0.0327
     10 C          -9.8577  -11.3223   31.6065 C.ar    1  UNL1        0.0789
     11 C         -11.6984  -12.8932   32.6334 C.3     1  UNL1        0.0709
     12 C         -12.0706  -14.3292   32.1381 C.3     1  UNL1        0.1375
     13 C         -11.7159  -15.3889   33.1901 C.3     1  UNL1        0.0439
     14 C         -13.5540  -14.4280   31.7583 C.3     1  UNL1        0.0439
     15 O         -11.2722  -14.5447   30.9733 O.3     1  UNL1       -0.4824
     16 C          -9.2581  -14.4293   28.7148 C.2     1  UNL1        0.2525
     17 O          -9.6389  -15.5998   28.9889 O.2     1  UNL1       -0.2697
     18 N          -8.6312  -14.1476   27.4500 N.am    1  UNL1       -0.2803
     19 H          -8.2956  -13.1780   27.2586 H       1  UNL1        0.1552
     20 C          -8.3602  -15.1420   26.4484 C.ar    1  UNL1        0.0510
     21 C          -9.1944  -16.2601   26.2819 C.ar    1  UNL1        0.0214
     22 C          -8.9316  -17.1912   25.2736 C.ar    1  UNL1        0.0357
     23 BR        -10.0827  -18.6984   25.0448 Br      1  UNL1       -0.0490
     24 C          -7.8393  -17.0121   24.4202 C.ar    1  UNL1        0.0106
     25 C          -6.9925  -15.9012   24.5728 C.ar    1  UNL1        0.0731
     26 C          -7.2813  -14.9546   25.5716 C.ar    1  UNL1        0.0186
     27 C          -5.8507  -15.6740   23.6140 C.3     1  UNL1        0.4186
     28 F          -5.2758  -16.8779   23.2450 F       1  UNL1       -0.1659
     29 F          -4.8934  -14.8862   24.2253 F       1  UNL1       -0.1659
     30 F          -6.2936  -15.0375   22.4674 F       1  UNL1       -0.1659
     31 N          -8.3798   -8.2199   32.3934 N.pl3   1  UNL1       -0.2814
     32 H          -8.6023   -8.0163   33.3937 H       1  UNL1        0.1551
     33 C          -7.6884   -7.2120   31.6378 C.ar    1  UNL1        0.0889
     34 C          -8.4375   -6.1977   31.0175 C.ar    1  UNL1        0.1543
     35 F          -9.7878   -6.1698   31.1467 F       1  UNL1       -0.2028
     36 C          -7.7986   -5.1934   30.2856 C.ar    1  UNL1        0.0310
     37 C          -6.4097   -5.1999   30.1516 C.ar    1  UNL1        0.0033
     38 C          -5.6557   -6.2183   30.7377 C.ar    1  UNL1        0.0128
     39 C          -6.2833   -7.2312   31.4734 C.ar    1  UNL1        0.0733
     40 CL         -5.2821   -8.5358   32.1009 Cl      1  UNL1       -0.0809
@<TRIPOS>BOND
     1     1     2    1
     2     2     3   ar
     3     3    31    1
     4    31    33    1
     5    33    34   ar
     6    34    35    1
     7    34    36   ar
     8    36    37   ar
     9    37    38   ar
    10    38    39   ar
    11    39    40    1
    12     3     4   ar
    13     4     5   ar
    14     5     6   ar
    15     6     7   ar
    16     7    16    1
    17    16    17    2
    18    16    18   am
    19    18    20    1
    20    20    21   ar
    21    21    22   ar
    22    22    23    1
    23    22    24   ar
    24    24    25   ar
    25    25    27    1
    26    27    28    1
    27    27    29    1
    28    27    30    1
    29    25    26   ar
    30     7     8   ar
    31     8     9   ar
    32     9    10   ar
    33     9    11    1
    34    11    12    1
    35    12    13    1
    36    12    14    1
    37    12    15    1
    38    10     2   ar
    39    39    33   ar
    40    10     5   ar
    41    26    20   ar
    42    15     8    1
    43    31    32    1
    44    18    19    1
@<TRIPOS>MOLECULE
*****
 40 44 0 0 0
SMALL
GASTEIGER

@<TRIPOS>ATOM
      1 C         -12.0478   -9.4131   33.1746 C.3     1  UNL1        0.1332
      2 N         -11.1365   -9.6566   32.0563 N.ar    1  UNL1       -0.2977
      3 C         -10.3568   -8.7595   31.3860 C.ar    1  UNL1        0.2018
      4 N          -9.6556   -9.3033   30.3582 N.ar    1  UNL1       -0.2135
      5 C          -9.9909  -10.6035   30.4181 C.ar    1  UNL1        0.0999
      6 C          -9.5152  -11.6383   29.6024 C.ar    1  UNL1        0.0282
      7 C          -9.9472  -12.9617   29.8704 C.ar    1  UNL1        0.0888
      8 C         -10.8618  -13.1604   30.9334 C.ar    1  UNL1        0.1401
      9 C         -11.3242  -12.1221   31.7093 C.ar    1  UNL1        0.0327
     10 C         -10.8723  -10.8261   31.4426 C.ar    1  UNL1        0.0789
     11 C         -12.2766  -12.6359   32.7322 C.3     1  UNL1        0.0709
     12 C         -12.2660  -14.1771   32.4670 C.3     1  UNL1        0.1375
     13 C         -11.6752  -14.9418   33.6593 C.3     1  UNL1        0.0439
     14 C         -13.6694  -14.7023   32.1369 C.3     1  UNL1        0.0439
     15 O         -11.4178  -14.3582   31.3319 O.3     1  UNL1       -0.4824
     16 C          -9.4566  -14.0823   29.0410 C.2     1  UNL1        0.2525
     17 O          -9.7428  -15.2620   29.3822 O.2     1  UNL1       -0.2697
     18 N          -8.6656  -13.8392   27.8632 N.am    1  UNL1       -0.2803
     19 H          -8.4145  -12.8560   27.6186 H       1  UNL1        0.1552
     20 C          -8.1228  -14.8778   27.0313 C.ar    1  UNL1        0.0510
     21 C          -6.7502  -15.1776   27.0361 C.ar    1  UNL1        0.0214
     22 C          -6.2540  -16.2196   26.2481 C.ar    1  UNL1        0.0357
     23 BR         -4.3886  -16.6301   26.2758 Br      1  UNL1       -0.0490
     24 C          -7.1223  -16.9741   25.4542 C.ar    1  UNL1        0.0106
     25 C          -8.4978  -16.6876   25.4348 C.ar    1  UNL1        0.0731
     26 C          -8.9921  -15.6561   26.2526 C.ar    1  UNL1        0.0186
     27 C          -9.4440  -17.5402   24.6271 C.3     1  UNL1        0.4186
     28 F         -10.4093  -16.7565   24.0185 F       1  UNL1       -0.1659
     29 F         -10.0637  -18.4496   25.4635 F       1  UNL1       -0.1659
     30 F          -8.7610  -18.2285   23.6393 F       1  UNL1       -0.1659
     31 N         -10.2382   -7.3695   31.7220 N.pl3   1  UNL1       -0.2814
     32 H         -11.0099   -6.9405   32.2805 H       1  UNL1        0.1551
     33 C          -9.1614   -6.5190   31.2954 C.ar    1  UNL1        0.0889
     34 C          -7.8693   -6.7618   31.7916 C.ar    1  UNL1        0.1543
     35 F          -7.6486   -7.7919   32.6467 F       1  UNL1       -0.2028
     36 C          -6.7953   -5.9639   31.3888 C.ar    1  UNL1        0.0310
     37 C          -7.0018   -4.9073   30.5012 C.ar    1  UNL1        0.0033
     38 C          -8.2853   -4.6363   30.0236 C.ar    1  UNL1        0.0128
     39 C          -9.3707   -5.4277   30.4196 C.ar    1  UNL1        0.0733
     40 CL        -10.9742   -4.9693   29.8569 Cl      1  UNL1       -0.0809
@<TRIPOS>BOND
     1     1     2    1
     2     2     3   ar
     3     3    31    1
     4    31    33    1
     5    33    34   ar
     6    34    35    1
     7    34    36   ar
     8    36    37   ar
     9    37    38   ar
    10    38    39   ar
    11    39    40    1
    12     3     4   ar
    13     4     5   ar
    14     5     6   ar
    15     6     7   ar
    16     7    16    1
    17    16    17    2
    18    16    18   am
    19    18    20    1
    20    20    21   ar
    21    21    22   ar
    22    22    23    1
    23    22    24   ar
    24    24    25   ar
    25    25    27    1
    26    27    28    1
    27    27    29    1
    28    27    30    1
    29    25    26   ar
    30     7     8   ar
    31     8     9   ar
    32     9    10   ar
    33     9    11    1
    34    11    12    1
    35    12    13    1
    36    12    14    1
    37    12    15    1
    38    10     2   ar
    39    39    33   ar
    40    10     5   ar
    41    26    20   ar
    42    15     8    1
    43    31    32    1
    44    18    19    1
