@<TRIPOS>MOLECULE
*****
 51 56 0 0 0
SMALL
GASTEIGER

@<TRIPOS>ATOM
      1 O          59.3242   87.7790   12.3975 O.2     1  UNL1       -0.2701
      2 C          60.0345   87.3516   11.4463 C.2     1  UNL1        0.2483
      3 N          60.8545   86.1864   11.6339 N.am    1  UNL1       -0.2945
      4 H          61.2024   85.6944   10.7814 H       1  UNL1        0.1501
      5 C          59.9745   88.0357   10.1344 C.ar    1  UNL1        0.0808
      6 C          59.4942   87.3407    9.0116 C.ar    1  UNL1        0.0080
      7 C          59.4386   87.9620    7.7615 C.ar    1  UNL1        0.0148
      8 C          59.8519   89.2934    7.6107 C.ar    1  UNL1        0.0502
      9 C          60.3179   89.9959    8.7332 C.ar    1  UNL1        0.0443
     10 C          60.3751   89.3779    9.9862 C.ar    1  UNL1        0.1457
     11 F          60.7720   90.1110   11.0559 F       1  UNL1       -0.2040
     12 N          59.7967   89.9266    6.3183 N.pl3   1  UNL1       -0.3040
     13 C          58.5174   90.3858    5.7665 C.3     1  UNL1        0.1123
     14 C          58.7061   91.7098    5.0212 C.3     1  UNL1        0.1136
     15 N          59.8686   91.6357    4.1244 N.pl3   1  UNL1       -0.2897
     16 C          61.1412   91.1625    4.6848 C.3     1  UNL1        0.1136
     17 C          60.9378   89.8297    5.4021 C.3     1  UNL1        0.1123
     18 C          59.8530   92.2683    2.8286 C.ar    1  UNL1        0.1318
     19 C          61.0330   92.7437    2.2337 C.ar    1  UNL1        0.0343
     20 C          60.9769   93.3480    0.9769 C.ar    1  UNL1        0.0083
     21 C          59.7476   93.4943    0.3171 C.ar    1  UNL1        0.0906
     22 C          58.5967   92.9753    0.9298 C.ar    1  UNL1        0.1041
     23 N          58.6762   92.3895    2.1538 N.ar    1  UNL1       -0.2292
     24 C          59.6805   94.0987   -1.0623 C.3     1  UNL1        0.4200
     25 F          58.5489   94.8845   -1.1962 F       1  UNL1       -0.1658
     26 F          60.7894   94.8918   -1.3018 F       1  UNL1       -0.1658
     27 F          59.6396   93.0855   -2.0017 F       1  UNL1       -0.1658
     28 C          60.9339   85.4904   12.9241 C.3     1  UNL1        0.1535
     29 C          60.4907   84.0546   12.7856 C.2     1  UNL1        0.2443
     30 O          60.7460   83.2263   13.7028 O.2     1  UNL1       -0.2730
     31 N          59.7789   83.6399   11.6089 N.am    1  UNL1       -0.2821
     32 H          59.7256   84.3131   10.8120 H       1  UNL1        0.1549
     33 C          59.2155   82.3270   11.4360 C.ar    1  UNL1        0.0589
     34 C          59.5026   81.2975   12.3483 C.ar    1  UNL1        0.0358
     35 C          58.9213   80.0398   12.1789 C.ar    1  UNL1        0.1002
     36 N          58.0740   79.8141   11.1420 N.ar    1  UNL1       -0.2417
     37 C          57.7656   80.7899   10.2485 C.ar    1  UNL1        0.1059
     38 C          58.3229   82.0669   10.3774 C.ar    1  UNL1        0.0542
     39 S          57.9086   83.3231    9.1639 S.3     1  UNL1       -0.1387
     40 H          58.9900   82.9594    8.3400 H       1  UNL1        0.1072
     41 C          62.3484   85.5964   13.5307 C.3     1  UNL1        0.0569
     42 C          62.4539   86.6124   14.6364 C.ar    1  UNL1       -0.0017
     43 C          62.0621   86.4372   15.9606 C.ar    1  UNL1        0.0681
     44 N          62.3388   87.5439   16.6867 N.ar    1  UNL1       -0.3523
     45 C          62.8995   88.4176   15.8328 C.ar    1  UNL1        0.0563
     46 C          63.3573   89.7029   16.1196 C.ar    1  UNL1        0.0170
     47 C          63.9141   90.4528   15.0674 C.ar    1  UNL1        0.0015
     48 C          63.9966   89.9087   13.7665 C.ar    1  UNL1        0.0001
     49 C          63.5243   88.6096   13.5062 C.ar    1  UNL1        0.0012
     50 C          62.9841   87.8871   14.5707 C.ar    1  UNL1        0.0131
     51 H          62.1532   87.6862   17.7044 H       1  UNL1        0.1660
@<TRIPOS>BOND
     1     1     2    2
     2     2     3   am
     3     3    28    1
     4    28    41    1
     5    41    42    1
     6    42    43   ar
     7    43    44   ar
     8    44    45   ar
     9    45    46   ar
    10    46    47   ar
    11    47    48   ar
    12    48    49   ar
    13    49    50   ar
    14    28    29    1
    15    29    30    2
    16    29    31   am
    17    31    33    1
    18    33    34   ar
    19    34    35   ar
    20    35    36   ar
    21    36    37   ar
    22    37    38   ar
    23    38    39    1
    24     2     5    1
    25     5     6   ar
    26     6     7   ar
    27     7     8   ar
    28     8    12    1
    29    12    13    1
    30    13    14    1
    31    14    15    1
    32    15    18    1
    33    18    19   ar
    34    19    20   ar
    35    20    21   ar
    36    21    24    1
    37    24    25    1
    38    24    26    1
    39    24    27    1
    40    21    22   ar
    41    22    23   ar
    42    15    16    1
    43    16    17    1
    44     8     9   ar
    45     9    10   ar
    46    10    11    1
    47    50    42   ar
    48    38    33   ar
    49    10     5   ar
    50    50    45   ar
    51    17    12    1
    52    23    18   ar
    53     3     4    1
    54    44    51    1
    55    31    32    1
    56    39    40    1
@<TRIPOS>MOLECULE
*****
 51 56 0 0 0
SMALL
GASTEIGER

@<TRIPOS>ATOM
      1 O          58.8209   87.3001   12.0788 O.2     1  UNL1       -0.2701
      2 C          59.9093   87.5074   11.4753 C.2     1  UNL1        0.2483
      3 N          61.1447   87.0543   12.0531 N.am    1  UNL1       -0.2945
      4 H          61.9764   86.9809   11.4265 H       1  UNL1        0.1501
      5 C          59.8883   88.1768   10.1547 C.ar    1  UNL1        0.0808
      6 C          59.4253   87.4746    9.0290 C.ar    1  UNL1        0.0080
      7 C          59.4065   88.0820    7.7709 C.ar    1  UNL1        0.0148
      8 C          59.8398   89.4063    7.6146 C.ar    1  UNL1        0.0502
      9 C          60.2885   90.1161    8.7395 C.ar    1  UNL1        0.0443
     10 C          60.3089   89.5121   10.0005 C.ar    1  UNL1        0.1457
     11 F          60.6902   90.2528   11.0707 F       1  UNL1       -0.2040
     12 N          59.8224   90.0250    6.3141 N.pl3   1  UNL1       -0.3040
     13 C          58.5635   90.5019    5.7316 C.3     1  UNL1        0.1123
     14 C          58.7924   91.8131    4.9749 C.3     1  UNL1        0.1136
     15 N          59.9708   91.7061    4.1025 N.pl3   1  UNL1       -0.2897
     16 C          61.2227   91.2155    4.6937 C.3     1  UNL1        0.1136
     17 C          60.9794   89.8954    5.4221 C.3     1  UNL1        0.1123
     18 C          59.9931   92.3234    2.7994 C.ar    1  UNL1        0.1318
     19 C          61.1868   92.8098    2.2420 C.ar    1  UNL1        0.0343
     20 C          61.1676   93.3986    0.9768 C.ar    1  UNL1        0.0083
     21 C          59.9612   93.5186    0.2711 C.ar    1  UNL1        0.0906
     22 C          58.7965   92.9893    0.8480 C.ar    1  UNL1        0.1041
     23 N          58.8400   92.4189    2.0810 N.ar    1  UNL1       -0.2292
     24 C          59.9355   94.1060   -1.1169 C.3     1  UNL1        0.4200
     25 F          61.0554   94.8894   -1.3362 F       1  UNL1       -0.1658
     26 F          59.9150   93.1030   -2.0707 F       1  UNL1       -0.1658
     27 F          58.8040   94.8871   -1.2599 F       1  UNL1       -0.1658
     28 C          61.1942   86.3899   13.3613 C.3     1  UNL1        0.1535
     29 C          60.5924   85.0083   13.2828 C.2     1  UNL1        0.2443
     30 O          59.3668   84.8411   13.5330 O.2     1  UNL1       -0.2730
     31 N          61.4199   83.8911   12.9220 N.am    1  UNL1       -0.2821
     32 H          62.4517   84.0468   12.8760 H       1  UNL1        0.1549
     33 C          60.9173   82.5596   12.7081 C.ar    1  UNL1        0.0589
     34 C          59.8634   82.3268   11.8083 C.ar    1  UNL1        0.0358
     35 C          59.4116   81.0238   11.5929 C.ar    1  UNL1        0.1002
     36 N          59.9943   79.9836   12.2431 N.ar    1  UNL1       -0.2417
     37 C          61.0227   80.1718   13.1106 C.ar    1  UNL1        0.1059
     38 C          61.5106   81.4596   13.3584 C.ar    1  UNL1        0.0542
     39 S          62.8557   81.6697   14.5282 S.3     1  UNL1       -0.1387
     40 H          61.9645   81.8249   15.6063 H       1  UNL1        0.1072
     41 C          62.6328   86.3564   13.9175 C.3     1  UNL1        0.0569
     42 C          62.9575   87.5200   14.8156 C.ar    1  UNL1       -0.0017
     43 C          62.9004   87.5323   16.2064 C.ar    1  UNL1        0.0681
     44 N          63.2970   88.7329   16.6860 N.ar    1  UNL1       -0.3523
     45 C          63.6017   89.4799   15.6108 C.ar    1  UNL1        0.0563
     46 C          64.0619   90.7960   15.6002 C.ar    1  UNL1        0.0170
     47 C          64.3205   91.3922   14.3524 C.ar    1  UNL1        0.0015
     48 C          64.1124   90.6692   13.1570 C.ar    1  UNL1        0.0001
     49 C          63.6450   89.3432   13.1984 C.ar    1  UNL1        0.0012
     50 C          63.4043   88.7758   14.4503 C.ar    1  UNL1        0.0131
     51 H          63.3539   89.0173   17.6891 H       1  UNL1        0.1660
@<TRIPOS>BOND
     1     1     2    2
     2     2     3   am
     3     3    28    1
     4    28    41    1
     5    41    42    1
     6    42    43   ar
     7    43    44   ar
     8    44    45   ar
     9    45    46   ar
    10    46    47   ar
    11    47    48   ar
    12    48    49   ar
    13    49    50   ar
    14    28    29    1
    15    29    30    2
    16    29    31   am
    17    31    33    1
    18    33    34   ar
    19    34    35   ar
    20    35    36   ar
    21    36    37   ar
    22    37    38   ar
    23    38    39    1
    24     2     5    1
    25     5     6   ar
    26     6     7   ar
    27     7     8   ar
    28     8    12    1
    29    12    13    1
    30    13    14    1
    31    14    15    1
    32    15    18    1
    33    18    19   ar
    34    19    20   ar
    35    20    21   ar
    36    21    24    1
    37    24    25    1
    38    24    26    1
    39    24    27    1
    40    21    22   ar
    41    22    23   ar
    42    15    16    1
    43    16    17    1
    44     8     9   ar
    45     9    10   ar
    46    10    11    1
    47    50    42   ar
    48    38    33   ar
    49    10     5   ar
    50    50    45   ar
    51    17    12    1
    52    23    18   ar
    53     3     4    1
    54    44    51    1
    55    31    32    1
    56    39    40    1
@<TRIPOS>MOLECULE
*****
 51 56 0 0 0
SMALL
GASTEIGER

@<TRIPOS>ATOM
      1 O          58.8536   86.9248   11.8433 O.2     1  UNL1       -0.2701
      2 C          59.8396   87.6321   11.4974 C.2     1  UNL1        0.2483
      3 N          60.9731   87.7550   12.3724 N.am    1  UNL1       -0.2945
      4 H          61.8695   88.0977   11.9614 H       1  UNL1        0.1501
      5 C          59.8291   88.2885   10.1702 C.ar    1  UNL1        0.0808
      6 C          59.4794   87.5436    9.0312 C.ar    1  UNL1        0.0080
      7 C          59.4730   88.1387    7.7673 C.ar    1  UNL1        0.0148
      8 C          59.8056   89.4927    7.6177 C.ar    1  UNL1        0.0502
      9 C          60.1406   90.2441    8.7551 C.ar    1  UNL1        0.0443
     10 C          60.1481   89.6523   10.0220 C.ar    1  UNL1        0.1457
     11 F          60.4161   90.4287   11.1013 F       1  UNL1       -0.2040
     12 N          59.8018   90.0990    6.3113 N.pl3   1  UNL1       -0.3040
     13 C          58.5453   90.5435    5.6987 C.3     1  UNL1        0.1123
     14 C          58.7618   91.8524    4.9345 C.3     1  UNL1        0.1136
     15 N          59.9600   91.7627    4.0873 N.pl3   1  UNL1       -0.2897
     16 C          61.2095   91.3044    4.7085 C.3     1  UNL1        0.1136
     17 C          60.9794   89.9861    5.4443 C.3     1  UNL1        0.1123
     18 C          59.9959   92.3685    2.7791 C.ar    1  UNL1        0.1318
     19 C          61.1538   93.0021    2.2992 C.ar    1  UNL1        0.0343
     20 C          61.1496   93.5746    1.0264 C.ar    1  UNL1        0.0083
     21 C          59.9917   93.5317    0.2357 C.ar    1  UNL1        0.0906
     22 C          58.8667   92.8595    0.7377 C.ar    1  UNL1        0.1041
     23 N          58.8948   92.3082    1.9798 N.ar    1  UNL1       -0.2292
     24 C          59.9902   94.1009   -1.1602 C.3     1  UNL1        0.4200
     25 F          58.8696   94.8871   -1.3653 F       1  UNL1       -0.1658
     26 F          61.1126   94.8836   -1.3690 F       1  UNL1       -0.1658
     27 F          59.9871   93.0642   -2.0746 F       1  UNL1       -0.1658
     28 C          61.0088   87.1165   13.6939 C.3     1  UNL1        0.1535
     29 C          61.6691   85.7619   13.6158 C.2     1  UNL1        0.2443
     30 O          61.1651   84.7804   14.2283 O.2     1  UNL1       -0.2730
     31 N          62.8685   85.5984   12.8426 N.am    1  UNL1       -0.2821
     32 H          63.3348   86.4611   12.4827 H       1  UNL1        0.1549
     33 C          63.5052   84.3284   12.6129 C.ar    1  UNL1        0.0589
     34 C          64.0801   83.6116   13.6761 C.ar    1  UNL1        0.0358
     35 C          64.6656   82.3674   13.4361 C.ar    1  UNL1        0.1002
     36 N          64.6716   81.8469   12.1818 N.ar    1  UNL1       -0.2417
     37 C          64.1147   82.5077   11.1336 C.ar    1  UNL1        0.1059
     38 C          63.5152   83.7575   11.3250 C.ar    1  UNL1        0.0542
     39 S          62.8101   84.6093    9.9110 S.3     1  UNL1       -0.1387
     40 H          64.0255   85.2610    9.6303 H       1  UNL1        0.1072
     41 C          61.6911   88.0263   14.7364 C.3     1  UNL1        0.0569
     42 C          62.7353   88.9370   14.1480 C.ar    1  UNL1       -0.0017
     43 C          63.1747   88.9468   12.8271 C.ar    1  UNL1        0.0681
     44 N          64.0924   89.9224   12.6406 N.ar    1  UNL1       -0.3523
     45 C          64.2387   90.5272   13.8321 C.ar    1  UNL1        0.0563
     46 C          65.0774   91.5982   14.1378 C.ar    1  UNL1        0.0170
     47 C          65.0742   92.0795   15.4599 C.ar    1  UNL1        0.0015
     48 C          64.2450   91.4842   16.4361 C.ar    1  UNL1        0.0001
     49 C          63.4106   90.4031   16.0991 C.ar    1  UNL1        0.0012
     50 C          63.4296   89.9522   14.7787 C.ar    1  UNL1        0.0131
     51 H          64.5846   90.1552   11.7496 H       1  UNL1        0.1660
@<TRIPOS>BOND
     1     1     2    2
     2     2     3   am
     3     3    28    1
     4    28    41    1
     5    41    42    1
     6    42    43   ar
     7    43    44   ar
     8    44    45   ar
     9    45    46   ar
    10    46    47   ar
    11    47    48   ar
    12    48    49   ar
    13    49    50   ar
    14    28    29    1
    15    29    30    2
    16    29    31   am
    17    31    33    1
    18    33    34   ar
    19    34    35   ar
    20    35    36   ar
    21    36    37   ar
    22    37    38   ar
    23    38    39    1
    24     2     5    1
    25     5     6   ar
    26     6     7   ar
    27     7     8   ar
    28     8    12    1
    29    12    13    1
    30    13    14    1
    31    14    15    1
    32    15    18    1
    33    18    19   ar
    34    19    20   ar
    35    20    21   ar
    36    21    24    1
    37    24    25    1
    38    24    26    1
    39    24    27    1
    40    21    22   ar
    41    22    23   ar
    42    15    16    1
    43    16    17    1
    44     8     9   ar
    45     9    10   ar
    46    10    11    1
    47    50    42   ar
    48    38    33   ar
    49    10     5   ar
    50    50    45   ar
    51    17    12    1
    52    23    18   ar
    53     3     4    1
    54    44    51    1
    55    31    32    1
    56    39    40    1
@<TRIPOS>MOLECULE
*****
 51 56 0 0 0
SMALL
GASTEIGER

@<TRIPOS>ATOM
      1 O          58.8411   86.4534   11.6862 O.2     1  UNL1       -0.2701
      2 C          59.4890   87.5237   11.5229 C.2     1  UNL1        0.2483
      3 N          60.1884   88.1123   12.6318 N.am    1  UNL1       -0.2945
      4 H          60.9298   88.8162   12.4206 H       1  UNL1        0.1501
      5 C          59.5541   88.1314   10.1742 C.ar    1  UNL1        0.0808
      6 C          59.8903   89.4893   10.0413 C.ar    1  UNL1        0.0080
      7 C          59.9474   90.0870    8.7798 C.ar    1  UNL1        0.0148
      8 C          59.6799   89.3373    7.6254 C.ar    1  UNL1        0.0502
      9 C          59.3588   87.9767    7.7531 C.ar    1  UNL1        0.0443
     10 C          59.3007   87.3745    9.0137 C.ar    1  UNL1        0.1457
     11 F          59.0486   86.0440    9.0883 F       1  UNL1       -0.2040
     12 N          59.7357   89.9607    6.3283 N.pl3   1  UNL1       -0.3040
     13 C          58.5137   90.4559    5.6854 C.3     1  UNL1        0.1123
     14 C          58.7971   91.7668    4.9467 C.3     1  UNL1        0.1136
     15 N          60.0163   91.6476    4.1340 N.pl3   1  UNL1       -0.2897
     16 C          61.2306   91.1386    4.7852 C.3     1  UNL1        0.1136
     17 C          60.9342   89.8193    5.4949 C.3     1  UNL1        0.1123
     18 C          60.1118   92.2691    2.8362 C.ar    1  UNL1        0.1318
     19 C          61.3491   92.4247    2.1902 C.ar    1  UNL1        0.0343
     20 C          61.3998   93.0292    0.9334 C.ar    1  UNL1        0.0083
     21 C          60.2245   93.4933    0.3242 C.ar    1  UNL1        0.0906
     22 C          59.0046   93.2881    0.9871 C.ar    1  UNL1        0.1041
     23 N          58.9800   92.6954    2.2101 N.ar    1  UNL1       -0.2292
     24 C          60.2595   94.1014   -1.0547 C.3     1  UNL1        0.4200
     25 F          60.2810   93.1131   -2.0235 F       1  UNL1       -0.1658
     26 F          59.1437   94.8924   -1.2675 F       1  UNL1       -0.1658
     27 F          61.3946   94.8803   -1.1801 F       1  UNL1       -0.1658
     28 C          60.1391   87.5317   13.9794 C.3     1  UNL1        0.1535
     29 C          61.1365   86.4074   14.1143 C.2     1  UNL1        0.2443
     30 O          60.8352   85.3753   14.7750 O.2     1  UNL1       -0.2730
     31 N          62.4241   86.5194   13.4877 N.am    1  UNL1       -0.2821
     32 H          62.6888   87.4465   13.0858 H       1  UNL1        0.1549
     33 C          63.3957   85.4581   13.4611 C.ar    1  UNL1        0.0589
     34 C          64.3799   85.3615   14.4594 C.ar    1  UNL1        0.0358
     35 C          65.2937   84.3068   14.4316 C.ar    1  UNL1        0.1002
     36 N          65.2265   83.3718   13.4489 N.ar    1  UNL1       -0.2417
     37 C          64.2808   83.4284   12.4751 C.ar    1  UNL1        0.1059
     38 C          63.3426   84.4665   12.4617 C.ar    1  UNL1        0.0542
     39 S          62.1229   84.5192   11.1457 S.3     1  UNL1       -0.1387
     40 H          62.9620   85.2978   10.3270 H       1  UNL1        0.1072
     41 C          60.3448   88.6118   15.0616 C.3     1  UNL1        0.0569
     42 C          61.7756   89.0577   15.2019 C.ar    1  UNL1       -0.0017
     43 C          62.5869   88.8939   16.3212 C.ar    1  UNL1        0.0681
     44 N          63.8264   89.3791   16.0827 N.ar    1  UNL1       -0.3523
     45 C          63.8049   89.8501   14.8239 C.ar    1  UNL1        0.0563
     46 C          64.8555   90.4460   14.1274 C.ar    1  UNL1        0.0170
     47 C          64.6129   90.8707   12.8083 C.ar    1  UNL1        0.0015
     48 C          63.3394   90.6954   12.2229 C.ar    1  UNL1        0.0001
     49 C          62.2974   90.0929   12.9506 C.ar    1  UNL1        0.0012
     50 C          62.5696   89.6752   14.2540 C.ar    1  UNL1        0.0131
     51 H          64.6337   89.3841   16.7450 H       1  UNL1        0.1660
@<TRIPOS>BOND
     1     1     2    2
     2     2     3   am
     3     3    28    1
     4    28    41    1
     5    41    42    1
     6    42    43   ar
     7    43    44   ar
     8    44    45   ar
     9    45    46   ar
    10    46    47   ar
    11    47    48   ar
    12    48    49   ar
    13    49    50   ar
    14    28    29    1
    15    29    30    2
    16    29    31   am
    17    31    33    1
    18    33    34   ar
    19    34    35   ar
    20    35    36   ar
    21    36    37   ar
    22    37    38   ar
    23    38    39    1
    24     2     5    1
    25     5     6   ar
    26     6     7   ar
    27     7     8   ar
    28     8    12    1
    29    12    13    1
    30    13    14    1
    31    14    15    1
    32    15    18    1
    33    18    19   ar
    34    19    20   ar
    35    20    21   ar
    36    21    24    1
    37    24    25    1
    38    24    26    1
    39    24    27    1
    40    21    22   ar
    41    22    23   ar
    42    15    16    1
    43    16    17    1
    44     8     9   ar
    45     9    10   ar
    46    10    11    1
    47    50    42   ar
    48    38    33   ar
    49    10     5   ar
    50    50    45   ar
    51    17    12    1
    52    23    18   ar
    53     3     4    1
    54    44    51    1
    55    31    32    1
    56    39    40    1
@<TRIPOS>MOLECULE
*****
 51 56 0 0 0
SMALL
GASTEIGER

@<TRIPOS>ATOM
      1 O          58.8626   87.5210   12.1498 O.2     1  UNL1       -0.2701
      2 C          59.9383   87.6353   11.5003 C.2     1  UNL1        0.2483
      3 N          61.1569   87.0918   12.0342 N.am    1  UNL1       -0.2945
      4 H          61.9538   86.9464   11.3757 H       1  UNL1        0.1501
      5 C          59.9158   88.2906   10.1727 C.ar    1  UNL1        0.0808
      6 C          59.5323   87.5511    9.0411 C.ar    1  UNL1        0.0080
      7 C          59.5139   88.1453    7.7767 C.ar    1  UNL1        0.0148
      8 C          59.8682   89.4928    7.6196 C.ar    1  UNL1        0.0502
      9 C          60.2371   90.2391    8.7499 C.ar    1  UNL1        0.0443
     10 C          60.2567   89.6484   10.0172 C.ar    1  UNL1        0.1457
     11 F          60.5580   90.4207   11.0905 F       1  UNL1       -0.2040
     12 N          59.8518   90.0979    6.3127 N.pl3   1  UNL1       -0.3040
     13 C          58.5898   90.5443    5.7129 C.3     1  UNL1        0.1123
     14 C          58.8008   91.8521    4.9452 C.3     1  UNL1        0.1136
     15 N          59.9898   91.7594    4.0856 N.pl3   1  UNL1       -0.2897
     16 C          61.2449   91.2993    4.6941 C.3     1  UNL1        0.1136
     17 C          61.0200   89.9821    5.4335 C.3     1  UNL1        0.1123
     18 C          60.0131   92.3639    2.7765 C.ar    1  UNL1        0.1318
     19 C          61.2060   92.8524    2.2189 C.ar    1  UNL1        0.0343
     20 C          61.1879   93.4286    0.9479 C.ar    1  UNL1        0.0083
     21 C          59.9835   93.5339    0.2365 C.ar    1  UNL1        0.0906
     22 C          58.8199   93.0029    0.8141 C.ar    1  UNL1        0.1041
     23 N          58.8623   92.4450    2.0529 N.ar    1  UNL1       -0.2292
     24 C          59.9594   94.1073   -1.1575 C.3     1  UNL1        0.4200
     25 F          58.8346   94.8925   -1.3427 F       1  UNL1       -0.1658
     26 F          61.0773   94.8922   -1.3814 F       1  UNL1       -0.1658
     27 F          59.9435   93.0734   -2.0748 F       1  UNL1       -0.1658
     28 C          61.2077   86.4390   13.3482 C.3     1  UNL1        0.1535
     29 C          60.5070   85.1031   13.3093 C.2     1  UNL1        0.2443
     30 O          59.8974   84.6828   14.3311 O.2     1  UNL1       -0.2730
     31 N          60.5379   84.3181   12.1068 N.am    1  UNL1       -0.2821
     32 H          61.1786   84.6276   11.3420 H       1  UNL1        0.1549
     33 C          59.8065   83.0908   11.9338 C.ar    1  UNL1        0.0589
     34 C          60.1627   81.9364   12.6516 C.ar    1  UNL1        0.0358
     35 C          59.4209   80.7649   12.4915 C.ar    1  UNL1        0.1002
     36 N          58.3532   80.7428   11.6526 N.ar    1  UNL1       -0.2417
     37 C          57.9744   81.8437   10.9524 C.ar    1  UNL1        0.1059
     38 C          58.6865   83.0414   11.0806 C.ar    1  UNL1        0.0542
     39 S          58.1686   84.4678   10.1218 S.3     1  UNL1       -0.1387
     40 H          59.0029   84.1137    9.0452 H       1  UNL1        0.1072
     41 C          62.6599   86.3088   13.8523 C.3     1  UNL1        0.0569
     42 C          63.3672   85.0834   13.3385 C.ar    1  UNL1       -0.0017
     43 C          64.0282   84.1276   14.1050 C.ar    1  UNL1        0.0681
     44 N          64.5146   83.1423   13.3169 N.ar    1  UNL1       -0.3523
     45 C          64.1692   83.4681   12.0593 C.ar    1  UNL1        0.0563
     46 C          64.4473   82.7528   10.8953 C.ar    1  UNL1        0.0170
     47 C          63.9885   83.2798    9.6741 C.ar    1  UNL1        0.0015
     48 C          63.2735   84.4976    9.6439 C.ar    1  UNL1        0.0001
     49 C          63.0097   85.1988   10.8343 C.ar    1  UNL1        0.0012
     50 C          63.4705   84.6481   12.0308 C.ar    1  UNL1        0.0131
     51 H          65.0492   82.3006   13.6269 H       1  UNL1        0.1660
@<TRIPOS>BOND
     1     1     2    2
     2     2     3   am
     3     3    28    1
     4    28    41    1
     5    41    42    1
     6    42    43   ar
     7    43    44   ar
     8    44    45   ar
     9    45    46   ar
    10    46    47   ar
    11    47    48   ar
    12    48    49   ar
    13    49    50   ar
    14    28    29    1
    15    29    30    2
    16    29    31   am
    17    31    33    1
    18    33    34   ar
    19    34    35   ar
    20    35    36   ar
    21    36    37   ar
    22    37    38   ar
    23    38    39    1
    24     2     5    1
    25     5     6   ar
    26     6     7   ar
    27     7     8   ar
    28     8    12    1
    29    12    13    1
    30    13    14    1
    31    14    15    1
    32    15    18    1
    33    18    19   ar
    34    19    20   ar
    35    20    21   ar
    36    21    24    1
    37    24    25    1
    38    24    26    1
    39    24    27    1
    40    21    22   ar
    41    22    23   ar
    42    15    16    1
    43    16    17    1
    44     8     9   ar
    45     9    10   ar
    46    10    11    1
    47    50    42   ar
    48    38    33   ar
    49    10     5   ar
    50    50    45   ar
    51    17    12    1
    52    23    18   ar
    53     3     4    1
    54    44    51    1
    55    31    32    1
    56    39    40    1
@<TRIPOS>MOLECULE
*****
 51 56 0 0 0
SMALL
GASTEIGER

@<TRIPOS>ATOM
      1 O          59.3456   84.5373   13.8864 O.2     1  UNL1       -0.2701
      2 C          60.3712   84.7774   13.1919 C.2     1  UNL1        0.2483
      3 N          61.5976   84.0787   13.4629 N.am    1  UNL1       -0.2945
      4 H          62.3313   84.0786   12.7203 H       1  UNL1        0.1501
      5 C          60.2790   85.7461   12.0759 C.ar    1  UNL1        0.0808
      6 C          59.1522   85.7313   11.2365 C.ar    1  UNL1        0.0080
      7 C          59.0482   86.6286   10.1707 C.ar    1  UNL1        0.0148
      8 C          60.0631   87.5654    9.9289 C.ar    1  UNL1        0.0502
      9 C          61.1831   87.5936   10.7746 C.ar    1  UNL1        0.0443
     10 C          61.2911   86.6974   11.8426 C.ar    1  UNL1        0.1457
     11 F          62.3588   86.7997   12.6725 F       1  UNL1       -0.2040
     12 N          59.9520   88.4844    8.8256 N.pl3   1  UNL1       -0.3040
     13 C          60.4227   89.8676    8.9564 C.3     1  UNL1        0.1123
     14 C          61.0782   90.3302    7.6523 C.3     1  UNL1        0.1136
     15 N          60.2337   89.9845    6.4997 N.pl3   1  UNL1       -0.2897
     16 C          59.7579   88.5996    6.3858 C.3     1  UNL1        0.1136
     17 C          59.0855   88.1649    7.6862 C.3     1  UNL1        0.1123
     18 C          60.1090   90.8750    5.3722 C.ar    1  UNL1        0.1318
     19 C          58.8823   91.4783    5.0503 C.ar    1  UNL1        0.0343
     20 C          58.8028   92.3364    3.9525 C.ar    1  UNL1        0.0083
     21 C          59.9369   92.5838    3.1649 C.ar    1  UNL1        0.0906
     22 C          61.1513   91.9887    3.5402 C.ar    1  UNL1        0.1041
     23 N          61.2047   91.1576    4.6144 N.ar    1  UNL1       -0.2292
     24 C          59.8763   93.5480    2.0078 C.3     1  UNL1        0.4200
     25 F          60.9847   93.4014    1.1918 F       1  UNL1       -0.1658
     26 F          58.7437   93.3233    1.2445 F       1  UNL1       -0.1658
     27 F          59.8426   94.8414    2.4943 F       1  UNL1       -0.1658
     28 C          61.7171   83.1149   14.5639 C.3     1  UNL1        0.1535
     29 C          61.2664   81.7432   14.1253 C.2     1  UNL1        0.2443
     30 O          61.9484   80.7279   14.4363 O.2     1  UNL1       -0.2730
     31 N          60.0614   81.6021   13.3564 N.am    1  UNL1       -0.2821
     32 H          59.6148   82.4727   12.9907 H       1  UNL1        0.1549
     33 C          59.4893   80.3329   12.9917 C.ar    1  UNL1        0.0589
     34 C          59.2259   79.3577   13.9686 C.ar    1  UNL1        0.0358
     35 C          58.6425   78.1452   13.5972 C.ar    1  UNL1        0.1002
     36 N          58.3218   77.9120   12.2983 N.ar    1  UNL1       -0.2417
     37 C          58.5520   78.8373   11.3305 C.ar    1  UNL1        0.1059
     38 C          59.1341   80.0678   11.6544 C.ar    1  UNL1        0.0542
     39 S          59.4429   81.2553   10.3442 S.3     1  UNL1       -0.1387
     40 H          60.7289   80.7362   10.1043 H       1  UNL1        0.1072
     41 C          63.1507   83.0912   15.1334 C.3     1  UNL1        0.0569
     42 C          63.8287   84.4349   15.1116 C.ar    1  UNL1       -0.0017
     43 C          65.0666   84.7276   14.5460 C.ar    1  UNL1        0.0681
     44 N          65.3473   86.0440   14.6759 N.ar    1  UNL1       -0.3523
     45 C          64.2992   86.5852   15.3206 C.ar    1  UNL1        0.0563
     46 C          64.1281   87.9212   15.6811 C.ar    1  UNL1        0.0170
     47 C          62.9452   88.2738   16.3563 C.ar    1  UNL1        0.0015
     48 C          61.9729   87.2940   16.6556 C.ar    1  UNL1        0.0001
     49 C          62.1738   85.9530   16.2816 C.ar    1  UNL1        0.0012
     50 C          63.3529   85.6344   15.6067 C.ar    1  UNL1        0.0131
     51 H          66.2053   86.5360   14.3413 H       1  UNL1        0.1660
@<TRIPOS>BOND
     1     1     2    2
     2     2     3   am
     3     3    28    1
     4    28    41    1
     5    41    42    1
     6    42    43   ar
     7    43    44   ar
     8    44    45   ar
     9    45    46   ar
    10    46    47   ar
    11    47    48   ar
    12    48    49   ar
    13    49    50   ar
    14    28    29    1
    15    29    30    2
    16    29    31   am
    17    31    33    1
    18    33    34   ar
    19    34    35   ar
    20    35    36   ar
    21    36    37   ar
    22    37    38   ar
    23    38    39    1
    24     2     5    1
    25     5     6   ar
    26     6     7   ar
    27     7     8   ar
    28     8    12    1
    29    12    13    1
    30    13    14    1
    31    14    15    1
    32    15    18    1
    33    18    19   ar
    34    19    20   ar
    35    20    21   ar
    36    21    24    1
    37    24    25    1
    38    24    26    1
    39    24    27    1
    40    21    22   ar
    41    22    23   ar
    42    15    16    1
    43    16    17    1
    44     8     9   ar
    45     9    10   ar
    46    10    11    1
    47    50    42   ar
    48    38    33   ar
    49    10     5   ar
    50    50    45   ar
    51    17    12    1
    52    23    18   ar
    53     3     4    1
    54    44    51    1
    55    31    32    1
    56    39    40    1
@<TRIPOS>MOLECULE
*****
 51 56 0 0 0
SMALL
GASTEIGER

@<TRIPOS>ATOM
      1 O          61.6800   86.7611   11.4353 O.2     1  UNL1       -0.2701
      2 C          61.2461   87.9430   11.3529 C.2     1  UNL1        0.2483
      3 N          61.0931   88.7330   12.5438 N.am    1  UNL1       -0.2945
      4 H          61.0095   89.7677   12.4333 H       1  UNL1        0.1501
      5 C          60.9444   88.5118   10.0195 C.ar    1  UNL1        0.0808
      6 C          61.3550   89.8207    9.7152 C.ar    1  UNL1        0.0080
      7 C          61.0721   90.3823    8.4676 C.ar    1  UNL1        0.0148
      8 C          60.3826   89.6433    7.4956 C.ar    1  UNL1        0.0502
      9 C          59.9843   88.3299    7.7904 C.ar    1  UNL1        0.0443
     10 C          60.2655   87.7640    9.0378 C.ar    1  UNL1        0.1457
     11 F          59.9188   86.4717    9.2592 F       1  UNL1       -0.2040
     12 N          60.0898   90.2297    6.2132 N.pl3   1  UNL1       -0.3040
     13 C          58.7065   90.5307    5.8287 C.3     1  UNL1        0.1123
     14 C          58.6476   91.8458    5.0469 C.3     1  UNL1        0.1136
     15 N          59.6851   91.8736    4.0056 N.pl3   1  UNL1       -0.2897
     16 C          61.0644   91.5583    4.3997 C.3     1  UNL1        0.1136
     17 C          61.1062   90.2321    5.1558 C.3     1  UNL1        0.1123
     18 C          59.4309   92.4637    2.7146 C.ar    1  UNL1        0.1318
     19 C          60.1503   93.5849    2.2697 C.ar    1  UNL1        0.0343
     20 C          59.8767   94.1256    1.0125 C.ar    1  UNL1        0.0083
     21 C          58.8786   93.5632    0.2030 C.ar    1  UNL1        0.0906
     22 C          58.2065   92.4229    0.6695 C.ar    1  UNL1        0.1041
     23 N          58.4912   91.9132    1.8970 N.ar    1  UNL1       -0.2292
     24 C          58.6089   94.1061   -1.1772 C.3     1  UNL1        0.4200
     25 F          57.4686   94.8906   -1.1787 F       1  UNL1       -0.1658
     26 F          59.6693   94.8823   -1.6118 F       1  UNL1       -0.1658
     27 F          58.4323   93.0524   -2.0543 F       1  UNL1       -0.1658
     28 C          61.3830   88.1934   13.8780 C.3     1  UNL1        0.1535
     29 C          62.4427   89.0161   14.5690 C.2     1  UNL1        0.2443
     30 O          63.1412   88.5006   15.4849 O.2     1  UNL1       -0.2730
     31 N          62.6502   90.3826   14.1780 N.am    1  UNL1       -0.2821
     32 H          61.9525   90.8129   13.5306 H       1  UNL1        0.1549
     33 C          63.7085   91.2102   14.6938 C.ar    1  UNL1        0.0589
     34 C          63.8371   91.4318   16.0755 C.ar    1  UNL1        0.0358
     35 C          64.8889   92.2130   16.5568 C.ar    1  UNL1        0.1002
     36 N          65.7904   92.7495   15.6943 N.ar    1  UNL1       -0.2417
     37 C          65.7025   92.5457   14.3539 C.ar    1  UNL1        0.1059
     38 C          64.6660   91.7690   13.8244 C.ar    1  UNL1        0.0542
     39 S          64.5710   91.5415   12.0464 S.3     1  UNL1       -0.1387
     40 H          63.7639   92.6838   11.8899 H       1  UNL1        0.1072
     41 C          60.1001   88.0830   14.7276 C.3     1  UNL1        0.0569
     42 C          58.9431   87.4620   13.9917 C.ar    1  UNL1       -0.0017
     43 C          57.7256   88.0708   13.7004 C.ar    1  UNL1        0.0681
     44 N          56.9344   87.2330   12.9929 N.ar    1  UNL1       -0.3523
     45 C          57.6399   86.0994   12.8367 C.ar    1  UNL1        0.0563
     46 C          57.2411   84.9421   12.1693 C.ar    1  UNL1        0.0170
     47 C          58.1437   83.8637   12.1262 C.ar    1  UNL1        0.0015
     48 C          59.4085   83.9639   12.7470 C.ar    1  UNL1        0.0001
     49 C          59.7828   85.1436   13.4154 C.ar    1  UNL1        0.0012
     50 C          58.8700   86.1989   13.4353 C.ar    1  UNL1        0.0131
     51 H          55.9715   87.4309   12.6408 H       1  UNL1        0.1660
@<TRIPOS>BOND
     1     1     2    2
     2     2     3   am
     3     3    28    1
     4    28    41    1
     5    41    42    1
     6    42    43   ar
     7    43    44   ar
     8    44    45   ar
     9    45    46   ar
    10    46    47   ar
    11    47    48   ar
    12    48    49   ar
    13    49    50   ar
    14    28    29    1
    15    29    30    2
    16    29    31   am
    17    31    33    1
    18    33    34   ar
    19    34    35   ar
    20    35    36   ar
    21    36    37   ar
    22    37    38   ar
    23    38    39    1
    24     2     5    1
    25     5     6   ar
    26     6     7   ar
    27     7     8   ar
    28     8    12    1
    29    12    13    1
    30    13    14    1
    31    14    15    1
    32    15    18    1
    33    18    19   ar
    34    19    20   ar
    35    20    21   ar
    36    21    24    1
    37    24    25    1
    38    24    26    1
    39    24    27    1
    40    21    22   ar
    41    22    23   ar
    42    15    16    1
    43    16    17    1
    44     8     9   ar
    45     9    10   ar
    46    10    11    1
    47    50    42   ar
    48    38    33   ar
    49    10     5   ar
    50    50    45   ar
    51    17    12    1
    52    23    18   ar
    53     3     4    1
    54    44    51    1
    55    31    32    1
    56    39    40    1
