@<TRIPOS>MOLECULE
*****
 51 56 0 0 0
SMALL
GASTEIGER

@<TRIPOS>ATOM
      1 O         -60.4191  -41.7812  -21.5030 O.2     1  UNL1       -0.2701
      2 C         -61.5065  -41.5250  -22.0892 C.2     1  UNL1        0.2483
      3 N         -62.4115  -40.5638  -21.5245 N.am    1  UNL1       -0.2945
      4 H         -63.1660  -40.1687  -22.1305 H       1  UNL1        0.1501
      5 C         -61.8157  -42.1971  -23.3708 C.ar    1  UNL1        0.0808
      6 C         -60.8685  -43.0612  -23.9474 C.ar    1  UNL1        0.0080
      7 C         -61.1381  -43.7029  -25.1590 C.ar    1  UNL1        0.0149
      8 C         -62.3630  -43.5009  -25.8061 C.ar    1  UNL1        0.0518
      9 C         -63.3175  -42.6529  -25.2313 C.ar    1  UNL1        0.0443
     10 C         -63.0527  -42.0072  -24.0194 C.ar    1  UNL1        0.1457
     11 F         -64.0241  -41.2394  -23.4644 F       1  UNL1       -0.2040
     12 N         -62.6392  -44.1555  -27.0536 N.pl3   1  UNL1       -0.2831
     13 C         -63.3666  -43.4096  -28.0884 C.3     1  UNL1        0.1144
     14 C         -63.3800  -44.1577  -29.4267 C.3     1  UNL1        0.1137
     15 N         -63.7282  -45.5740  -29.2303 N.pl3   1  UNL1       -0.2875
     16 C         -63.1540  -46.3174  -28.0944 C.3     1  UNL1        0.1430
     17 C         -62.0977  -45.4914  -27.3449 C.3     1  UNL1        0.2091
     18 O         -61.7346  -46.1527  -26.1590 O.3     1  UNL1       -0.3658
     19 H         -61.1513  -46.9120  -26.4216 H       1  UNL1        0.2123
     20 C         -64.4880  -46.2704  -30.2453 C.ar    1  UNL1        0.1318
     21 C         -64.9658  -45.6057  -31.3887 C.ar    1  UNL1        0.0343
     22 C         -65.6976  -46.3125  -32.3443 C.ar    1  UNL1        0.0083
     23 C         -65.9729  -47.6750  -32.1596 C.ar    1  UNL1        0.0906
     24 C         -65.4547  -48.3100  -31.0211 C.ar    1  UNL1        0.1041
     25 N         -64.7433  -47.6019  -30.1050 N.ar    1  UNL1       -0.2292
     26 C         -66.7181  -48.4600  -33.2086 C.3     1  UNL1        0.4200
     27 F         -66.9627  -49.7354  -32.7349 F       1  UNL1       -0.1658
     28 F         -65.9748  -48.5461  -34.3732 F       1  UNL1       -0.1658
     29 F         -67.9244  -47.8511  -33.5089 F       1  UNL1       -0.1658
     30 C         -62.2045  -39.9936  -20.1895 C.3     1  UNL1        0.1535
     31 C         -62.6980  -38.5727  -20.1576 C.2     1  UNL1        0.2443
     32 O         -62.3691  -37.7874  -21.0876 O.2     1  UNL1       -0.2730
     33 N         -63.4713  -38.0970  -19.0433 N.am    1  UNL1       -0.2825
     34 H         -63.4464  -38.6513  -18.1576 H       1  UNL1        0.1549
     35 C         -64.2085  -36.8629  -19.0445 C.ar    1  UNL1        0.0535
     36 C         -65.4992  -36.7776  -19.5941 C.ar    1  UNL1        0.0353
     37 C         -66.1884  -35.5630  -19.5480 C.ar    1  UNL1        0.1002
     38 N         -65.6188  -34.4765  -18.9629 N.ar    1  UNL1       -0.2422
     39 C         -64.3797  -34.5350  -18.4072 C.ar    1  UNL1        0.1002
     40 C         -63.6570  -35.7302  -18.4304 C.ar    1  UNL1        0.0353
     41 C         -62.9256  -40.8284  -19.1172 C.3     1  UNL1        0.0569
     42 C         -64.0004  -41.6819  -19.7260 C.ar    1  UNL1       -0.0017
     43 C         -64.1256  -43.0635  -19.6137 C.ar    1  UNL1        0.0681
     44 N         -65.2581  -43.4857  -20.2210 N.ar    1  UNL1       -0.3523
     45 C         -65.8526  -42.3823  -20.7071 C.ar    1  UNL1        0.0563
     46 C         -67.0609  -42.3083  -21.3987 C.ar    1  UNL1        0.0170
     47 C         -67.5110  -41.0376  -21.8018 C.ar    1  UNL1        0.0015
     48 C         -66.7536  -39.8825  -21.5052 C.ar    1  UNL1        0.0001
     49 C         -65.5387  -39.9873  -20.8037 C.ar    1  UNL1        0.0012
     50 C         -65.1167  -41.2608  -20.4213 C.ar    1  UNL1        0.0131
     51 H         -65.6045  -44.4689  -20.2832 H       1  UNL1        0.1660
@<TRIPOS>BOND
     1     1     2    2
     2     2     3   am
     3     3    30    1
     4    30    41    1
     5    41    42    1
     6    42    43   ar
     7    43    44   ar
     8    44    45   ar
     9    45    46   ar
    10    46    47   ar
    11    47    48   ar
    12    48    49   ar
    13    49    50   ar
    14    30    31    1
    15    31    32    2
    16    31    33   am
    17    33    35    1
    18    35    36   ar
    19    36    37   ar
    20    37    38   ar
    21    38    39   ar
    22    39    40   ar
    23     2     5    1
    24     5     6   ar
    25     6     7   ar
    26     7     8   ar
    27     8    12    1
    28    12    13    1
    29    13    14    1
    30    14    15    1
    31    15    20    1
    32    20    21   ar
    33    21    22   ar
    34    22    23   ar
    35    23    26    1
    36    26    27    1
    37    26    28    1
    38    26    29    1
    39    23    24   ar
    40    24    25   ar
    41    15    16    1
    42    16    17    1
    43    17    18    1
    44     8     9   ar
    45     9    10   ar
    46    10    11    1
    47    50    42   ar
    48    40    35   ar
    49    10     5   ar
    50    50    45   ar
    51    17    12    1
    52    25    20   ar
    53     3     4    1
    54    44    51    1
    55    33    34    1
    56    18    19    1
@<TRIPOS>MOLECULE
*****
 51 56 0 0 0
SMALL
GASTEIGER

@<TRIPOS>ATOM
      1 O         -60.4245  -46.3705  -25.8256 O.2     1  UNL1       -0.2701
      2 C         -61.5677  -45.8386  -25.7818 C.2     1  UNL1        0.2483
      3 N         -62.5677  -46.2181  -26.7398 N.am    1  UNL1       -0.2945
      4 H         -63.5664  -45.9802  -26.5436 H       1  UNL1        0.1501
      5 C         -61.8696  -44.8542  -24.7189 C.ar    1  UNL1        0.0808
      6 C         -62.1398  -43.5190  -25.0662 C.ar    1  UNL1        0.0080
      7 C         -62.4231  -42.5722  -24.0784 C.ar    1  UNL1        0.0149
      8 C         -62.4533  -42.9479  -22.7302 C.ar    1  UNL1        0.0518
      9 C         -62.1992  -44.2788  -22.3769 C.ar    1  UNL1        0.0443
     10 C         -61.9141  -45.2304  -23.3613 C.ar    1  UNL1        0.1457
     11 F         -61.7308  -46.5213  -22.9857 F       1  UNL1       -0.2040
     12 N         -62.7392  -41.9750  -21.7138 N.pl3   1  UNL1       -0.2831
     13 C         -64.1389  -41.7612  -21.3248 C.3     1  UNL1        0.1144
     14 C         -64.2552  -40.8691  -20.0832 C.3     1  UNL1        0.1137
     15 N         -63.3898  -39.6853  -20.2072 N.pl3   1  UNL1       -0.2875
     16 C         -62.0309  -39.8276  -20.7602 C.3     1  UNL1        0.1430
     17 C         -61.6553  -41.3003  -20.9840 C.3     1  UNL1        0.2091
     18 O         -60.4480  -41.3767  -21.6997 O.3     1  UNL1       -0.3658
     19 H         -59.7222  -41.1472  -21.0624 H       1  UNL1        0.2123
     20 C         -63.8108  -38.4286  -19.6277 C.ar    1  UNL1        0.1318
     21 C         -64.9181  -38.3537  -18.7641 C.ar    1  UNL1        0.0343
     22 C         -65.2944  -37.1215  -18.2272 C.ar    1  UNL1        0.0083
     23 C         -64.5852  -35.9583  -18.5597 C.ar    1  UNL1        0.0906
     24 C         -63.4689  -36.0774  -19.4009 C.ar    1  UNL1        0.1041
     25 N         -63.1202  -37.2880  -19.9104 N.ar    1  UNL1       -0.2292
     26 C         -64.9508  -34.6308  -17.9464 C.3     1  UNL1        0.4200
     27 F         -63.9050  -33.7443  -18.1229 F       1  UNL1       -0.1658
     28 F         -65.1997  -34.7712  -16.5920 F       1  UNL1       -0.1658
     29 F         -66.0869  -34.1132  -18.5441 F       1  UNL1       -0.1658
     30 C         -62.2567  -47.0750  -27.8884 C.3     1  UNL1        0.1535
     31 C         -61.2511  -46.3948  -28.7771 C.2     1  UNL1        0.2443
     32 O         -60.0451  -46.7598  -28.7312 O.2     1  UNL1       -0.2730
     33 N         -61.6465  -45.2932  -29.6114 N.am    1  UNL1       -0.2825
     34 H         -62.5454  -44.8085  -29.3893 H       1  UNL1        0.1549
     35 C         -60.8423  -44.7641  -30.6791 C.ar    1  UNL1        0.0535
     36 C         -59.4659  -45.0341  -30.7667 C.ar    1  UNL1        0.0353
     37 C         -58.7301  -44.5204  -31.8377 C.ar    1  UNL1        0.1002
     38 N         -59.3456  -43.7769  -32.7947 N.ar    1  UNL1       -0.2422
     39 C         -60.6785  -43.5156  -32.7452 C.ar    1  UNL1        0.1002
     40 C         -61.4513  -44.0112  -31.6924 C.ar    1  UNL1        0.0353
     41 C         -61.7171  -48.4395  -27.4263 C.3     1  UNL1        0.0569
     42 C         -62.4733  -48.9459  -26.2322 C.ar    1  UNL1       -0.0017
     43 C         -63.8496  -49.1312  -26.1394 C.ar    1  UNL1        0.0681
     44 N         -64.1727  -49.6791  -24.9457 N.ar    1  UNL1       -0.3523
     45 C         -63.0122  -49.8496  -24.2888 C.ar    1  UNL1        0.0563
     46 C         -62.8317  -50.4014  -23.0213 C.ar    1  UNL1        0.0170
     47 C         -61.5173  -50.5038  -22.5299 C.ar    1  UNL1        0.0015
     48 C         -60.4252  -50.0605  -23.3088 C.ar    1  UNL1        0.0001
     49 C         -60.6373  -49.5097  -24.5858 C.ar    1  UNL1        0.0012
     50 C         -61.9518  -49.4174  -25.0436 C.ar    1  UNL1        0.0131
     51 H         -65.1296  -49.9317  -24.6127 H       1  UNL1        0.1660
@<TRIPOS>BOND
     1     1     2    2
     2     2     3   am
     3     3    30    1
     4    30    41    1
     5    41    42    1
     6    42    43   ar
     7    43    44   ar
     8    44    45   ar
     9    45    46   ar
    10    46    47   ar
    11    47    48   ar
    12    48    49   ar
    13    49    50   ar
    14    30    31    1
    15    31    32    2
    16    31    33   am
    17    33    35    1
    18    35    36   ar
    19    36    37   ar
    20    37    38   ar
    21    38    39   ar
    22    39    40   ar
    23     2     5    1
    24     5     6   ar
    25     6     7   ar
    26     7     8   ar
    27     8    12    1
    28    12    13    1
    29    13    14    1
    30    14    15    1
    31    15    20    1
    32    20    21   ar
    33    21    22   ar
    34    22    23   ar
    35    23    26    1
    36    26    27    1
    37    26    28    1
    38    26    29    1
    39    23    24   ar
    40    24    25   ar
    41    15    16    1
    42    16    17    1
    43    17    18    1
    44     8     9   ar
    45     9    10   ar
    46    10    11    1
    47    50    42   ar
    48    40    35   ar
    49    10     5   ar
    50    50    45   ar
    51    17    12    1
    52    25    20   ar
    53     3     4    1
    54    44    51    1
    55    33    34    1
    56    18    19    1
@<TRIPOS>MOLECULE
*****
 51 56 0 0 0
SMALL
GASTEIGER

@<TRIPOS>ATOM
      1 O         -60.9013  -47.4988  -24.5676 O.2     1  UNL1       -0.2701
      2 C         -61.9069  -46.7508  -24.7123 C.2     1  UNL1        0.2483
      3 N         -62.9178  -47.0934  -25.6727 N.am    1  UNL1       -0.2945
      4 H         -63.8519  -46.6291  -25.6054 H       1  UNL1        0.1501
      5 C         -62.0441  -45.5471  -23.8625 C.ar    1  UNL1        0.0808
      6 C         -61.9519  -45.6699  -22.4651 C.ar    1  UNL1        0.0080
      7 C         -62.0827  -44.5471  -21.6438 C.ar    1  UNL1        0.0149
      8 C         -62.2947  -43.2831  -22.2068 C.ar    1  UNL1        0.0518
      9 C         -62.3737  -43.1500  -23.5984 C.ar    1  UNL1        0.0443
     10 C         -62.2446  -44.2704  -24.4253 C.ar    1  UNL1        0.1457
     11 F         -62.2684  -44.0936  -25.7703 F       1  UNL1       -0.2040
     12 N         -62.4344  -42.1294  -21.3638 N.pl3   1  UNL1       -0.2831
     13 C         -63.5167  -42.1157  -20.3714 C.3     1  UNL1        0.1144
     14 C         -63.3910  -40.9298  -19.4077 C.3     1  UNL1        0.1137
     15 N         -63.1202  -39.6845  -20.1437 N.pl3   1  UNL1       -0.2875
     16 C         -62.1661  -39.6920  -21.2672 C.3     1  UNL1        0.1430
     17 C         -61.4448  -41.0422  -21.3968 C.3     1  UNL1        0.2091
     18 O         -60.7094  -41.0721  -22.5942 O.3     1  UNL1       -0.3658
     19 H         -59.9080  -40.5036  -22.4525 H       1  UNL1        0.2123
     20 C         -63.6553  -38.4335  -19.6527 C.ar    1  UNL1        0.1318
     21 C         -64.8062  -38.3947  -18.8456 C.ar    1  UNL1        0.0343
     22 C         -65.2929  -37.1670  -18.3938 C.ar    1  UNL1        0.0083
     23 C         -64.6505  -35.9743  -18.7561 C.ar    1  UNL1        0.0906
     24 C         -63.4887  -36.0554  -19.5381 C.ar    1  UNL1        0.1041
     25 N         -63.0323  -37.2621  -19.9651 N.ar    1  UNL1       -0.2292
     26 C         -65.1370  -34.6471  -18.2327 C.3     1  UNL1        0.4200
     27 F         -66.2939  -34.2908  -18.9001 F       1  UNL1       -0.1658
     28 F         -64.1816  -33.6651  -18.4301 F       1  UNL1       -0.1658
     29 F         -65.4040  -34.7251  -16.8768 F       1  UNL1       -0.1658
     30 C         -62.7408  -48.1921  -26.6276 C.3     1  UNL1        0.1535
     31 C         -63.1136  -49.4980  -25.9804 C.2     1  UNL1        0.2443
     32 O         -63.7354  -50.3625  -26.6556 O.2     1  UNL1       -0.2730
     33 N         -62.8312  -49.7264  -24.5897 N.am    1  UNL1       -0.2825
     34 H         -62.6263  -48.8963  -23.9888 H       1  UNL1        0.1549
     35 C         -62.8959  -51.0158  -23.9572 C.ar    1  UNL1        0.0535
     36 C         -64.0170  -51.8509  -24.1023 C.ar    1  UNL1        0.0353
     37 C         -64.0234  -53.1073  -23.4911 C.ar    1  UNL1        0.1002
     38 N         -62.9465  -53.5231  -22.7735 N.ar    1  UNL1       -0.2422
     39 C         -61.8418  -52.7441  -22.6320 C.ar    1  UNL1        0.1002
     40 C         -61.7934  -51.4815  -23.2279 C.ar    1  UNL1        0.0353
     41 C         -63.5904  -47.9656  -27.8900 C.3     1  UNL1        0.0569
     42 C         -63.3512  -46.6004  -28.4674 C.ar    1  UNL1       -0.0017
     43 C         -64.3221  -45.6725  -28.8326 C.ar    1  UNL1        0.0681
     44 N         -63.7438  -44.5191  -29.2383 N.ar    1  UNL1       -0.3523
     45 C         -62.4177  -44.7079  -29.1236 C.ar    1  UNL1        0.0563
     46 C         -61.4059  -43.7914  -29.4066 C.ar    1  UNL1        0.0170
     47 C         -60.0749  -44.1952  -29.1943 C.ar    1  UNL1        0.0015
     48 C         -59.7885  -45.4898  -28.7066 C.ar    1  UNL1        0.0001
     49 C         -60.8303  -46.3931  -28.4276 C.ar    1  UNL1        0.0012
     50 C         -62.1390  -45.9653  -28.6522 C.ar    1  UNL1        0.0131
     51 H         -64.2328  -43.6541  -29.5595 H       1  UNL1        0.1660
@<TRIPOS>BOND
     1     1     2    2
     2     2     3   am
     3     3    30    1
     4    30    41    1
     5    41    42    1
     6    42    43   ar
     7    43    44   ar
     8    44    45   ar
     9    45    46   ar
    10    46    47   ar
    11    47    48   ar
    12    48    49   ar
    13    49    50   ar
    14    30    31    1
    15    31    32    2
    16    31    33   am
    17    33    35    1
    18    35    36   ar
    19    36    37   ar
    20    37    38   ar
    21    38    39   ar
    22    39    40   ar
    23     2     5    1
    24     5     6   ar
    25     6     7   ar
    26     7     8   ar
    27     8    12    1
    28    12    13    1
    29    13    14    1
    30    14    15    1
    31    15    20    1
    32    20    21   ar
    33    21    22   ar
    34    22    23   ar
    35    23    26    1
    36    26    27    1
    37    26    28    1
    38    26    29    1
    39    23    24   ar
    40    24    25   ar
    41    15    16    1
    42    16    17    1
    43    17    18    1
    44     8     9   ar
    45     9    10   ar
    46    10    11    1
    47    50    42   ar
    48    40    35   ar
    49    10     5   ar
    50    50    45   ar
    51    17    12    1
    52    25    20   ar
    53     3     4    1
    54    44    51    1
    55    33    34    1
    56    18    19    1
@<TRIPOS>MOLECULE
*****
 51 56 0 0 0
SMALL
GASTEIGER

@<TRIPOS>ATOM
      1 O         -60.4096  -41.4953  -21.2362 O.2     1  UNL1       -0.2701
      2 C         -61.5050  -41.3395  -21.8424 C.2     1  UNL1        0.2483
      3 N         -62.4869  -40.4322  -21.3186 N.am    1  UNL1       -0.2945
      4 H         -63.2605  -40.1136  -21.9451 H       1  UNL1        0.1501
      5 C         -61.7457  -42.0718  -23.1056 C.ar    1  UNL1        0.0808
      6 C         -63.0369  -42.0913  -23.6613 C.ar    1  UNL1        0.0080
      7 C         -63.2873  -42.7802  -24.8509 C.ar    1  UNL1        0.0149
      8 C         -62.2490  -43.4490  -25.5098 C.ar    1  UNL1        0.0518
      9 C         -60.9570  -43.4227  -24.9706 C.ar    1  UNL1        0.0443
     10 C         -60.7008  -42.7358  -23.7796 C.ar    1  UNL1        0.1457
     11 F         -59.4256  -42.6838  -23.3190 F       1  UNL1       -0.2040
     12 N         -62.5060  -44.1614  -26.7295 N.pl3   1  UNL1       -0.2831
     13 C         -62.9992  -43.4072  -27.8889 C.3     1  UNL1        0.1144
     14 C         -63.0045  -44.2602  -29.1630 C.3     1  UNL1        0.1137
     15 N         -63.5953  -45.5830  -28.9040 N.pl3   1  UNL1       -0.2875
     16 C         -63.2618  -46.3021  -27.6614 C.3     1  UNL1        0.1430
     17 C         -62.1629  -45.5852  -26.8624 C.3     1  UNL1        0.2091
     18 O         -62.0282  -46.1867  -25.5992 O.3     1  UNL1       -0.3658
     19 H         -61.5533  -47.0470  -25.7407 H       1  UNL1        0.2123
     20 C         -64.3564  -46.2415  -29.9430 C.ar    1  UNL1        0.1318
     21 C         -64.8515  -45.5313  -31.0513 C.ar    1  UNL1        0.0343
     22 C         -65.5840  -46.2025  -32.0317 C.ar    1  UNL1        0.0083
     23 C         -65.8428  -47.5750  -31.9064 C.ar    1  UNL1        0.0906
     24 C         -65.3076  -48.2548  -30.8021 C.ar    1  UNL1        0.1041
     25 N         -64.5960  -47.5807  -29.8609 N.ar    1  UNL1       -0.2292
     26 C         -66.5886  -48.3203  -32.9836 C.3     1  UNL1        0.4200
     27 F         -65.8286  -48.3331  -34.1381 F       1  UNL1       -0.1658
     28 F         -67.8020  -47.7092  -33.2488 F       1  UNL1       -0.1658
     29 F         -66.8371  -49.6246  -32.5924 F       1  UNL1       -0.1658
     30 C         -62.3413  -39.8076  -19.9999 C.3     1  UNL1        0.1535
     31 C         -62.9178  -38.4182  -20.0251 C.2     1  UNL1        0.2443
     32 O         -62.6577  -37.6631  -21.0009 O.2     1  UNL1       -0.2730
     33 N         -63.6923  -37.9326  -18.9159 N.am    1  UNL1       -0.2825
     34 H         -63.6140  -38.4390  -18.0050 H       1  UNL1        0.1549
     35 C         -64.5017  -36.7453  -18.9588 C.ar    1  UNL1        0.0535
     36 C         -64.0863  -35.5494  -18.3487 C.ar    1  UNL1        0.0353
     37 C         -64.8941  -34.4130  -18.4400 C.ar    1  UNL1        0.1002
     38 N         -66.0662  -34.4618  -19.1264 N.ar    1  UNL1       -0.2422
     39 C         -66.4837  -35.5995  -19.7417 C.ar    1  UNL1        0.1002
     40 C         -65.7056  -36.7578  -19.6763 C.ar    1  UNL1        0.0353
     41 C         -63.0342  -40.6483  -18.9137 C.3     1  UNL1        0.0569
     42 C         -64.2884  -41.2854  -19.4384 C.ar    1  UNL1       -0.0017
     43 C         -65.5001  -40.6481  -19.6894 C.ar    1  UNL1        0.0681
     44 N         -66.3848  -41.5141  -20.2343 N.ar    1  UNL1       -0.3523
     45 C         -65.7394  -42.6888  -20.3378 C.ar    1  UNL1        0.0563
     46 C         -66.2351  -43.8823  -20.8608 C.ar    1  UNL1        0.0170
     47 C         -65.3740  -44.9946  -20.8913 C.ar    1  UNL1        0.0015
     48 C         -64.0511  -44.8894  -20.4069 C.ar    1  UNL1        0.0001
     49 C         -63.5772  -43.6714  -19.8866 C.ar    1  UNL1        0.0012
     50 C         -64.4557  -42.5879  -19.8657 C.ar    1  UNL1        0.0131
     51 H         -67.3645  -41.3040  -20.5284 H       1  UNL1        0.1660
@<TRIPOS>BOND
     1     1     2    2
     2     2     3   am
     3     3    30    1
     4    30    41    1
     5    41    42    1
     6    42    43   ar
     7    43    44   ar
     8    44    45   ar
     9    45    46   ar
    10    46    47   ar
    11    47    48   ar
    12    48    49   ar
    13    49    50   ar
    14    30    31    1
    15    31    32    2
    16    31    33   am
    17    33    35    1
    18    35    36   ar
    19    36    37   ar
    20    37    38   ar
    21    38    39   ar
    22    39    40   ar
    23     2     5    1
    24     5     6   ar
    25     6     7   ar
    26     7     8   ar
    27     8    12    1
    28    12    13    1
    29    13    14    1
    30    14    15    1
    31    15    20    1
    32    20    21   ar
    33    21    22   ar
    34    22    23   ar
    35    23    26    1
    36    26    27    1
    37    26    28    1
    38    26    29    1
    39    23    24   ar
    40    24    25   ar
    41    15    16    1
    42    16    17    1
    43    17    18    1
    44     8     9   ar
    45     9    10   ar
    46    10    11    1
    47    50    42   ar
    48    40    35   ar
    49    10     5   ar
    50    50    45   ar
    51    17    12    1
    52    25    20   ar
    53     3     4    1
    54    44    51    1
    55    33    34    1
    56    18    19    1
@<TRIPOS>MOLECULE
*****
 51 56 0 0 0
SMALL
GASTEIGER

@<TRIPOS>ATOM
      1 O         -61.3560  -47.0618  -25.6856 O.2     1  UNL1       -0.2701
      2 C         -62.2009  -46.1411  -25.8593 C.2     1  UNL1        0.2483
      3 N         -63.0380  -46.1525  -27.0259 N.am    1  UNL1       -0.2945
      4 H         -63.8943  -45.5531  -27.0349 H       1  UNL1        0.1501
      5 C         -62.3382  -45.0800  -24.8369 C.ar    1  UNL1        0.0808
      6 C         -62.1367  -45.3924  -23.4811 C.ar    1  UNL1        0.0080
      7 C         -62.2655  -44.4070  -22.4990 C.ar    1  UNL1        0.0149
      8 C         -62.5848  -43.0920  -22.8578 C.ar    1  UNL1        0.0518
      9 C         -62.7732  -42.7694  -24.2072 C.ar    1  UNL1        0.0443
     10 C         -62.6467  -43.7519  -25.1944 C.ar    1  UNL1        0.1457
     11 F         -62.7791  -43.3893  -26.4952 F       1  UNL1       -0.2040
     12 N         -62.7225  -42.0796  -21.8492 N.pl3   1  UNL1       -0.2831
     13 C         -63.9892  -41.9960  -21.1111 C.3     1  UNL1        0.1144
     14 C         -63.8957  -41.0263  -19.9271 C.3     1  UNL1        0.1137
     15 N         -63.2546  -39.7654  -20.3334 N.pl3   1  UNL1       -0.2875
     16 C         -62.0788  -39.7962  -21.2218 C.3     1  UNL1        0.1430
     17 C         -61.5845  -41.2297  -21.4679 C.3     1  UNL1        0.2091
     18 O         -60.6046  -41.2254  -22.4755 O.3     1  UNL1       -0.3658
     19 H         -59.7750  -40.8645  -22.0667 H       1  UNL1        0.2123
     20 C         -63.6719  -38.5224  -19.7226 C.ar    1  UNL1        0.1318
     21 C         -64.7064  -38.4841  -18.7708 C.ar    1  UNL1        0.0343
     22 C         -65.0818  -37.2641  -18.2061 C.ar    1  UNL1        0.0083
     23 C         -64.4451  -36.0774  -18.5973 C.ar    1  UNL1        0.0906
     24 C         -63.3983  -36.1594  -19.5275 C.ar    1  UNL1        0.1041
     25 N         -63.0489  -37.3587  -20.0626 N.ar    1  UNL1       -0.2292
     26 C         -64.8071  -34.7614  -17.9575 C.3     1  UNL1        0.4200
     27 F         -63.7541  -33.8783  -18.1055 F       1  UNL1       -0.1658
     28 F         -65.0681  -34.9303  -16.6086 F       1  UNL1       -0.1658
     29 F         -65.9348  -34.2229  -18.5526 F       1  UNL1       -0.1658
     30 C         -62.8267  -47.1015  -28.1236 C.3     1  UNL1        0.1535
     31 C         -64.0067  -47.0761  -29.0565 C.2     1  UNL1        0.2443
     32 O         -64.6925  -46.0222  -29.1506 O.2     1  UNL1       -0.2730
     33 N         -64.3917  -48.2609  -29.7735 N.am    1  UNL1       -0.2825
     34 H         -64.0256  -49.1792  -29.4346 H       1  UNL1        0.1549
     35 C         -65.3153  -48.2696  -30.8751 C.ar    1  UNL1        0.0535
     36 C         -65.1932  -47.3660  -31.9446 C.ar    1  UNL1        0.0353
     37 C         -66.0986  -47.4300  -33.0070 C.ar    1  UNL1        0.1002
     38 N         -67.0810  -48.3693  -33.0112 N.ar    1  UNL1       -0.2422
     39 C         -67.2113  -49.2674  -31.9993 C.ar    1  UNL1        0.1002
     40 C         -66.3264  -49.2391  -30.9188 C.ar    1  UNL1        0.0353
     41 C         -61.5361  -46.7729  -28.8938 C.3     1  UNL1        0.0569
     42 C         -61.2997  -45.2912  -28.9492 C.ar    1  UNL1       -0.0017
     43 C         -60.4197  -44.5614  -28.1553 C.ar    1  UNL1        0.0681
     44 N         -60.4058  -43.2636  -28.5362 N.ar    1  UNL1       -0.3523
     45 C         -61.2617  -43.1703  -29.5687 C.ar    1  UNL1        0.0563
     46 C         -61.5704  -42.0306  -30.3101 C.ar    1  UNL1        0.0170
     47 C         -62.4861  -42.1640  -31.3701 C.ar    1  UNL1        0.0015
     48 C         -63.0635  -43.4195  -31.6637 C.ar    1  UNL1        0.0001
     49 C         -62.7315  -44.5531  -30.8997 C.ar    1  UNL1        0.0012
     50 C         -61.8242  -44.3884  -29.8529 C.ar    1  UNL1        0.0131
     51 H         -59.8326  -42.4964  -28.1200 H       1  UNL1        0.1660
@<TRIPOS>BOND
     1     1     2    2
     2     2     3   am
     3     3    30    1
     4    30    41    1
     5    41    42    1
     6    42    43   ar
     7    43    44   ar
     8    44    45   ar
     9    45    46   ar
    10    46    47   ar
    11    47    48   ar
    12    48    49   ar
    13    49    50   ar
    14    30    31    1
    15    31    32    2
    16    31    33   am
    17    33    35    1
    18    35    36   ar
    19    36    37   ar
    20    37    38   ar
    21    38    39   ar
    22    39    40   ar
    23     2     5    1
    24     5     6   ar
    25     6     7   ar
    26     7     8   ar
    27     8    12    1
    28    12    13    1
    29    13    14    1
    30    14    15    1
    31    15    20    1
    32    20    21   ar
    33    21    22   ar
    34    22    23   ar
    35    23    26    1
    36    26    27    1
    37    26    28    1
    38    26    29    1
    39    23    24   ar
    40    24    25   ar
    41    15    16    1
    42    16    17    1
    43    17    18    1
    44     8     9   ar
    45     9    10   ar
    46    10    11    1
    47    50    42   ar
    48    40    35   ar
    49    10     5   ar
    50    50    45   ar
    51    17    12    1
    52    25    20   ar
    53     3     4    1
    54    44    51    1
    55    33    34    1
    56    18    19    1
@<TRIPOS>MOLECULE
*****
 51 56 0 0 0
SMALL
GASTEIGER

@<TRIPOS>ATOM
      1 O         -63.1918  -54.6771  -22.3358 O.2     1  UNL1       -0.2701
      2 C         -64.1198  -53.8824  -22.6503 C.2     1  UNL1        0.2483
      3 N         -65.4762  -54.1952  -22.2979 N.am    1  UNL1       -0.2945
      4 H         -66.1899  -53.4320  -22.3233 H       1  UNL1        0.1501
      5 C         -63.7889  -52.6209  -23.3495 C.ar    1  UNL1        0.0808
      6 C         -64.6144  -52.1692  -24.3939 C.ar    1  UNL1        0.0080
      7 C         -64.3181  -50.9831  -25.0705 C.ar    1  UNL1        0.0149
      8 C         -63.2001  -50.2239  -24.7052 C.ar    1  UNL1        0.0518
      9 C         -62.3806  -50.6595  -23.6566 C.ar    1  UNL1        0.0443
     10 C         -62.6717  -51.8464  -22.9768 C.ar    1  UNL1        0.1457
     11 F         -61.8884  -52.2057  -21.9287 F       1  UNL1       -0.2040
     12 N         -62.8916  -49.0077  -25.4029 N.pl3   1  UNL1       -0.2831
     13 C         -63.9729  -48.3193  -26.1193 C.3     1  UNL1        0.1144
     14 C         -63.5378  -46.9345  -26.6130 C.3     1  UNL1        0.1137
     15 N         -62.2192  -47.0018  -27.2631 N.pl3   1  UNL1       -0.2875
     16 C         -61.1522  -47.8267  -26.6685 C.3     1  UNL1        0.1430
     17 C         -61.5606  -48.3910  -25.2993 C.3     1  UNL1        0.2091
     18 O         -60.6067  -49.3305  -24.8716 O.3     1  UNL1       -0.3658
     19 H         -59.8113  -48.8161  -24.5742 H       1  UNL1        0.2123
     20 C         -61.9261  -46.1265  -28.3768 C.ar    1  UNL1        0.1318
     21 C         -60.6118  -45.7130  -28.6583 C.ar    1  UNL1        0.0343
     22 C         -60.3702  -44.8657  -29.7408 C.ar    1  UNL1        0.0083
     23 C         -61.4329  -44.4120  -30.5354 C.ar    1  UNL1        0.0906
     24 C         -62.7260  -44.8694  -30.2413 C.ar    1  UNL1        0.1041
     25 N         -62.9370  -45.6955  -29.1831 N.ar    1  UNL1       -0.2292
     26 C         -61.1785  -43.5381  -31.7369 C.3     1  UNL1        0.4200
     27 F         -61.1860  -42.2124  -31.3456 F       1  UNL1       -0.1658
     28 F         -62.1575  -43.7309  -32.6963 F       1  UNL1       -0.1658
     29 F         -59.9514  -43.8340  -32.3049 F       1  UNL1       -0.1658
     30 C         -65.8525  -55.4980  -21.7399 C.3     1  UNL1        0.1535
     31 C         -66.8951  -55.3151  -20.6708 C.2     1  UNL1        0.2443
     32 O         -67.2654  -54.1486  -20.3674 O.2     1  UNL1       -0.2730
     33 N         -67.4065  -56.4504  -19.9528 N.am    1  UNL1       -0.2825
     34 H         -66.8584  -57.3396  -19.9879 H       1  UNL1        0.1549
     35 C         -68.5792  -56.4148  -19.1220 C.ar    1  UNL1        0.0535
     36 C         -69.6942  -57.2280  -19.3880 C.ar    1  UNL1        0.0353
     37 C         -70.8010  -57.1790  -18.5366 C.ar    1  UNL1        0.1002
     38 N         -70.7920  -56.3606  -17.4514 N.ar    1  UNL1       -0.2422
     39 C         -69.7202  -55.5772  -17.1597 C.ar    1  UNL1        0.1002
     40 C         -68.5926  -55.5968  -17.9840 C.ar    1  UNL1        0.0353
     41 C         -66.3809  -56.4352  -22.8395 C.3     1  UNL1        0.0569
     42 C         -67.3453  -55.7223  -23.7429 C.ar    1  UNL1       -0.0017
     43 C         -67.0254  -54.9705  -24.8697 C.ar    1  UNL1        0.0681
     44 N         -68.1505  -54.5435  -25.4872 N.ar    1  UNL1       -0.3523
     45 C         -69.1766  -55.0267  -24.7656 C.ar    1  UNL1        0.0563
     46 C         -70.5381  -54.8678  -25.0207 C.ar    1  UNL1        0.0170
     47 C         -71.4480  -55.4806  -24.1396 C.ar    1  UNL1        0.0015
     48 C         -70.9821  -56.2325  -23.0380 C.ar    1  UNL1        0.0001
     49 C         -69.6021  -56.3777  -22.8065 C.ar    1  UNL1        0.0012
     50 C         -68.7250  -55.7550  -23.6948 C.ar    1  UNL1        0.0131
     51 H         -68.2060  -53.9687  -26.3572 H       1  UNL1        0.1660
@<TRIPOS>BOND
     1     1     2    2
     2     2     3   am
     3     3    30    1
     4    30    41    1
     5    41    42    1
     6    42    43   ar
     7    43    44   ar
     8    44    45   ar
     9    45    46   ar
    10    46    47   ar
    11    47    48   ar
    12    48    49   ar
    13    49    50   ar
    14    30    31    1
    15    31    32    2
    16    31    33   am
    17    33    35    1
    18    35    36   ar
    19    36    37   ar
    20    37    38   ar
    21    38    39   ar
    22    39    40   ar
    23     2     5    1
    24     5     6   ar
    25     6     7   ar
    26     7     8   ar
    27     8    12    1
    28    12    13    1
    29    13    14    1
    30    14    15    1
    31    15    20    1
    32    20    21   ar
    33    21    22   ar
    34    22    23   ar
    35    23    26    1
    36    26    27    1
    37    26    28    1
    38    26    29    1
    39    23    24   ar
    40    24    25   ar
    41    15    16    1
    42    16    17    1
    43    17    18    1
    44     8     9   ar
    45     9    10   ar
    46    10    11    1
    47    50    42   ar
    48    40    35   ar
    49    10     5   ar
    50    50    45   ar
    51    17    12    1
    52    25    20   ar
    53     3     4    1
    54    44    51    1
    55    33    34    1
    56    18    19    1
@<TRIPOS>MOLECULE
*****
 51 56 0 0 0
SMALL
GASTEIGER

@<TRIPOS>ATOM
      1 O         -60.8922  -47.2298  -24.7869 O.2     1  UNL1       -0.2701
      2 C         -61.9188  -46.5058  -24.9034 C.2     1  UNL1        0.2483
      3 N         -62.9271  -46.8483  -25.8666 N.am    1  UNL1       -0.2945
      4 H         -63.8729  -46.4118  -25.7798 H       1  UNL1        0.1501
      5 C         -62.0823  -45.3310  -24.0185 C.ar    1  UNL1        0.0808
      6 C         -61.9942  -45.4943  -22.6249 C.ar    1  UNL1        0.0080
      7 C         -62.1497  -44.3994  -21.7709 C.ar    1  UNL1        0.0149
      8 C         -62.3827  -43.1231  -22.2966 C.ar    1  UNL1        0.0518
      9 C         -62.4577  -42.9495  -23.6840 C.ar    1  UNL1        0.0443
     10 C         -62.3040  -44.0419  -24.5435 C.ar    1  UNL1        0.1457
     11 F         -62.3249  -43.8250  -25.8828 F       1  UNL1       -0.2040
     12 N         -62.5478  -41.9982  -21.4200 N.pl3   1  UNL1       -0.2831
     13 C         -63.7083  -41.9773  -20.5206 C.3     1  UNL1        0.1144
     14 C         -63.6180  -40.8361  -19.5005 C.3     1  UNL1        0.1137
     15 N         -63.2380  -39.5758  -20.1584 N.pl3   1  UNL1       -0.2875
     16 C         -62.1938  -39.5799  -21.1987 C.3     1  UNL1        0.1430
     17 C         -61.5173  -40.9533  -21.3253 C.3     1  UNL1        0.2091
     18 O         -60.6855  -40.9678  -22.4582 O.3     1  UNL1       -0.3658
     19 H         -59.8773  -40.4396  -22.2270 H       1  UNL1        0.2123
     20 C         -63.7633  -38.3233  -19.6607 C.ar    1  UNL1        0.1318
     21 C         -65.0624  -38.2321  -19.1300 C.ar    1  UNL1        0.0343
     22 C         -65.5338  -37.0045  -18.6622 C.ar    1  UNL1        0.0083
     23 C         -64.7253  -35.8611  -18.7363 C.ar    1  UNL1        0.0906
     24 C         -63.4251  -35.9975  -19.2449 C.ar    1  UNL1        0.1041
     25 N         -62.9871  -37.2033  -19.6931 N.ar    1  UNL1       -0.2292
     26 C         -65.2045  -34.5413  -18.1879 C.3     1  UNL1        0.4200
     27 F         -66.4310  -34.2344  -18.7468 F       1  UNL1       -0.1658
     28 F         -64.3060  -33.5326  -18.4896 F       1  UNL1       -0.1658
     29 F         -65.3388  -34.6043  -16.8117 F       1  UNL1       -0.1658
     30 C         -62.7274  -47.9140  -26.8539 C.3     1  UNL1        0.1535
     31 C         -63.1867  -49.2297  -26.2869 C.2     1  UNL1        0.2443
     32 O         -63.7925  -50.0432  -27.0361 O.2     1  UNL1       -0.2730
     33 N         -63.0040  -49.5231  -24.8918 N.am    1  UNL1       -0.2825
     34 H         -62.8104  -48.7256  -24.2448 H       1  UNL1        0.1549
     35 C         -63.1546  -50.8331  -24.3192 C.ar    1  UNL1        0.0535
     36 C         -62.1831  -51.3773  -23.4616 C.ar    1  UNL1        0.0353
     37 C         -62.3857  -52.6436  -22.9071 C.ar    1  UNL1        0.1002
     38 N         -63.5213  -53.3370  -23.1848 N.ar    1  UNL1       -0.2422
     39 C         -64.4858  -52.8276  -23.9958 C.ar    1  UNL1        0.1002
     40 C         -64.3237  -51.5644  -24.5698 C.ar    1  UNL1        0.0353
     41 C         -63.4854  -47.6057  -28.1566 C.3     1  UNL1        0.0569
     42 C         -63.1215  -46.2494  -28.6881 C.ar    1  UNL1       -0.0017
     43 C         -61.8364  -45.7620  -28.9078 C.ar    1  UNL1        0.0681
     44 N         -61.8876  -44.5329  -29.4701 N.ar    1  UNL1       -0.3523
     45 C         -63.1926  -44.2448  -29.6154 C.ar    1  UNL1        0.0563
     46 C         -63.7469  -43.0917  -30.1695 C.ar    1  UNL1        0.0170
     47 C         -65.1495  -43.0059  -30.2420 C.ar    1  UNL1        0.0015
     48 C         -65.9570  -44.0635  -29.7676 C.ar    1  UNL1        0.0001
     49 C         -65.3697  -45.2164  -29.2152 C.ar    1  UNL1        0.0012
     50 C         -63.9771  -45.2703  -29.1530 C.ar    1  UNL1        0.0131
     51 H         -61.0751  -43.9387  -29.7481 H       1  UNL1        0.1660
@<TRIPOS>BOND
     1     1     2    2
     2     2     3   am
     3     3    30    1
     4    30    41    1
     5    41    42    1
     6    42    43   ar
     7    43    44   ar
     8    44    45   ar
     9    45    46   ar
    10    46    47   ar
    11    47    48   ar
    12    48    49   ar
    13    49    50   ar
    14    30    31    1
    15    31    32    2
    16    31    33   am
    17    33    35    1
    18    35    36   ar
    19    36    37   ar
    20    37    38   ar
    21    38    39   ar
    22    39    40   ar
    23     2     5    1
    24     5     6   ar
    25     6     7   ar
    26     7     8   ar
    27     8    12    1
    28    12    13    1
    29    13    14    1
    30    14    15    1
    31    15    20    1
    32    20    21   ar
    33    21    22   ar
    34    22    23   ar
    35    23    26    1
    36    26    27    1
    37    26    28    1
    38    26    29    1
    39    23    24   ar
    40    24    25   ar
    41    15    16    1
    42    16    17    1
    43    17    18    1
    44     8     9   ar
    45     9    10   ar
    46    10    11    1
    47    50    42   ar
    48    40    35   ar
    49    10     5   ar
    50    50    45   ar
    51    17    12    1
    52    25    20   ar
    53     3     4    1
    54    44    51    1
    55    33    34    1
    56    18    19    1
@<TRIPOS>MOLECULE
*****
 51 56 0 0 0
SMALL
GASTEIGER

@<TRIPOS>ATOM
      1 O         -61.1404  -46.6176  -25.9882 O.2     1  UNL1       -0.2701
      2 C         -62.2828  -46.1712  -25.6929 C.2     1  UNL1        0.2483
      3 N         -63.4507  -46.7418  -26.3031 N.am    1  UNL1       -0.2945
      4 H         -64.3841  -46.5563  -25.8708 H       1  UNL1        0.1501
      5 C         -62.4018  -45.0863  -24.6936 C.ar    1  UNL1        0.0808
      6 C         -62.2509  -45.3815  -23.3274 C.ar    1  UNL1        0.0080
      7 C         -62.3636  -44.3731  -22.3668 C.ar    1  UNL1        0.0149
      8 C         -62.6159  -43.0527  -22.7574 C.ar    1  UNL1        0.0518
      9 C         -62.7535  -42.7477  -24.1171 C.ar    1  UNL1        0.0443
     10 C         -62.6428  -43.7531  -25.0829 C.ar    1  UNL1        0.1457
     11 F         -62.7239  -43.4097  -26.3931 F       1  UNL1       -0.2040
     12 N         -62.7370  -42.0165  -21.7711 N.pl3   1  UNL1       -0.2831
     13 C         -63.9585  -41.9651  -20.9577 C.3     1  UNL1        0.1144
     14 C         -63.8363  -40.9562  -19.8096 C.3     1  UNL1        0.1137
     15 N         -63.2791  -39.6819  -20.2907 N.pl3   1  UNL1       -0.2875
     16 C         -62.1600  -39.6890  -21.2499 C.3     1  UNL1        0.1430
     17 C         -61.6174  -41.1067  -21.4861 C.3     1  UNL1        0.2091
     18 O         -60.7025  -41.0909  -22.5529 O.3     1  UNL1       -0.3658
     19 H         -59.8664  -40.6819  -22.2073 H       1  UNL1        0.2123
     20 C         -63.7139  -38.4398  -19.6901 C.ar    1  UNL1        0.1318
     21 C         -64.7914  -38.3995  -18.7874 C.ar    1  UNL1        0.0343
     22 C         -65.1824  -37.1805  -18.2312 C.ar    1  UNL1        0.0083
     23 C         -64.5180  -35.9967  -18.5826 C.ar    1  UNL1        0.0906
     24 C         -63.4295  -36.0810  -19.4634 C.ar    1  UNL1        0.1041
     25 N         -63.0657  -37.2792  -19.9912 N.ar    1  UNL1       -0.2292
     26 C         -64.8982  -34.6824  -17.9499 C.3     1  UNL1        0.4200
     27 F         -63.8689  -33.7770  -18.1272 F       1  UNL1       -0.1658
     28 F         -65.1300  -34.8424  -16.5946 F       1  UNL1       -0.1658
     29 F         -66.0491  -34.1765  -18.5291 F       1  UNL1       -0.1658
     30 C         -63.3586  -47.7107  -27.3999 C.3     1  UNL1        0.1535
     31 C         -62.8830  -47.0239  -28.6511 C.2     1  UNL1        0.2443
     32 O         -63.4280  -47.3074  -29.7522 O.2     1  UNL1       -0.2730
     33 N         -61.7719  -46.1133  -28.6025 N.am    1  UNL1       -0.2825
     34 H         -61.1443  -46.1505  -27.7677 H       1  UNL1        0.1549
     35 C         -61.4222  -45.2141  -29.6682 C.ar    1  UNL1        0.0535
     36 C         -60.1275  -45.1889  -30.2144 C.ar    1  UNL1        0.0353
     37 C         -59.8414  -44.3168  -31.2679 C.ar    1  UNL1        0.1002
     38 N         -60.8131  -43.5094  -31.7690 N.ar    1  UNL1       -0.2422
     39 C         -62.0783  -43.5259  -31.2726 C.ar    1  UNL1        0.1002
     40 C         -62.4072  -44.3838  -30.2203 C.ar    1  UNL1        0.0353
     41 C         -62.4084  -48.8646  -27.0358 C.3     1  UNL1        0.0569
     42 C         -62.8283  -49.5304  -25.7572 C.ar    1  UNL1       -0.0017
     43 C         -64.1080  -49.9712  -25.4329 C.ar    1  UNL1        0.0681
     44 N         -64.1019  -50.5969  -24.2338 N.ar    1  UNL1       -0.3523
     45 C         -62.8288  -50.5628  -23.8033 C.ar    1  UNL1        0.0563
     46 C         -62.3218  -51.1000  -22.6209 C.ar    1  UNL1        0.0170
     47 C         -60.9426  -50.9666  -22.3765 C.ar    1  UNL1        0.0015
     48 C         -60.1103  -50.3097  -23.3101 C.ar    1  UNL1        0.0001
     49 C         -60.6494  -49.7791  -24.4962 C.ar    1  UNL1        0.0012
     50 C         -62.0207  -49.9233  -24.7083 C.ar    1  UNL1        0.0131
     51 H         -64.9200  -51.0311  -23.7514 H       1  UNL1        0.1660
@<TRIPOS>BOND
     1     1     2    2
     2     2     3   am
     3     3    30    1
     4    30    41    1
     5    41    42    1
     6    42    43   ar
     7    43    44   ar
     8    44    45   ar
     9    45    46   ar
    10    46    47   ar
    11    47    48   ar
    12    48    49   ar
    13    49    50   ar
    14    30    31    1
    15    31    32    2
    16    31    33   am
    17    33    35    1
    18    35    36   ar
    19    36    37   ar
    20    37    38   ar
    21    38    39   ar
    22    39    40   ar
    23     2     5    1
    24     5     6   ar
    25     6     7   ar
    26     7     8   ar
    27     8    12    1
    28    12    13    1
    29    13    14    1
    30    14    15    1
    31    15    20    1
    32    20    21   ar
    33    21    22   ar
    34    22    23   ar
    35    23    26    1
    36    26    27    1
    37    26    28    1
    38    26    29    1
    39    23    24   ar
    40    24    25   ar
    41    15    16    1
    42    16    17    1
    43    17    18    1
    44     8     9   ar
    45     9    10   ar
    46    10    11    1
    47    50    42   ar
    48    40    35   ar
    49    10     5   ar
    50    50    45   ar
    51    17    12    1
    52    25    20   ar
    53     3     4    1
    54    44    51    1
    55    33    34    1
    56    18    19    1
@<TRIPOS>MOLECULE
*****
 51 56 0 0 0
SMALL
GASTEIGER

@<TRIPOS>ATOM
      1 O         -61.0328  -43.6729  -25.6156 O.2     1  UNL1       -0.2701
      2 C         -61.6181  -44.4233  -26.4439 C.2     1  UNL1        0.2483
      3 N         -61.9295  -43.9305  -27.7561 N.am    1  UNL1       -0.2945
      4 H         -62.1676  -44.6178  -28.5068 H       1  UNL1        0.1501
      5 C         -61.9441  -45.8144  -26.0584 C.ar    1  UNL1        0.0808
      6 C         -63.2458  -46.3042  -26.2631 C.ar    1  UNL1        0.0080
      7 C         -63.5765  -47.6130  -25.9025 C.ar    1  UNL1        0.0149
      8 C         -62.6084  -48.4560  -25.3439 C.ar    1  UNL1        0.0518
      9 C         -61.3058  -47.9804  -25.1498 C.ar    1  UNL1        0.0443
     10 C         -60.9695  -46.6710  -25.5078 C.ar    1  UNL1        0.1457
     11 F         -59.6835  -46.2648  -25.3587 F       1  UNL1       -0.2040
     12 N         -62.9481  -49.7994  -24.9682 N.pl3   1  UNL1       -0.2831
     13 C         -63.8884  -50.5452  -25.8143 C.3     1  UNL1        0.1144
     14 C         -63.9685  -52.0225  -25.4116 C.3     1  UNL1        0.1137
     15 N         -64.1020  -52.1601  -23.9525 N.pl3   1  UNL1       -0.2875
     16 C         -63.3002  -51.3029  -23.0610 C.3     1  UNL1        0.1430
     17 C         -62.2767  -50.4641  -23.8413 C.3     1  UNL1        0.2091
     18 O         -61.6872  -49.5196  -22.9835 O.3     1  UNL1       -0.3658
     19 H         -61.0465  -50.0149  -22.4091 H       1  UNL1        0.2123
     20 C         -64.8833  -53.2478  -23.4058 C.ar    1  UNL1        0.1318
     21 C         -64.3272  -54.1656  -22.4969 C.ar    1  UNL1        0.0343
     22 C         -65.1134  -55.2033  -21.9938 C.ar    1  UNL1        0.0083
     23 C         -66.4468  -55.3442  -22.4045 C.ar    1  UNL1        0.0906
     24 C         -66.9744  -54.3924  -23.2896 C.ar    1  UNL1        0.1041
     25 N         -66.1905  -53.3893  -23.7651 N.ar    1  UNL1       -0.2292
     26 C         -67.3199  -56.4301  -21.8294 C.3     1  UNL1        0.4200
     27 F         -68.3667  -55.8529  -21.1353 F       1  UNL1       -0.1658
     28 F         -66.5946  -57.2333  -20.9664 F       1  UNL1       -0.1658
     29 F         -67.8325  -57.2292  -22.8367 F       1  UNL1       -0.1658
     30 C         -61.7543  -42.5202  -28.1174 C.3     1  UNL1        0.1535
     31 C         -61.5222  -42.3963  -29.5987 C.2     1  UNL1        0.2443
     32 O         -61.1140  -41.2988  -30.0665 O.2     1  UNL1       -0.2730
     33 N         -61.8336  -43.4906  -30.4770 N.am    1  UNL1       -0.2825
     34 H         -62.4642  -44.2427  -30.1179 H       1  UNL1        0.1549
     35 C         -61.4002  -43.5718  -31.8453 C.ar    1  UNL1        0.0535
     36 C         -62.2523  -43.2273  -32.9086 C.ar    1  UNL1        0.0353
     37 C         -61.7781  -43.2960  -34.2211 C.ar    1  UNL1        0.1002
     38 N         -60.4972  -43.6799  -34.4651 N.ar    1  UNL1       -0.2422
     39 C         -59.6458  -44.0008  -33.4554 C.ar    1  UNL1        0.1002
     40 C         -60.0791  -43.9442  -32.1286 C.ar    1  UNL1        0.0353
     41 C         -62.9812  -41.6899  -27.7028 C.3     1  UNL1        0.0569
     42 C         -64.0277  -41.6932  -28.7795 C.ar    1  UNL1       -0.0017
     43 C         -64.3941  -40.6178  -29.5835 C.ar    1  UNL1        0.0681
     44 N         -65.3108  -41.0043  -30.4998 N.ar    1  UNL1       -0.3523
     45 C         -65.5190  -42.3152  -30.2871 C.ar    1  UNL1        0.0563
     46 C         -66.3681  -43.1624  -30.9978 C.ar    1  UNL1        0.0170
     47 C         -66.4176  -44.5156  -30.6155 C.ar    1  UNL1        0.0015
     48 C         -65.6240  -44.9868  -29.5459 C.ar    1  UNL1        0.0001
     49 C         -64.7744  -44.1092  -28.8479 C.ar    1  UNL1        0.0012
     50 C         -64.7504  -42.7729  -29.2475 C.ar    1  UNL1        0.0131
     51 H         -65.7527  -40.4056  -31.2325 H       1  UNL1        0.1660
@<TRIPOS>BOND
     1     1     2    2
     2     2     3   am
     3     3    30    1
     4    30    41    1
     5    41    42    1
     6    42    43   ar
     7    43    44   ar
     8    44    45   ar
     9    45    46   ar
    10    46    47   ar
    11    47    48   ar
    12    48    49   ar
    13    49    50   ar
    14    30    31    1
    15    31    32    2
    16    31    33   am
    17    33    35    1
    18    35    36   ar
    19    36    37   ar
    20    37    38   ar
    21    38    39   ar
    22    39    40   ar
    23     2     5    1
    24     5     6   ar
    25     6     7   ar
    26     7     8   ar
    27     8    12    1
    28    12    13    1
    29    13    14    1
    30    14    15    1
    31    15    20    1
    32    20    21   ar
    33    21    22   ar
    34    22    23   ar
    35    23    26    1
    36    26    27    1
    37    26    28    1
    38    26    29    1
    39    23    24   ar
    40    24    25   ar
    41    15    16    1
    42    16    17    1
    43    17    18    1
    44     8     9   ar
    45     9    10   ar
    46    10    11    1
    47    50    42   ar
    48    40    35   ar
    49    10     5   ar
    50    50    45   ar
    51    17    12    1
    52    25    20   ar
    53     3     4    1
    54    44    51    1
    55    33    34    1
    56    18    19    1
