@<TRIPOS>MOLECULE
*****
 45 50 0 0 0
SMALL
GASTEIGER

@<TRIPOS>ATOM
      1 C          61.7783   86.3559   10.7433 C.ar    1  UNL1        0.0702
      2 C          61.6505   86.3396    9.3456 C.ar    1  UNL1        0.0191
      3 C          60.9026   85.3398    8.7217 C.ar    1  UNL1        0.0356
      4 C          60.2941   84.3404    9.4992 C.ar    1  UNL1        0.1318
      5 N          60.4459   84.3697   10.8524 N.ar    1  UNL1       -0.2279
      6 C          61.1691   85.3334   11.4812 C.ar    1  UNL1        0.1149
      7 N          59.5107   83.2917    8.8936 N.pl3   1  UNL1       -0.2932
      8 C          58.0452   83.2818    9.0088 C.3     1  UNL1        0.0923
      9 C          57.4030   82.7731    7.7121 C.3     1  UNL1        0.0252
     10 C          58.0189   81.4438    7.2294 C.3     1  UNL1        0.0472
     11 C          59.5506   81.5741    7.1208 C.3     1  UNL1        0.0252
     12 C          60.1832   82.0727    8.4244 C.3     1  UNL1        0.0923
     13 C          57.6028   80.2464    8.1047 C.3     1  UNL1        0.2054
     14 O          57.3353   80.6879    9.4341 O.3     1  UNL1       -0.4755
     15 C          57.9729   80.1902   10.5798 C.ar    1  UNL1        0.1388
     16 C          57.9179   78.8320   10.9438 C.ar    1  UNL1        0.0369
     17 C          58.5713   78.3869   12.0947 C.ar    1  UNL1        0.0033
     18 C          59.2836   79.2857   12.8918 C.ar    1  UNL1        0.0066
     19 C          59.3493   80.6464   12.5441 C.ar    1  UNL1        0.0785
     20 C          58.6883   81.0868   11.3836 C.ar    1  UNL1        0.0433
     21 C          60.1021   81.6041   13.3841 C.2     1  UNL1        0.3381
     22 O          60.9052   81.1890   14.2631 O.2     1  UNL1       -0.2451
     23 O          59.9304   82.9753   13.2113 O.3     1  UNL1       -0.4771
     24 H          60.4410   83.6394   13.7810 H       1  UNL1        0.2954
     25 C          62.2883   88.7637   11.3656 C.2     1  UNL1        0.2839
     26 O          61.1853   89.1801   10.9201 O.2     1  UNL1       -0.2665
     27 N          62.5605   87.3540   11.4213 N.am    1  UNL1       -0.2766
     28 H          63.3208   87.0262   12.0593 H       1  UNL1        0.1553
     29 C          66.4286   92.4414   13.7077 C.ar    1  UNL1        0.0002
     30 C          66.0444   93.1959   12.5663 C.ar    1  UNL1        0.0031
     31 C          65.0628   92.7157   11.6821 C.ar    1  UNL1        0.0375
     32 C          64.4817   91.4832   11.9587 C.ar    1  UNL1        0.1452
     33 O          63.5579   90.8655   11.2636 O.2     1  UNL1       -0.4492
     34 C          63.2886   89.7233   11.8707 C.ar    1  UNL1        0.1946
     35 C          64.0775   89.5940   13.0194 C.ar    1  UNL1        0.0202
     36 C          64.0918   88.4581   13.9976 C.3     1  UNL1        0.0345
     37 C          64.8408   90.7454   13.0546 C.ar    1  UNL1        0.0337
     38 C          65.8114   91.1913   13.9531 C.ar    1  UNL1        0.0028
     39 C          70.5032   94.4666   17.3124 C.3     1  UNL1        0.0310
     40 C          69.4295   93.9407   16.4064 C.ar    1  UNL1       -0.0218
     41 C          68.5620   94.8256   15.7506 C.ar    1  UNL1       -0.0043
     42 C          67.5845   94.3391   14.8779 C.ar    1  UNL1       -0.0003
     43 C          67.4668   92.9585   14.6349 C.ar    1  UNL1       -0.0000
     44 C          68.3519   92.0770   15.2815 C.ar    1  UNL1       -0.0003
     45 C          69.3283   92.5652   16.1547 C.ar    1  UNL1       -0.0043
@<TRIPOS>BOND
     1    39    40    1
     2    40    41   ar
     3    41    42   ar
     4    42    43   ar
     5    43    29    1
     6    29    30   ar
     7    30    31   ar
     8    31    32   ar
     9    32    33   ar
    10    33    34   ar
    11    34    25    1
    12    25    26    2
    13    25    27   am
    14    27     1    1
    15     1     2   ar
    16     2     3   ar
    17     3     4   ar
    18     4     7    1
    19     7     8    1
    20     8     9    1
    21     9    10    1
    22    10    13    1
    23    13    14    1
    24    14    15    1
    25    15    16   ar
    26    16    17   ar
    27    17    18   ar
    28    18    19   ar
    29    19    21    1
    30    21    22    2
    31    21    23    1
    32    19    20   ar
    33    10    11    1
    34    11    12    1
    35     4     5   ar
    36     5     6   ar
    37    34    35   ar
    38    35    36    1
    39    35    37   ar
    40    37    38   ar
    41    43    44   ar
    42    44    45   ar
    43    45    40   ar
    44    38    29   ar
    45    37    32   ar
    46     6     1   ar
    47    12     7    1
    48    20    15   ar
    49    27    28    1
    50    23    24    1
@<TRIPOS>MOLECULE
*****
 45 50 0 0 0
SMALL
GASTEIGER

@<TRIPOS>ATOM
      1 C          60.6700   89.2498   10.3742 C.ar    1  UNL1        0.0702
      2 C          59.9288   89.1831   11.5642 C.ar    1  UNL1        0.0191
      3 C          60.4370   88.4983   12.6691 C.ar    1  UNL1        0.0356
      4 C          61.6858   87.8613   12.5771 C.ar    1  UNL1        0.1318
      5 N          62.3785   87.9278   11.4063 N.ar    1  UNL1       -0.2279
      6 C          61.9034   88.5890   10.3181 C.ar    1  UNL1        0.1149
      7 N          62.2475   87.1461   13.6966 N.pl3   1  UNL1       -0.2932
      8 C          63.7007   86.9653   13.8245 C.3     1  UNL1        0.0923
      9 C          64.1310   87.0559   15.2939 C.3     1  UNL1        0.0252
     10 C          63.2871   86.1500   16.2138 C.3     1  UNL1        0.0472
     11 C          61.7865   86.4398   16.0168 C.3     1  UNL1        0.0252
     12 C          61.3649   86.3363   14.5471 C.3     1  UNL1        0.0923
     13 C          63.6140   84.6554   16.0343 C.3     1  UNL1        0.2054
     14 O          64.2698   84.4497   14.7848 O.3     1  UNL1       -0.4755
     15 C          63.8240   83.5679   13.7893 C.ar    1  UNL1        0.1388
     16 C          64.5892   83.2717   12.6462 C.ar    1  UNL1        0.0369
     17 C          64.0998   82.3856   11.6844 C.ar    1  UNL1        0.0033
     18 C          62.8486   81.7877   11.8502 C.ar    1  UNL1        0.0066
     19 C          62.0698   82.0719   12.9857 C.ar    1  UNL1        0.0785
     20 C          62.5697   82.9656   13.9496 C.ar    1  UNL1        0.0433
     21 C          60.7433   81.4420   13.1677 C.2     1  UNL1        0.3381
     22 O          59.6941   82.0521   12.8259 O.2     1  UNL1       -0.2451
     23 O          60.6411   80.1674   13.7192 O.3     1  UNL1       -0.4771
     24 H          59.7379   79.7271   13.8481 H       1  UNL1        0.2954
     25 C          59.6322   89.2502    8.0572 C.2     1  UNL1        0.2839
     26 O          59.3339   88.0273    8.1203 O.2     1  UNL1       -0.2665
     27 N          60.1700   89.9240    9.2066 N.am    1  UNL1       -0.2766
     28 H          60.1185   90.9678    9.2318 H       1  UNL1        0.1553
     29 C          59.0121   92.3025    2.9141 C.ar    1  UNL1        0.0002
     30 C          57.6617   92.2858    3.3566 C.ar    1  UNL1        0.0031
     31 C          57.3065   91.6584    4.5632 C.ar    1  UNL1        0.0375
     32 C          58.3149   91.0564    5.3077 C.ar    1  UNL1        0.1452
     33 O          58.1915   90.4240    6.4490 O.2     1  UNL1       -0.4492
     34 C          59.3904   90.0044    6.8125 C.ar    1  UNL1        0.1946
     35 C          60.3407   90.3855    5.8585 C.ar    1  UNL1        0.0202
     36 C          61.8156   90.1175    5.8768 C.3     1  UNL1        0.0345
     37 C          59.6202   91.0650    4.8948 C.ar    1  UNL1        0.0337
     38 C          60.0084   91.6783    3.7025 C.ar    1  UNL1        0.0028
     39 C          60.4564   94.8924   -2.0763 C.3     1  UNL1        0.0310
     40 C          60.0538   94.2382   -0.7878 C.ar    1  UNL1       -0.0218
     41 C          59.4422   92.9766   -0.7967 C.ar    1  UNL1       -0.0043
     42 C          59.0995   92.3497    0.4048 C.ar    1  UNL1       -0.0003
     43 C          59.3758   92.9683    1.6376 C.ar    1  UNL1       -0.0000
     44 C          60.0064   94.2257    1.6406 C.ar    1  UNL1       -0.0003
     45 C          60.3475   94.8516    0.4382 C.ar    1  UNL1       -0.0043
@<TRIPOS>BOND
     1    39    40    1
     2    40    41   ar
     3    41    42   ar
     4    42    43   ar
     5    43    29    1
     6    29    30   ar
     7    30    31   ar
     8    31    32   ar
     9    32    33   ar
    10    33    34   ar
    11    34    25    1
    12    25    26    2
    13    25    27   am
    14    27     1    1
    15     1     2   ar
    16     2     3   ar
    17     3     4   ar
    18     4     7    1
    19     7     8    1
    20     8     9    1
    21     9    10    1
    22    10    13    1
    23    13    14    1
    24    14    15    1
    25    15    16   ar
    26    16    17   ar
    27    17    18   ar
    28    18    19   ar
    29    19    21    1
    30    21    22    2
    31    21    23    1
    32    19    20   ar
    33    10    11    1
    34    11    12    1
    35     4     5   ar
    36     5     6   ar
    37    34    35   ar
    38    35    36    1
    39    35    37   ar
    40    37    38   ar
    41    43    44   ar
    42    44    45   ar
    43    45    40   ar
    44    38    29   ar
    45    37    32   ar
    46     6     1   ar
    47    12     7    1
    48    20    15   ar
    49    27    28    1
    50    23    24    1
@<TRIPOS>MOLECULE
*****
 45 50 0 0 0
SMALL
GASTEIGER

@<TRIPOS>ATOM
      1 C          62.0407   85.0986   12.8287 C.ar    1  UNL1        0.0702
      2 C          61.9770   84.6766   11.4916 C.ar    1  UNL1        0.0191
      3 C          61.2716   83.5204   11.1543 C.ar    1  UNL1        0.0356
      4 C          60.6415   82.7723   12.1629 C.ar    1  UNL1        0.1318
      5 N          60.7310   83.1947   13.4546 N.ar    1  UNL1       -0.2279
      6 C          61.4120   84.3172   13.8060 C.ar    1  UNL1        0.1149
      7 N          59.9004   81.5737   11.8559 N.pl3   1  UNL1       -0.2932
      8 C          60.0978   80.8700   10.5804 C.3     1  UNL1        0.0923
      9 C          60.0126   79.3516   10.7802 C.3     1  UNL1        0.0252
     10 C          58.7507   78.9280   11.5596 C.3     1  UNL1        0.0472
     11 C          58.6568   79.7065   12.8861 C.3     1  UNL1        0.0252
     12 C          58.7322   81.2223   12.6745 C.3     1  UNL1        0.0923
     13 C          57.4651   79.0602   10.7212 C.3     1  UNL1        0.2054
     14 O          57.7983   79.3615    9.3677 O.3     1  UNL1       -0.4755
     15 C          57.9612   80.6587    8.8597 C.ar    1  UNL1        0.1388
     16 C          58.4568   80.9053    7.5660 C.ar    1  UNL1        0.0369
     17 C          58.5992   82.2164    7.1073 C.ar    1  UNL1        0.0033
     18 C          58.2510   83.2911    7.9284 C.ar    1  UNL1        0.0066
     19 C          57.7546   83.0640    9.2240 C.ar    1  UNL1        0.0785
     20 C          57.6143   81.7406    9.6787 C.ar    1  UNL1        0.0433
     21 C          57.3837   84.1979   10.0994 C.2     1  UNL1        0.3381
     22 O          57.4425   84.0825   11.3536 O.2     1  UNL1       -0.2451
     23 O          56.9657   85.4051    9.5452 O.3     1  UNL1       -0.4771
     24 H          56.7096   86.1876   10.1355 H       1  UNL1        0.2954
     25 C          62.3642   87.6147   12.9287 C.2     1  UNL1        0.2839
     26 O          61.1903   87.8461   12.5328 O.2     1  UNL1       -0.2665
     27 N          62.7779   86.2698   13.2195 N.am    1  UNL1       -0.2766
     28 H          63.6206   86.1356   13.8232 H       1  UNL1        0.1553
     29 C          66.3552   91.9707   14.0467 C.ar    1  UNL1        0.0002
     30 C          65.6416   92.5594   12.9678 C.ar    1  UNL1        0.0031
     31 C          64.5731   91.8818   12.3555 C.ar    1  UNL1        0.0375
     32 C          64.2375   90.6214   12.8372 C.ar    1  UNL1        0.1452
     33 O          63.2832   89.8332   12.4060 O.2     1  UNL1       -0.4492
     34 C          63.3060   88.7315   13.1348 C.ar    1  UNL1        0.1946
     35 C          64.3269   88.8095   14.0888 C.ar    1  UNL1        0.0202
     36 C          64.7007   87.7839   15.1163 C.3     1  UNL1        0.0345
     37 C          64.9149   90.0418   13.8762 C.ar    1  UNL1        0.0337
     38 C          65.9806   90.6856   14.5071 C.ar    1  UNL1        0.0028
     39 C          70.7638   94.7864   16.5631 C.3     1  UNL1        0.0310
     40 C          69.6238   94.0819   15.8892 C.ar    1  UNL1       -0.0218
     41 C          69.8737   93.0777   14.9432 C.ar    1  UNL1       -0.0043
     42 C          68.8128   92.3952   14.3412 C.ar    1  UNL1       -0.0003
     43 C          67.4825   92.6958   14.6858 C.ar    1  UNL1       -0.0000
     44 C          67.2385   93.6914   15.6491 C.ar    1  UNL1       -0.0003
     45 C          68.3007   94.3737   16.2495 C.ar    1  UNL1       -0.0043
@<TRIPOS>BOND
     1    39    40    1
     2    40    41   ar
     3    41    42   ar
     4    42    43   ar
     5    43    29    1
     6    29    30   ar
     7    30    31   ar
     8    31    32   ar
     9    32    33   ar
    10    33    34   ar
    11    34    25    1
    12    25    26    2
    13    25    27   am
    14    27     1    1
    15     1     2   ar
    16     2     3   ar
    17     3     4   ar
    18     4     7    1
    19     7     8    1
    20     8     9    1
    21     9    10    1
    22    10    13    1
    23    13    14    1
    24    14    15    1
    25    15    16   ar
    26    16    17   ar
    27    17    18   ar
    28    18    19   ar
    29    19    21    1
    30    21    22    2
    31    21    23    1
    32    19    20   ar
    33    10    11    1
    34    11    12    1
    35     4     5   ar
    36     5     6   ar
    37    34    35   ar
    38    35    36    1
    39    35    37   ar
    40    37    38   ar
    41    43    44   ar
    42    44    45   ar
    43    45    40   ar
    44    38    29   ar
    45    37    32   ar
    46     6     1   ar
    47    12     7    1
    48    20    15   ar
    49    27    28    1
    50    23    24    1
