@<TRIPOS>MOLECULE
*****
 53 59 0 0 0
SMALL
GASTEIGER

@<TRIPOS>ATOM
      1 C          59.2271   85.5901   10.3298 C.ar    1  UNL1        0.0481
      2 C          59.8475   85.4793   11.5828 C.ar    1  UNL1        0.0176
      3 C          59.4142   84.5211   12.5027 C.ar    1  UNL1        0.0382
      4 C          58.3589   83.6556   12.1911 C.ar    1  UNL1        0.1388
      5 C          57.7357   83.7666   10.9306 C.ar    1  UNL1        0.0382
      6 C          58.1697   84.7258   10.0108 C.ar    1  UNL1        0.0176
      7 N          59.7347   88.7246    7.5328 N.pl3   1  UNL1       -0.2968
      8 C          59.0208   87.4785    7.2089 C.3     1  UNL1        0.1126
      9 C          59.6297   86.2869    7.9437 C.3     1  UNL1        0.1123
     10 N          59.6789   86.5711    9.3797 N.pl3   1  UNL1       -0.3036
     11 C          60.1157   87.8903    9.8566 C.3     1  UNL1        0.1221
     12 C          60.6324   88.7858    8.7095 C.3     1  UNL1        0.1924
     13 C          59.7384   91.8319    4.6090 C.ar    1  UNL1        0.0699
     14 C          60.9332   91.1870    4.9711 C.ar    1  UNL1        0.0190
     15 C          60.9291   90.1715    5.9311 C.ar    1  UNL1        0.0160
     16 C          59.7295   89.7724    6.5391 C.ar    1  UNL1        0.0484
     17 C          58.5340   90.4153    6.1788 C.ar    1  UNL1        0.0160
     18 C          58.5376   91.4319    5.2201 C.ar    1  UNL1        0.0190
     19 N          59.7858   93.9858    1.6898 N.ar    1  UNL1       -0.2024
     20 N          59.6885   94.8925    2.6516 N.ar    1  UNL1       -0.1442
     21 C          59.6702   94.2098    3.8171 C.ar    1  UNL1        0.2073
     22 N          59.7483   92.8745    3.6145 N.ar    1  UNL1       -0.2398
     23 C          59.8068   92.7733    2.2718 C.ar    1  UNL1        0.3522
     24 O          59.8328   91.6842    1.6372 O.2     1  UNL1       -0.2444
     25 C          59.7653   94.2875    0.2550 C.3     1  UNL1        0.1099
     26 C          58.5693   93.5876   -0.4040 C.3     1  UNL1        0.0265
     27 C          60.9765   93.4792   -1.8484 C.3     1  UNL1        0.0021
     28 C          61.1073   93.8653   -0.3749 C.3     1  UNL1        0.0245
     29 C          60.7757   90.1944    9.2257 C.2     1  UNL1        0.3337
     30 O          59.7708   90.8060    9.6776 O.2     1  UNL1       -0.2484
     31 O          62.0122   90.8323    9.1783 O.3     1  UNL1       -0.4790
     32 H          62.1207   91.7808    9.5166 H       1  UNL1        0.2951
     33 O          57.9777   82.7136   13.1634 O.3     1  UNL1       -0.4727
     34 C          58.3602   81.3371   13.2138 C.3     1  UNL1        0.2374
     35 C          59.8872   81.1842   13.3249 C.3     1  UNL1        0.1909
     36 C          60.3767   79.7761   13.1487 C.3     1  UNL1        0.1783
     37 O          60.6968   79.6493   11.8016 O.3     1  UNL1       -0.3266
     38 C          60.8624   80.9648   11.3087 C.3     1  UNL1        0.2315
     39 O          60.4976   81.9080   12.3030 O.3     1  UNL1       -0.3254
     40 C          59.9975   81.1506   10.0566 C.ar    1  UNL1        0.0410
     41 C          60.4600   81.9712    9.0032 C.ar    1  UNL1        0.0022
     42 C          59.7088   82.1392    7.8392 C.ar    1  UNL1        0.0113
     43 C          58.4886   81.4825    7.6919 C.ar    1  UNL1        0.0585
     44 CL         57.5490   81.6942    6.2259 Cl      1  UNL1       -0.0822
     45 C          58.0221   80.6463    8.7063 C.ar    1  UNL1        0.0226
     46 C          58.7645   80.4656    9.8802 C.ar    1  UNL1        0.0591
     47 CL         58.1065   79.3502   11.0757 Cl      1  UNL1       -0.0824
     48 C          62.3503   81.1784   10.9637 C.3     1  UNL1        0.1897
     49 N          62.8817   82.3743   11.6147 N.ar    1  UNL1       -0.2246
     50 C          62.8973   83.6227   11.1196 C.ar    1  UNL1        0.1974
     51 N          63.4085   84.4921   12.0119 N.ar    1  UNL1       -0.2007
     52 C          63.6930   83.6946   13.0657 C.ar    1  UNL1        0.2210
     53 N          63.3726   82.4056   12.8394 N.ar    1  UNL1       -0.1450
@<TRIPOS>BOND
     1    27    28    1
     2    28    25    1
     3    25    26    1
     4    25    19    1
     5    19    20   ar
     6    20    21   ar
     7    21    22   ar
     8    22    13    1
     9    13    14   ar
    10    14    15   ar
    11    15    16   ar
    12    16     7    1
    13     7     8    1
    14     8     9    1
    15     9    10    1
    16    10     1    1
    17     1     2   ar
    18     2     3   ar
    19     3     4   ar
    20     4    33    1
    21    33    34    1
    22    34    35    1
    23    35    36    1
    24    36    37    1
    25    37    38    1
    26    38    48    1
    27    48    49    1
    28    49    50   ar
    29    50    51   ar
    30    51    52   ar
    31    52    53   ar
    32    38    40    1
    33    40    41   ar
    34    41    42   ar
    35    42    43   ar
    36    43    44    1
    37    43    45   ar
    38    45    46   ar
    39    46    47    1
    40    38    39    1
    41     4     5   ar
    42     5     6   ar
    43    10    11    1
    44    11    12    1
    45    12    29    1
    46    29    30    2
    47    29    31    1
    48    16    17   ar
    49    17    18   ar
    50    22    23   ar
    51    23    24    2
    52    23    19   ar
    53    18    13   ar
    54    12     7    1
    55     6     1   ar
    56    39    35    1
    57    53    49   ar
    58    46    40   ar
    59    31    32    1
@<TRIPOS>MOLECULE
*****
 53 59 0 0 0
SMALL
GASTEIGER

@<TRIPOS>ATOM
      1 C          59.3143   85.4486   10.7712 C.ar    1  UNL1        0.0481
      2 C          58.3770   84.7942   11.5839 C.ar    1  UNL1        0.0176
      3 C          57.7666   83.6152   11.1487 C.ar    1  UNL1        0.0382
      4 C          58.0799   83.0658    9.8998 C.ar    1  UNL1        0.1388
      5 C          59.0233   83.7235    9.0831 C.ar    1  UNL1        0.0382
      6 C          59.6334   84.9034    9.5191 C.ar    1  UNL1        0.0176
      7 N          61.8956   88.5317   12.0892 N.pl3   1  UNL1       -0.2968
      8 C          61.5338   87.3824   12.9351 C.3     1  UNL1        0.1126
      9 C          60.1062   86.9193   12.6555 C.3     1  UNL1        0.1123
     10 N          59.9487   86.6579   11.2229 N.pl3   1  UNL1       -0.3036
     11 C          60.5085   87.5915   10.2363 C.3     1  UNL1        0.1221
     12 C          61.0843   88.8639   10.8953 C.3     1  UNL1        0.1924
     13 C          64.8134   91.2391   13.6257 C.ar    1  UNL1        0.0699
     14 C          64.6737   89.9512   14.1700 C.ar    1  UNL1        0.0190
     15 C          63.7152   89.0677   13.6664 C.ar    1  UNL1        0.0160
     16 C          62.8859   89.4496   12.6012 C.ar    1  UNL1        0.0484
     17 C          63.0236   90.7362   12.0554 C.ar    1  UNL1        0.0160
     18 C          63.9808   91.6207   12.5596 C.ar    1  UNL1        0.0190
     19 N          67.5681   93.0029   15.1953 N.ar    1  UNL1       -0.2024
     20 N          66.9766   94.0047   14.5604 N.ar    1  UNL1       -0.1442
     21 C          65.9062   93.4752   13.9287 C.ar    1  UNL1        0.2073
     22 N          65.8071   92.1436   14.1457 N.ar    1  UNL1       -0.2398
     23 C          66.8706   91.8833   14.9318 C.ar    1  UNL1        0.3522
     24 O          67.1986   90.7343   15.3339 O.2     1  UNL1       -0.2444
     25 C          68.8179   93.1189   15.9534 C.3     1  UNL1        0.1099
     26 C          69.1430   94.5995   16.1917 C.3     1  UNL1        0.0265
     27 C          69.5961   92.1160   13.7324 C.3     1  UNL1        0.0021
     28 C          69.9445   92.3893   15.1957 C.3     1  UNL1        0.0245
     29 C          61.8908   89.6154    9.8676 C.2     1  UNL1        0.3337
     30 O          63.0079   89.1688    9.4924 O.2     1  UNL1       -0.2484
     31 O          61.4163   90.8184    9.3520 O.3     1  UNL1       -0.4790
     32 H          61.9513   91.3362    8.6652 H       1  UNL1        0.2951
     33 O          57.4298   81.8754    9.5280 O.3     1  UNL1       -0.4727
     34 C          57.9612   80.5509    9.6126 C.3     1  UNL1        0.2374
     35 C          57.9003   80.0143   11.0533 C.3     1  UNL1        0.1909
     36 C          58.6544   78.7334   11.2627 C.3     1  UNL1        0.1783
     37 O          59.9202   79.1035   11.7029 O.3     1  UNL1       -0.3266
     38 C          59.7991   80.4266   12.1885 C.3     1  UNL1        0.2315
     39 O          58.5029   80.9313   11.9116 O.3     1  UNL1       -0.3254
     40 C          60.8654   81.3091   11.5292 C.ar    1  UNL1        0.0410
     41 C          61.0542   82.6340   11.9830 C.ar    1  UNL1        0.0022
     42 C          62.0344   83.4537   11.4221 C.ar    1  UNL1        0.0113
     43 C          62.8578   82.9681   10.4082 C.ar    1  UNL1        0.0585
     44 CL         64.0906   84.0010    9.7080 Cl      1  UNL1       -0.0822
     45 C          62.7090   81.6554    9.9604 C.ar    1  UNL1        0.0226
     46 C          61.7311   80.8191   10.5139 C.ar    1  UNL1        0.0591
     47 CL         61.6615   79.1652    9.9089 Cl      1  UNL1       -0.0824
     48 C          59.9940   80.4102   13.7182 C.3     1  UNL1        0.1897
     49 N          61.3950   80.6194   14.0790 N.ar    1  UNL1       -0.2246
     50 C          62.4354   79.8306   13.7643 C.ar    1  UNL1        0.1974
     51 N          63.5935   80.3553   14.2080 N.ar    1  UNL1       -0.2007
     52 C          63.1867   81.5002   14.8005 C.ar    1  UNL1        0.2210
     53 N          61.8530   81.6756   14.7245 N.ar    1  UNL1       -0.1450
@<TRIPOS>BOND
     1    27    28    1
     2    28    25    1
     3    25    26    1
     4    25    19    1
     5    19    20   ar
     6    20    21   ar
     7    21    22   ar
     8    22    13    1
     9    13    14   ar
    10    14    15   ar
    11    15    16   ar
    12    16     7    1
    13     7     8    1
    14     8     9    1
    15     9    10    1
    16    10     1    1
    17     1     2   ar
    18     2     3   ar
    19     3     4   ar
    20     4    33    1
    21    33    34    1
    22    34    35    1
    23    35    36    1
    24    36    37    1
    25    37    38    1
    26    38    48    1
    27    48    49    1
    28    49    50   ar
    29    50    51   ar
    30    51    52   ar
    31    52    53   ar
    32    38    40    1
    33    40    41   ar
    34    41    42   ar
    35    42    43   ar
    36    43    44    1
    37    43    45   ar
    38    45    46   ar
    39    46    47    1
    40    38    39    1
    41     4     5   ar
    42     5     6   ar
    43    10    11    1
    44    11    12    1
    45    12    29    1
    46    29    30    2
    47    29    31    1
    48    16    17   ar
    49    17    18   ar
    50    22    23   ar
    51    23    24    2
    52    23    19   ar
    53    18    13   ar
    54    12     7    1
    55     6     1   ar
    56    39    35    1
    57    53    49   ar
    58    46    40   ar
    59    31    32    1
@<TRIPOS>MOLECULE
*****
 53 59 0 0 0
SMALL
GASTEIGER

@<TRIPOS>ATOM
      1 C          58.8858   85.5046   10.7836 C.ar    1  UNL1        0.0481
      2 C          58.3723   84.3215   11.3346 C.ar    1  UNL1        0.0176
      3 C          57.8640   83.3188   10.5049 C.ar    1  UNL1        0.0382
      4 C          57.8604   83.4747    9.1136 C.ar    1  UNL1        0.1388
      5 C          58.3778   84.6642    8.5596 C.ar    1  UNL1        0.0382
      6 C          58.8859   85.6671    9.3906 C.ar    1  UNL1        0.0176
      7 N          61.1987   88.3150   12.9419 N.pl3   1  UNL1       -0.2968
      8 C          61.2710   86.8662   13.1931 C.3     1  UNL1        0.1126
      9 C          59.9149   86.2000   12.9740 C.3     1  UNL1        0.1123
     10 N          59.4166   86.5332   11.6376 N.pl3   1  UNL1       -0.3036
     11 C          59.5284   87.9071   11.1294 C.3     1  UNL1        0.1221
     12 C          60.0499   88.8875   12.2025 C.3     1  UNL1        0.1924
     13 C          63.9702   90.8043   15.0218 C.ar    1  UNL1        0.0699
     14 C          63.9761   90.7421   13.6180 C.ar    1  UNL1        0.0190
     15 C          63.0690   89.9237   12.9398 C.ar    1  UNL1        0.0160
     16 C          62.1303   89.1608   13.6504 C.ar    1  UNL1        0.0484
     17 C          62.1222   89.2213   15.0535 C.ar    1  UNL1        0.0160
     18 C          63.0302   90.0383   15.7324 C.ar    1  UNL1        0.0190
     19 N          66.7201   92.7936   16.3040 N.ar    1  UNL1       -0.2024
     20 N          65.7847   93.0779   17.1989 N.ar    1  UNL1       -0.1442
     21 C          64.6868   92.3792   16.8363 C.ar    1  UNL1        0.2073
     22 N          64.9046   91.6542   15.7152 N.ar    1  UNL1       -0.2398
     23 C          66.1829   91.9489   15.4056 C.ar    1  UNL1        0.3522
     24 O          66.7870   91.5255   14.3832 O.2     1  UNL1       -0.2444
     25 C          68.0568   93.3958   16.2757 C.3     1  UNL1        0.1099
     26 C          68.1260   94.4499   15.1628 C.3     1  UNL1        0.0265
     27 C          69.8350   92.3685   14.7505 C.3     1  UNL1        0.0021
     28 C          69.1126   92.2875   16.0953 C.3     1  UNL1        0.0245
     29 C          60.4138   90.1868   11.5312 C.2     1  UNL1        0.3337
     30 O          61.3783   90.2301   10.7214 O.2     1  UNL1       -0.2484
     31 O          59.7031   91.3472   11.8259 O.3     1  UNL1       -0.4790
     32 H          59.9412   92.2280   11.3860 H       1  UNL1        0.2951
     33 O          57.3367   82.4235    8.3398 O.3     1  UNL1       -0.4727
     34 C          57.8504   81.0925    8.2497 C.3     1  UNL1        0.2374
     35 C          59.3338   81.0914    7.8413 C.3     1  UNL1        0.1909
     36 C          60.0397   82.3922    8.0923 C.3     1  UNL1        0.1783
     37 O          60.6267   82.2718    9.3469 O.3     1  UNL1       -0.3266
     38 C          60.6985   80.8855    9.6188 C.3     1  UNL1        0.2315
     39 O          60.0217   80.1545    8.6092 O.3     1  UNL1       -0.3254
     40 C          60.0724   80.6036   10.9895 C.ar    1  UNL1        0.0410
     41 C          59.3148   79.4266   11.1830 C.ar    1  UNL1        0.0022
     42 C          58.7546   79.1279   12.4257 C.ar    1  UNL1        0.0113
     43 C          58.9487   79.9860   13.5064 C.ar    1  UNL1        0.0585
     44 CL         58.2452   79.6052   15.0674 Cl      1  UNL1       -0.0822
     45 C          59.7145   81.1412   13.3480 C.ar    1  UNL1        0.0226
     46 C          60.2850   81.4548   12.1079 C.ar    1  UNL1        0.0591
     47 CL         61.2734   82.9120   12.0309 Cl      1  UNL1       -0.0824
     48 C          62.1803   80.4579    9.6129 C.3     1  UNL1        0.1897
     49 N          63.0542   81.5599   10.0110 N.ar    1  UNL1       -0.2246
     50 C          63.9903   81.5396   10.9739 C.ar    1  UNL1        0.1974
     51 N          64.6508   82.7116   11.0330 N.ar    1  UNL1       -0.2007
     52 C          64.0599   83.4290   10.0515 C.ar    1  UNL1        0.2210
     53 N          63.0912   82.7387    9.4187 N.ar    1  UNL1       -0.1450
@<TRIPOS>BOND
     1    27    28    1
     2    28    25    1
     3    25    26    1
     4    25    19    1
     5    19    20   ar
     6    20    21   ar
     7    21    22   ar
     8    22    13    1
     9    13    14   ar
    10    14    15   ar
    11    15    16   ar
    12    16     7    1
    13     7     8    1
    14     8     9    1
    15     9    10    1
    16    10     1    1
    17     1     2   ar
    18     2     3   ar
    19     3     4   ar
    20     4    33    1
    21    33    34    1
    22    34    35    1
    23    35    36    1
    24    36    37    1
    25    37    38    1
    26    38    48    1
    27    48    49    1
    28    49    50   ar
    29    50    51   ar
    30    51    52   ar
    31    52    53   ar
    32    38    40    1
    33    40    41   ar
    34    41    42   ar
    35    42    43   ar
    36    43    44    1
    37    43    45   ar
    38    45    46   ar
    39    46    47    1
    40    38    39    1
    41     4     5   ar
    42     5     6   ar
    43    10    11    1
    44    11    12    1
    45    12    29    1
    46    29    30    2
    47    29    31    1
    48    16    17   ar
    49    17    18   ar
    50    22    23   ar
    51    23    24    2
    52    23    19   ar
    53    18    13   ar
    54    12     7    1
    55     6     1   ar
    56    39    35    1
    57    53    49   ar
    58    46    40   ar
    59    31    32    1
@<TRIPOS>MOLECULE
*****
 53 59 0 0 0
SMALL
GASTEIGER

@<TRIPOS>ATOM
      1 C          59.3136   83.7447   12.8282 C.ar    1  UNL1        0.0481
      2 C          59.8088   82.4332   12.8719 C.ar    1  UNL1        0.0176
      3 C          59.2215   81.4307   12.0960 C.ar    1  UNL1        0.0382
      4 C          58.1340   81.7160   11.2619 C.ar    1  UNL1        0.1388
      5 C          57.6367   83.0352   11.2174 C.ar    1  UNL1        0.0382
      6 C          58.2247   84.0377   11.9944 C.ar    1  UNL1        0.0176
      7 N          61.4597   87.0281   14.4156 N.pl3   1  UNL1       -0.2968
      8 C          62.1198   85.7961   13.9531 C.3     1  UNL1        0.1126
      9 C          61.2468   84.5712   14.2140 C.3     1  UNL1        0.1123
     10 N          59.9237   84.7784   13.6209 N.pl3   1  UNL1       -0.3036
     11 C          59.2446   86.0732   13.7652 C.3     1  UNL1        0.1221
     12 C          60.0070   87.0325   14.7050 C.3     1  UNL1        0.1924
     13 C          63.9800   90.2680   15.5794 C.ar    1  UNL1        0.0699
     14 C          63.7743   89.9721   14.2213 C.ar    1  UNL1        0.0190
     15 C          62.9504   88.9085   13.8433 C.ar    1  UNL1        0.0160
     16 C          62.3066   88.1275   14.8147 C.ar    1  UNL1        0.0484
     17 C          62.5105   88.4213   16.1728 C.ar    1  UNL1        0.0160
     18 C          63.3356   89.4838   16.5515 C.ar    1  UNL1        0.0190
     19 N          66.4463   92.8898   16.0345 N.ar    1  UNL1       -0.2024
     20 N          65.6378   93.1459   17.0530 N.ar    1  UNL1       -0.1442
     21 C          64.6591   92.2160   17.0045 C.ar    1  UNL1        0.2073
     22 N          64.8264   91.3693   15.9627 N.ar    1  UNL1       -0.2398
     23 C          65.9473   91.8303   15.3729 C.ar    1  UNL1        0.3522
     24 O          66.4428   91.3604   14.3131 O.2     1  UNL1       -0.2444
     25 C          67.6088   93.7050   15.6680 C.3     1  UNL1        0.1099
     26 C          67.4775   94.1682   14.2110 C.3     1  UNL1        0.0265
     27 C          69.5022   92.3438   14.6162 C.3     1  UNL1        0.0021
     28 C          68.8974   92.8940   15.9080 C.3     1  UNL1        0.0245
     29 C          59.4174   88.4124   14.5657 C.2     1  UNL1        0.3337
     30 O          59.3891   89.1895   15.5574 O.2     1  UNL1       -0.2484
     31 O          58.8775   88.8207   13.3491 O.3     1  UNL1       -0.4790
     32 H          58.4730   89.7434   13.2438 H       1  UNL1        0.2951
     33 O          57.5950   80.6591   10.5066 O.3     1  UNL1       -0.4727
     34 C          58.1550   80.0835    9.3239 C.3     1  UNL1        0.2374
     35 C          58.1508   81.0865    8.1571 C.3     1  UNL1        0.1909
     36 C          57.6899   82.4642    8.5348 C.3     1  UNL1        0.1783
     37 O          58.8413   83.1814    8.8399 O.3     1  UNL1       -0.3266
     38 C          59.9139   82.4826    8.2379 C.3     1  UNL1        0.2315
     39 O          59.4530   81.2571    7.6926 O.3     1  UNL1       -0.3254
     40 C          61.0022   82.2223    9.2858 C.ar    1  UNL1        0.0410
     41 C          61.5891   80.9403    9.3802 C.ar    1  UNL1        0.0022
     42 C          62.6008   80.6786   10.3050 C.ar    1  UNL1        0.0113
     43 C          63.0609   81.6905   11.1453 C.ar    1  UNL1        0.0585
     44 CL         64.3349   81.3579   12.3043 Cl      1  UNL1       -0.0822
     45 C          62.5162   82.9715   11.0539 C.ar    1  UNL1        0.0226
     46 C          61.5012   83.2512   10.1301 C.ar    1  UNL1        0.0591
     47 CL         60.9186   84.9133   10.0650 Cl      1  UNL1       -0.0824
     48 C          60.4778   83.3410    7.0875 C.3     1  UNL1        0.1897
     49 N          60.2337   84.7641    7.3156 N.ar    1  UNL1       -0.2246
     50 C          61.1559   85.7362    7.4065 C.ar    1  UNL1        0.1974
     51 N          60.5762   86.9418    7.5609 N.ar    1  UNL1       -0.2007
     52 C          59.2597   86.6352    7.5535 C.ar    1  UNL1        0.2210
     53 N          59.0375   85.3153    7.3996 N.ar    1  UNL1       -0.1450
@<TRIPOS>BOND
     1    27    28    1
     2    28    25    1
     3    25    26    1
     4    25    19    1
     5    19    20   ar
     6    20    21   ar
     7    21    22   ar
     8    22    13    1
     9    13    14   ar
    10    14    15   ar
    11    15    16   ar
    12    16     7    1
    13     7     8    1
    14     8     9    1
    15     9    10    1
    16    10     1    1
    17     1     2   ar
    18     2     3   ar
    19     3     4   ar
    20     4    33    1
    21    33    34    1
    22    34    35    1
    23    35    36    1
    24    36    37    1
    25    37    38    1
    26    38    48    1
    27    48    49    1
    28    49    50   ar
    29    50    51   ar
    30    51    52   ar
    31    52    53   ar
    32    38    40    1
    33    40    41   ar
    34    41    42   ar
    35    42    43   ar
    36    43    44    1
    37    43    45   ar
    38    45    46   ar
    39    46    47    1
    40    38    39    1
    41     4     5   ar
    42     5     6   ar
    43    10    11    1
    44    11    12    1
    45    12    29    1
    46    29    30    2
    47    29    31    1
    48    16    17   ar
    49    17    18   ar
    50    22    23   ar
    51    23    24    2
    52    23    19   ar
    53    18    13   ar
    54    12     7    1
    55     6     1   ar
    56    39    35    1
    57    53    49   ar
    58    46    40   ar
    59    31    32    1
@<TRIPOS>MOLECULE
*****
 53 59 0 0 0
SMALL
GASTEIGER

@<TRIPOS>ATOM
      1 C          59.8476   87.7471   12.8032 C.ar    1  UNL1        0.0481
      2 C          60.3034   88.6404   13.7837 C.ar    1  UNL1        0.0176
      3 C          60.6252   88.1803   15.0630 C.ar    1  UNL1        0.0382
      4 C          60.5019   86.8241   15.3879 C.ar    1  UNL1        0.1388
      5 C          60.0444   85.9257   14.4014 C.ar    1  UNL1        0.0382
      6 C          59.7223   86.3871   13.1216 C.ar    1  UNL1        0.0176
      7 N          59.7358   89.3091    8.8721 N.pl3   1  UNL1       -0.2968
      8 C          59.9638   90.1534   10.0564 C.3     1  UNL1        0.1126
      9 C          59.1914   89.6292   11.2644 C.3     1  UNL1        0.1123
     10 N          59.5242   88.2198   11.4837 N.pl3   1  UNL1       -0.3036
     11 C          59.6076   87.2953   10.3450 C.3     1  UNL1        0.1221
     12 C          59.1580   87.9535    9.0224 C.3     1  UNL1        0.1924
     13 C          60.0864   91.1783    5.0528 C.ar    1  UNL1        0.0699
     14 C          61.2278   90.9120    5.8279 C.ar    1  UNL1        0.0190
     15 C          61.1094   90.3022    7.0797 C.ar    1  UNL1        0.0160
     16 C          59.8495   89.9356    7.5760 C.ar    1  UNL1        0.0484
     17 C          58.7072   90.2006    6.8031 C.ar    1  UNL1        0.0160
     18 C          58.8247   90.8119    5.5520 C.ar    1  UNL1        0.0190
     19 N          61.0233   92.6179    1.8570 N.ar    1  UNL1       -0.2024
     20 N          59.7109   92.8001    1.8232 N.ar    1  UNL1       -0.1442
     21 C          59.2285   92.3057    2.9841 C.ar    1  UNL1        0.2073
     22 N          60.2155   91.8025    3.7605 N.ar    1  UNL1       -0.2398
     23 C          61.3210   92.0048    3.0166 C.ar    1  UNL1        0.3522
     24 O          62.4801   91.6298    3.3415 O.2     1  UNL1       -0.2444
     25 C          61.9386   92.9459    0.7594 C.3     1  UNL1        0.1099
     26 C          62.6430   94.2770    1.0532 C.3     1  UNL1        0.0265
     27 C          61.9896   93.4988   -1.7378 C.3     1  UNL1        0.0021
     28 C          61.1537   92.9820   -0.5667 C.3     1  UNL1        0.0245
     29 C          59.5498   87.0531    7.8791 C.2     1  UNL1        0.3337
     30 O          60.7275   86.6120    7.7985 O.2     1  UNL1       -0.2484
     31 O          58.6194   86.7302    6.8950 O.3     1  UNL1       -0.4790
     32 H          58.8716   86.1309    6.1184 H       1  UNL1        0.2951
     33 O          60.8467   86.4310   16.6935 O.3     1  UNL1       -0.4727
     34 C          62.1475   86.4824   17.2843 C.3     1  UNL1        0.2374
     35 C          62.9929   85.2608   16.8838 C.3     1  UNL1        0.1909
     36 C          62.3311   84.3590   15.8827 C.3     1  UNL1        0.1783
     37 O          62.7759   84.7824   14.6353 O.3     1  UNL1       -0.3266
     38 C          63.9567   85.5259   14.8676 C.3     1  UNL1        0.2315
     39 O          64.1612   85.6942   16.2609 O.3     1  UNL1       -0.3254
     40 C          63.8414   86.8905   14.1784 C.ar    1  UNL1        0.0410
     41 C          64.3450   88.0432   14.8223 C.ar    1  UNL1        0.0022
     42 C          64.2797   89.2955   14.2100 C.ar    1  UNL1        0.0113
     43 C          63.7259   89.4255   12.9379 C.ar    1  UNL1        0.0585
     44 CL         63.6486   91.0011   12.1708 Cl      1  UNL1       -0.0822
     45 C          63.2455   88.2988   12.2703 C.ar    1  UNL1        0.0226
     46 C          63.3049   87.0345   12.8700 C.ar    1  UNL1        0.0591
     47 CL         62.7148   85.6728   11.9193 Cl      1  UNL1       -0.0824
     48 C          65.1543   84.7406   14.2954 C.3     1  UNL1        0.1897
     49 N          64.7105   83.6111   13.4807 N.ar    1  UNL1       -0.2246
     50 C          64.8068   83.4918   12.1465 C.ar    1  UNL1        0.1974
     51 N          64.3516   82.2940   11.7324 N.ar    1  UNL1       -0.2007
     52 C          63.9826   81.7057   12.8922 C.ar    1  UNL1        0.2210
     53 N          64.2004   82.4935   13.9633 N.ar    1  UNL1       -0.1450
@<TRIPOS>BOND
     1    27    28    1
     2    28    25    1
     3    25    26    1
     4    25    19    1
     5    19    20   ar
     6    20    21   ar
     7    21    22   ar
     8    22    13    1
     9    13    14   ar
    10    14    15   ar
    11    15    16   ar
    12    16     7    1
    13     7     8    1
    14     8     9    1
    15     9    10    1
    16    10     1    1
    17     1     2   ar
    18     2     3   ar
    19     3     4   ar
    20     4    33    1
    21    33    34    1
    22    34    35    1
    23    35    36    1
    24    36    37    1
    25    37    38    1
    26    38    48    1
    27    48    49    1
    28    49    50   ar
    29    50    51   ar
    30    51    52   ar
    31    52    53   ar
    32    38    40    1
    33    40    41   ar
    34    41    42   ar
    35    42    43   ar
    36    43    44    1
    37    43    45   ar
    38    45    46   ar
    39    46    47    1
    40    38    39    1
    41     4     5   ar
    42     5     6   ar
    43    10    11    1
    44    11    12    1
    45    12    29    1
    46    29    30    2
    47    29    31    1
    48    16    17   ar
    49    17    18   ar
    50    22    23   ar
    51    23    24    2
    52    23    19   ar
    53    18    13   ar
    54    12     7    1
    55     6     1   ar
    56    39    35    1
    57    53    49   ar
    58    46    40   ar
    59    31    32    1
@<TRIPOS>MOLECULE
*****
 53 59 0 0 0
SMALL
GASTEIGER

@<TRIPOS>ATOM
      1 C          61.4052   87.4530   11.9502 C.ar    1  UNL1        0.0481
      2 C          62.7971   87.2807   11.9672 C.ar    1  UNL1        0.0176
      3 C          63.4144   86.6272   13.0367 C.ar    1  UNL1        0.0382
      4 C          62.6581   86.1318   14.1056 C.ar    1  UNL1        0.1388
      5 C          61.2583   86.3043   14.0878 C.ar    1  UNL1        0.0382
      6 C          60.6413   86.9587   13.0174 C.ar    1  UNL1        0.0176
      7 N          60.3116   89.3679    8.3387 N.pl3   1  UNL1       -0.2968
      8 C          61.1713   90.0072    9.3484 C.3     1  UNL1        0.1126
      9 C          60.7755   89.5807   10.7598 C.3     1  UNL1        0.1123
     10 N          60.7691   88.1185   10.8450 N.pl3   1  UNL1       -0.3036
     11 C          60.1820   87.3185    9.7616 C.3     1  UNL1        0.1221
     12 C          59.4824   88.1949    8.6998 C.3     1  UNL1        0.1924
     13 C          59.7510   91.4542    4.6594 C.ar    1  UNL1        0.0699
     14 C          61.0363   91.0678    5.0756 C.ar    1  UNL1        0.0190
     15 C          61.2170   90.3871    6.2826 C.ar    1  UNL1        0.0160
     16 C          60.1157   90.0684    7.0912 C.ar    1  UNL1        0.0484
     17 C          58.8301   90.4534    6.6774 C.ar    1  UNL1        0.0160
     18 C          58.6489   91.1356    5.4713 C.ar    1  UNL1        0.0190
     19 N          59.9222   93.2748    1.5258 N.ar    1  UNL1       -0.2024
     20 N          58.6204   93.0339    1.5890 N.ar    1  UNL1       -0.1442
     21 C          58.4148   92.3547    2.7385 C.ar    1  UNL1        0.2073
     22 N          59.5707   92.1512    3.4113 N.ar    1  UNL1       -0.2398
     23 C          60.4920   92.7299    2.6157 C.ar    1  UNL1        0.3522
     24 O          61.7330   92.7250    2.8376 O.2     1  UNL1       -0.2444
     25 C          60.5946   93.9301    0.3996 C.3     1  UNL1        0.1099
     26 C          59.5624   94.6754   -0.4569 C.3     1  UNL1        0.0265
     27 C          62.1086   93.4766   -1.6120 C.3     1  UNL1        0.0021
     28 C          61.3746   92.8773   -0.4124 C.3     1  UNL1        0.0245
     29 C          59.1754   87.3405    7.4969 C.2     1  UNL1        0.3337
     30 O          60.0805   86.6343    6.9770 O.2     1  UNL1       -0.2484
     31 O          57.8991   87.3515    6.9408 O.3     1  UNL1       -0.4790
     32 H          57.6813   86.7864    6.1289 H       1  UNL1        0.2951
     33 O          63.3453   85.4819   15.1464 O.3     1  UNL1       -0.4727
     34 C          64.3901   84.5163   15.0063 C.3     1  UNL1        0.2374
     35 C          63.8792   83.0933   15.2916 C.3     1  UNL1        0.1909
     36 C          62.4013   83.0112   15.5414 C.3     1  UNL1        0.1783
     37 O          61.8221   82.7206   14.3113 O.3     1  UNL1       -0.3266
     38 C          62.8547   82.1899   13.5032 C.3     1  UNL1        0.2315
     39 O          64.1004   82.2923   14.1735 O.3     1  UNL1       -0.3254
     40 C          62.9020   82.9523   12.1740 C.ar    1  UNL1        0.0410
     41 C          64.1077   83.0006   11.4386 C.ar    1  UNL1        0.0022
     42 C          64.1764   83.6633   10.2124 C.ar    1  UNL1        0.0113
     43 C          63.0434   84.2791    9.6843 C.ar    1  UNL1        0.0585
     44 CL         63.1335   85.1085    8.1413 Cl      1  UNL1       -0.0822
     45 C          61.8345   84.2234   10.3783 C.ar    1  UNL1        0.0226
     46 C          61.7482   83.5610   11.6093 C.ar    1  UNL1        0.0591
     47 CL         60.1626   83.5094   12.3772 Cl      1  UNL1       -0.0824
     48 C          62.5643   80.6966   13.2497 C.3     1  UNL1        0.1897
     49 N          61.1286   80.4439   13.1425 N.ar    1  UNL1       -0.2246
     50 C          60.4467   80.1252   12.0302 C.ar    1  UNL1        0.1974
     51 N          59.1470   79.9038   12.3048 N.ar    1  UNL1       -0.2007
     52 C          59.0931   80.1044   13.6405 C.ar    1  UNL1        0.2210
     53 N          60.2920   80.4281   14.1631 N.ar    1  UNL1       -0.1450
@<TRIPOS>BOND
     1    27    28    1
     2    28    25    1
     3    25    26    1
     4    25    19    1
     5    19    20   ar
     6    20    21   ar
     7    21    22   ar
     8    22    13    1
     9    13    14   ar
    10    14    15   ar
    11    15    16   ar
    12    16     7    1
    13     7     8    1
    14     8     9    1
    15     9    10    1
    16    10     1    1
    17     1     2   ar
    18     2     3   ar
    19     3     4   ar
    20     4    33    1
    21    33    34    1
    22    34    35    1
    23    35    36    1
    24    36    37    1
    25    37    38    1
    26    38    48    1
    27    48    49    1
    28    49    50   ar
    29    50    51   ar
    30    51    52   ar
    31    52    53   ar
    32    38    40    1
    33    40    41   ar
    34    41    42   ar
    35    42    43   ar
    36    43    44    1
    37    43    45   ar
    38    45    46   ar
    39    46    47    1
    40    38    39    1
    41     4     5   ar
    42     5     6   ar
    43    10    11    1
    44    11    12    1
    45    12    29    1
    46    29    30    2
    47    29    31    1
    48    16    17   ar
    49    17    18   ar
    50    22    23   ar
    51    23    24    2
    52    23    19   ar
    53    18    13   ar
    54    12     7    1
    55     6     1   ar
    56    39    35    1
    57    53    49   ar
    58    46    40   ar
    59    31    32    1
@<TRIPOS>MOLECULE
*****
 53 59 0 0 0
SMALL
GASTEIGER

@<TRIPOS>ATOM
      1 C          61.0688   87.7171   11.6771 C.ar    1  UNL1        0.0481
      2 C          60.2381   87.1629   12.6620 C.ar    1  UNL1        0.0176
      3 C          60.7914   86.5461   13.7868 C.ar    1  UNL1        0.0382
      4 C          62.1796   86.4723   13.9525 C.ar    1  UNL1        0.1388
      5 C          63.0148   87.0306   12.9624 C.ar    1  UNL1        0.0382
      6 C          62.4603   87.6473   11.8369 C.ar    1  UNL1        0.0176
      7 N          60.1970   89.5939    7.9861 N.pl3   1  UNL1       -0.2968
      8 C          60.9478   90.2641    9.0605 C.3     1  UNL1        0.1126
      9 C          60.4564   89.8209   10.4363 C.3     1  UNL1        0.1123
     10 N          60.4987   88.3595   10.5232 N.pl3   1  UNL1       -0.3036
     11 C          60.0314   87.5392    9.3975 C.3     1  UNL1        0.1221
     12 C          59.3866   88.3897    8.2814 C.3     1  UNL1        0.1924
     13 C          59.8582   91.6593    4.2681 C.ar    1  UNL1        0.0699
     14 C          61.0900   91.1239    4.6809 C.ar    1  UNL1        0.0190
     15 C          61.1984   90.4504    5.9006 C.ar    1  UNL1        0.0160
     16 C          60.0755   90.2881    6.7257 C.ar    1  UNL1        0.0484
     17 C          58.8431   90.8222    6.3153 C.ar    1  UNL1        0.0160
     18 C          58.7345   91.4972    5.0965 C.ar    1  UNL1        0.0190
     19 N          60.1981   93.5287    1.1773 N.ar    1  UNL1       -0.2024
     20 N          58.9337   93.1427    1.0828 N.ar    1  UNL1       -0.1442
     21 C          58.6695   92.4296    2.1993 C.ar    1  UNL1        0.2073
     22 N          59.7517   92.3480    3.0070 N.ar    1  UNL1       -0.2398
     23 C          60.6906   93.0369    2.3283 C.ar    1  UNL1        0.3522
     24 O          61.8886   93.1682    2.6987 O.2     1  UNL1       -0.2444
     25 C          60.9228   94.2701    0.1403 C.3     1  UNL1        0.1099
     26 C          59.9282   94.8350   -0.8825 C.3     1  UNL1        0.0265
     27 C          61.9569   93.4202   -2.0397 C.3     1  UNL1        0.0021
     28 C          61.9683   93.3447   -0.5129 C.3     1  UNL1        0.0245
     29 C          59.2100   87.5259    7.0592 C.2     1  UNL1        0.3337
     30 O          59.6004   86.3277    7.0716 O.2     1  UNL1       -0.2484
     31 O          58.6412   88.0580    5.9052 O.3     1  UNL1       -0.4790
     32 H          58.5222   87.4897    5.0752 H       1  UNL1        0.2951
     33 O          62.6667   85.8402   15.1105 O.3     1  UNL1       -0.4727
     34 C          62.4401   84.4840   15.5016 C.3     1  UNL1        0.2374
     35 C          63.5088   83.5459   14.9139 C.3     1  UNL1        0.1909
     36 C          63.2493   82.0886   15.1634 C.3     1  UNL1        0.1783
     37 O          62.5641   81.6263   14.0455 O.3     1  UNL1       -0.3266
     38 C          62.8142   82.5609   13.0135 C.3     1  UNL1        0.2315
     39 O          63.5232   83.6768   13.5271 O.3     1  UNL1       -0.3254
     40 C          61.4821   83.0123   12.4034 C.ar    1  UNL1        0.0410
     41 C          60.2676   82.6305   13.0165 C.ar    1  UNL1        0.0022
     42 C          59.0395   83.0474   12.5014 C.ar    1  UNL1        0.0113
     43 C          58.9938   83.8655   11.3742 C.ar    1  UNL1        0.0585
     44 CL         57.4480   84.3896   10.7318 Cl      1  UNL1       -0.0822
     45 C          60.1795   84.2777   10.7658 C.ar    1  UNL1        0.0226
     46 C          61.4204   83.8696   11.2712 C.ar    1  UNL1        0.0591
     47 CL         62.8555   84.4876   10.4557 Cl      1  UNL1       -0.0824
     48 C          63.6899   81.8858   11.9385 C.3     1  UNL1        0.1897
     49 N          62.9401   80.8705   11.2011 N.ar    1  UNL1       -0.2246
     50 C          62.7183   80.8347    9.8770 C.ar    1  UNL1        0.1974
     51 N          62.0395   79.7250    9.5288 N.ar    1  UNL1       -0.2007
     52 C          61.8724   79.1009   10.7162 C.ar    1  UNL1        0.2210
     53 N          62.4199   79.7840   11.7404 N.ar    1  UNL1       -0.1450
@<TRIPOS>BOND
     1    27    28    1
     2    28    25    1
     3    25    26    1
     4    25    19    1
     5    19    20   ar
     6    20    21   ar
     7    21    22   ar
     8    22    13    1
     9    13    14   ar
    10    14    15   ar
    11    15    16   ar
    12    16     7    1
    13     7     8    1
    14     8     9    1
    15     9    10    1
    16    10     1    1
    17     1     2   ar
    18     2     3   ar
    19     3     4   ar
    20     4    33    1
    21    33    34    1
    22    34    35    1
    23    35    36    1
    24    36    37    1
    25    37    38    1
    26    38    48    1
    27    48    49    1
    28    49    50   ar
    29    50    51   ar
    30    51    52   ar
    31    52    53   ar
    32    38    40    1
    33    40    41   ar
    34    41    42   ar
    35    42    43   ar
    36    43    44    1
    37    43    45   ar
    38    45    46   ar
    39    46    47    1
    40    38    39    1
    41     4     5   ar
    42     5     6   ar
    43    10    11    1
    44    11    12    1
    45    12    29    1
    46    29    30    2
    47    29    31    1
    48    16    17   ar
    49    17    18   ar
    50    22    23   ar
    51    23    24    2
    52    23    19   ar
    53    18    13   ar
    54    12     7    1
    55     6     1   ar
    56    39    35    1
    57    53    49   ar
    58    46    40   ar
    59    31    32    1
@<TRIPOS>MOLECULE
*****
 53 59 0 0 0
SMALL
GASTEIGER

@<TRIPOS>ATOM
      1 C          60.1827   83.7506   13.5782 C.ar    1  UNL1        0.0481
      2 C          60.7503   82.4713   13.6692 C.ar    1  UNL1        0.0176
      3 C          60.0748   81.3612   13.1559 C.ar    1  UNL1        0.0382
      4 C          58.8251   81.5049   12.5415 C.ar    1  UNL1        0.1388
      5 C          58.2549   82.7917   12.4492 C.ar    1  UNL1        0.0382
      6 C          58.9314   83.9020   12.9633 C.ar    1  UNL1        0.0176
      7 N          62.4124   87.2767   14.2857 N.pl3   1  UNL1       -0.2968
      8 C          63.0338   86.0210   13.8336 C.3     1  UNL1        0.1126
      9 C          62.3103   84.8078   14.4127 C.3     1  UNL1        0.1123
     10 N          60.8822   84.8944   14.0992 N.pl3   1  UNL1       -0.3036
     11 C          60.1718   86.1727   14.2398 C.3     1  UNL1        0.1221
     12 C          61.0553   87.2661   14.8791 C.3     1  UNL1        0.1924
     13 C          64.9229   90.7193   14.5095 C.ar    1  UNL1        0.0699
     14 C          64.5937   90.1518   13.2669 C.ar    1  UNL1        0.0190
     15 C          63.7735   89.0226   13.1970 C.ar    1  UNL1        0.0160
     16 C          63.2564   88.4457   14.3667 C.ar    1  UNL1        0.0484
     17 C          63.5839   89.0111   15.6098 C.ar    1  UNL1        0.0160
     18 C          64.4053   90.1394   15.6804 C.ar    1  UNL1        0.0190
     19 N          67.4954   93.2562   14.8405 N.ar    1  UNL1       -0.2024
     20 N          66.4780   94.0022   14.4343 N.ar    1  UNL1       -0.1442
     21 C          65.4302   93.1638   14.2788 C.ar    1  UNL1        0.2073
     22 N          65.7647   91.8869   14.5746 N.ar    1  UNL1       -0.2398
     23 C          67.0667   91.9831   14.9096 C.ar    1  UNL1        0.3522
     24 O          67.8030   91.0038   15.2068 O.2     1  UNL1       -0.2444
     25 C          68.8568   93.7535   15.0628 C.3     1  UNL1        0.1099
     26 C          69.8694   92.7910   14.4282 C.3     1  UNL1        0.0265
     27 C          70.1435   92.9730   17.1314 C.3     1  UNL1        0.0021
     28 C          69.0938   93.9351   16.5750 C.3     1  UNL1        0.0245
     29 C          60.3675   88.5971   14.7158 C.2     1  UNL1        0.3337
     30 O          60.1465   89.3210   15.7234 O.2     1  UNL1       -0.2484
     31 O          59.9500   89.0165   13.4556 O.3     1  UNL1       -0.4790
     32 H          59.4815   89.9062   13.3331 H       1  UNL1        0.2951
     33 O          58.2041   80.3451   12.0445 O.3     1  UNL1       -0.4727
     34 C          58.6730   79.5165   10.9781 C.3     1  UNL1        0.2374
     35 C          58.2385   80.0673    9.6087 C.3     1  UNL1        0.1909
     36 C          57.5676   81.4086    9.6723 C.3     1  UNL1        0.1783
     37 O          58.5725   82.3478    9.4694 O.3     1  UNL1       -0.3266
     38 C          59.6421   81.6562    8.8540 C.3     1  UNL1        0.2315
     39 O          59.3653   80.2657    8.8140 O.3     1  UNL1       -0.3254
     40 C          60.9339   81.9189    9.6366 C.ar    1  UNL1        0.0410
     41 C          61.1635   83.1952   10.1981 C.ar    1  UNL1        0.0022
     42 C          62.3166   83.4584   10.9387 C.ar    1  UNL1        0.0113
     43 C          63.2587   82.4535   11.1493 C.ar    1  UNL1        0.0585
     44 CL         64.7053   82.7879   12.0833 Cl      1  UNL1       -0.0822
     45 C          63.0430   81.1778   10.6276 C.ar    1  UNL1        0.0226
     46 C          61.8902   80.8967    9.8834 C.ar    1  UNL1        0.0591
     47 CL         61.6943   79.2408    9.3125 Cl      1  UNL1       -0.0824
     48 C          59.7866   82.1613    7.4040 C.3     1  UNL1        0.1897
     49 N          60.2336   83.5525    7.3667 N.ar    1  UNL1       -0.2246
     50 C          59.5571   84.6289    7.7997 C.ar    1  UNL1        0.1974
     51 N          60.2921   85.7495    7.6668 N.ar    1  UNL1       -0.2007
     52 C          61.4433   85.2815    7.1348 C.ar    1  UNL1        0.2210
     53 N          61.4230   83.9468    6.9523 N.ar    1  UNL1       -0.1450
@<TRIPOS>BOND
     1    27    28    1
     2    28    25    1
     3    25    26    1
     4    25    19    1
     5    19    20   ar
     6    20    21   ar
     7    21    22   ar
     8    22    13    1
     9    13    14   ar
    10    14    15   ar
    11    15    16   ar
    12    16     7    1
    13     7     8    1
    14     8     9    1
    15     9    10    1
    16    10     1    1
    17     1     2   ar
    18     2     3   ar
    19     3     4   ar
    20     4    33    1
    21    33    34    1
    22    34    35    1
    23    35    36    1
    24    36    37    1
    25    37    38    1
    26    38    48    1
    27    48    49    1
    28    49    50   ar
    29    50    51   ar
    30    51    52   ar
    31    52    53   ar
    32    38    40    1
    33    40    41   ar
    34    41    42   ar
    35    42    43   ar
    36    43    44    1
    37    43    45   ar
    38    45    46   ar
    39    46    47    1
    40    38    39    1
    41     4     5   ar
    42     5     6   ar
    43    10    11    1
    44    11    12    1
    45    12    29    1
    46    29    30    2
    47    29    31    1
    48    16    17   ar
    49    17    18   ar
    50    22    23   ar
    51    23    24    2
    52    23    19   ar
    53    18    13   ar
    54    12     7    1
    55     6     1   ar
    56    39    35    1
    57    53    49   ar
    58    46    40   ar
    59    31    32    1
