@<TRIPOS>MOLECULE
*****
 61 65 0 0 0
SMALL
GASTEIGER

@<TRIPOS>ATOM
      1 C          49.9592   11.6701  -25.7885 C.ar    1  UNL1        0.0993
      2 C          50.2906   10.9524  -26.9481 C.ar    1  UNL1        0.0235
      3 C          51.2888    9.9635  -26.9228 C.ar    1  UNL1        0.0548
      4 C          51.9180    9.6632  -25.7042 C.ar    1  UNL1        0.0077
      5 C          51.5799   10.3607  -24.5446 C.ar    1  UNL1        0.0390
      6 C          50.6193   11.3860  -24.5821 C.ar    1  UNL1        0.1598
      7 C          51.6447    9.2349  -28.1631 C.2     1  UNL1        0.2458
      8 O          50.7854    8.4854  -28.7007 O.2     1  UNL1       -0.2701
      9 N          52.9440    9.3984  -28.7661 N.am    1  UNL1       -0.3040
     10 H          53.5366   10.1853  -28.4162 H       1  UNL1        0.1496
     11 C          53.4844    8.5538  -29.8499 C.3     1  UNL1        0.0572
     12 C          53.8092    7.1449  -29.3160 C.3     1  UNL1        0.0196
     13 C          52.4768    8.4677  -31.0130 C.3     1  UNL1        0.0196
     14 C          54.7878    9.1883  -30.3782 C.3     1  UNL1        0.0196
     15 N          48.9607   12.6968  -25.8340 N.pl3   1  UNL1       -0.2120
     16 H          49.2494   13.6678  -26.0878 H       1  UNL1        0.1738
     17 S          47.2823   12.2997  -26.0068 S.O2    1  UNL1        0.0742
     18 O          46.4788   13.0886  -25.0116 O.2     1  UNL1       -0.1499
     19 O          47.0662   10.8506  -25.6762 O.2     1  UNL1       -0.1499
     20 C          46.3749   14.0325  -28.0249 C.ar    1  UNL1       -0.0031
     21 C          45.8657   14.2721  -29.3174 C.ar    1  UNL1       -0.0072
     22 C          45.8561   13.2732  -30.2915 C.ar    1  UNL1       -0.0219
     23 C          46.2933   11.9919  -29.9627 C.ar    1  UNL1        0.0085
     24 C          46.7542   11.7000  -28.6778 C.ar    1  UNL1        0.0759
     25 CL         47.3516   10.0618  -28.4275 Cl      1  UNL1       -0.0809
     26 C          46.7643   12.7020  -27.6709 C.ar    1  UNL1        0.1316
     27 C          47.8134   15.9385  -27.1301 C.3     1  UNL1        0.0047
     28 C          46.4597   15.2125  -27.0556 C.3     1  UNL1        0.0237
     29 C          45.3079   16.1935  -27.3009 C.3     1  UNL1        0.0047
     30 C          45.3307   13.5642  -31.6718 C.3     1  UNL1        0.0224
     31 C          46.0812   12.8770  -32.8064 C.3     1  UNL1        0.0047
     32 C          44.7121   12.3719  -32.3914 C.3     1  UNL1        0.0047
     33 O          50.3074   12.1327  -23.4356 O.3     1  UNL1       -0.4513
     34 C          49.0735   12.0726  -22.7760 C.ar    1  UNL1        0.1580
     35 C          48.5009   10.8203  -22.5324 C.ar    1  UNL1        0.0677
     36 C          47.2991   10.7151  -21.8262 C.ar    1  UNL1        0.1398
     37 F          46.8023    9.4841  -21.5438 F       1  UNL1       -0.2044
     38 C          46.6321   11.8738  -21.3923 C.ar    1  UNL1        0.0175
     39 C          47.1822   13.1321  -21.6811 C.ar    1  UNL1        0.0130
     40 C          48.3958   13.2382  -22.3652 C.ar    1  UNL1        0.0919
     41 CL         49.0220   14.8431  -22.7143 Cl      1  UNL1       -0.0791
     42 C          45.4111   11.7814  -20.5141 C.3     1  UNL1        0.1382
     43 C          45.7526   12.1200  -19.0928 C.2     1  UNL1        0.3234
     44 O          44.8253   12.3083  -18.2596 O.2     1  UNL1       -0.2497
     45 O          47.0928   12.2748  -18.7149 O.3     1  UNL1       -0.4215
     46 C          47.8776   11.2344  -18.1332 C.3     1  UNL1        0.3207
     47 O          48.0161   11.4087  -16.7276 O.3     1  UNL1       -0.3070
     48 C          48.7957   12.5438  -16.3635 C.3     1  UNL1        0.2456
     49 C          50.2047   12.5429  -17.0111 C.3     1  UNL1        0.1781
     50 O          50.9704   11.5219  -16.4214 O.3     1  UNL1       -0.3790
     51 C          50.1284   12.3237  -18.5350 C.3     1  UNL1        0.1733
     52 O          49.6265   13.4693  -19.1740 O.3     1  UNL1       -0.3793
     53 C          49.2333   11.1217  -18.8568 C.3     1  UNL1        0.2106
     54 O          49.8838    9.9359  -18.4750 O.3     1  UNL1       -0.3766
     55 H          51.9217   11.7143  -16.6314 H       1  UNL1        0.2106
     56 H          50.3609   14.1375  -19.1879 H       1  UNL1        0.2105
     57 H          49.4424    9.1936  -18.9648 H       1  UNL1        0.2107
     58 C          48.0229   13.8338  -16.5145 C.2     1  UNL1        0.3439
     59 O          47.3912   14.3331  -15.5444 O.2     1  UNL1       -0.2475
     60 O          47.9370   14.4329  -17.7672 O.3     1  UNL1       -0.4785
     61 H          47.4061   15.2853  -17.9001 H       1  UNL1        0.2951
@<TRIPOS>BOND
     1    27    28    1
     2    28    29    1
     3    28    20    1
     4    20    21   ar
     5    21    22   ar
     6    22    30    1
     7    30    31    1
     8    31    32    1
     9    22    23   ar
    10    23    24   ar
    11    24    25    1
    12    24    26   ar
    13    26    17    1
    14    17    18    2
    15    17    19    2
    16    17    15    1
    17    15     1    1
    18     1     2   ar
    19     2     3   ar
    20     3     7    1
    21     7     8    2
    22     7     9   am
    23     9    11    1
    24    11    12    1
    25    11    13    1
    26    11    14    1
    27     3     4   ar
    28     4     5   ar
    29     5     6   ar
    30     6    33    1
    31    33    34    1
    32    34    35   ar
    33    35    36   ar
    34    36    37    1
    35    36    38   ar
    36    38    42    1
    37    42    43    1
    38    43    44    2
    39    43    45    1
    40    45    46    1
    41    46    47    1
    42    47    48    1
    43    48    58    1
    44    58    59    2
    45    58    60    1
    46    48    49    1
    47    49    50    1
    48    49    51    1
    49    51    52    1
    50    51    53    1
    51    53    54    1
    52    38    39   ar
    53    39    40   ar
    54    40    41    1
    55    26    20   ar
    56     6     1   ar
    57    40    34   ar
    58    32    30    1
    59    53    46    1
    60    15    16    1
    61     9    10    1
    62    60    61    1
    63    50    55    1
    64    52    56    1
    65    54    57    1
@<TRIPOS>MOLECULE
*****
 61 65 0 0 0
SMALL
GASTEIGER

@<TRIPOS>ATOM
      1 C          51.0977   10.7366  -26.5835 C.ar    1  UNL1        0.0993
      2 C          52.1670   10.4903  -27.4586 C.ar    1  UNL1        0.0235
      3 C          52.0522    9.5390  -28.4865 C.ar    1  UNL1        0.0548
      4 C          50.8297    8.8714  -28.6622 C.ar    1  UNL1        0.0077
      5 C          49.7576    9.1253  -27.8068 C.ar    1  UNL1        0.0390
      6 C          49.8906   10.0380  -26.7462 C.ar    1  UNL1        0.1598
      7 C          53.2009    9.2723  -29.3839 C.2     1  UNL1        0.2458
      8 O          53.4425   10.0763  -30.3243 O.2     1  UNL1       -0.2701
      9 N          54.0500    8.1265  -29.1726 N.am    1  UNL1       -0.3040
     10 H          53.9477    7.6180  -28.2649 H       1  UNL1        0.1496
     11 C          55.0618    7.6370  -30.1300 C.3     1  UNL1        0.0572
     12 C          54.3783    7.1304  -31.4151 C.3     1  UNL1        0.0196
     13 C          56.0678    8.7561  -30.4628 C.3     1  UNL1        0.0196
     14 C          55.8311    6.4624  -29.4904 C.3     1  UNL1        0.0196
     15 N          51.2374   11.6874  -25.5206 N.pl3   1  UNL1       -0.2120
     16 H          50.6753   12.5669  -25.5560 H       1  UNL1        0.1738
     17 S          51.8660   11.2115  -23.9770 S.O2    1  UNL1        0.0742
     18 O          52.8684   12.2300  -23.5119 O.2     1  UNL1       -0.1499
     19 O          52.6081    9.9124  -24.1089 O.2     1  UNL1       -0.1499
     20 C          50.1048   12.2426  -22.0447 C.ar    1  UNL1       -0.0031
     21 C          49.1106   12.0778  -21.0590 C.ar    1  UNL1       -0.0072
     22 C          48.4303   10.8690  -20.9079 C.ar    1  UNL1       -0.0219
     23 C          48.7868    9.7790  -21.6991 C.ar    1  UNL1        0.0085
     24 C          49.8036    9.8859  -22.6495 C.ar    1  UNL1        0.0759
     25 CL         50.0918    8.4535  -23.6335 Cl      1  UNL1       -0.0809
     26 C          50.5125   11.1062  -22.8123 C.ar    1  UNL1        0.1316
     27 C          49.6794   14.7570  -22.0590 C.3     1  UNL1        0.0047
     28 C          50.7163   13.6330  -22.2232 C.3     1  UNL1        0.0237
     29 C          51.8868   13.8340  -21.2544 C.3     1  UNL1        0.0047
     30 C          47.3545   10.7289  -19.8644 C.3     1  UNL1        0.0224
     31 C          47.4864   11.6678  -18.6711 C.3     1  UNL1        0.0047
     32 C          46.4288   11.9314  -19.7264 C.3     1  UNL1        0.0047
     33 O          48.8388   10.2640  -25.8451 O.3     1  UNL1       -0.4513
     34 C          47.9768   11.3657  -25.9111 C.ar    1  UNL1        0.1580
     35 C          47.7730   12.1308  -24.7585 C.ar    1  UNL1        0.0677
     36 C          46.9658   13.2714  -24.7978 C.ar    1  UNL1        0.1398
     37 F          46.8417   14.0338  -23.6819 F       1  UNL1       -0.2044
     38 C          46.3153   13.6345  -25.9897 C.ar    1  UNL1        0.0175
     39 C          46.4805   12.8377  -27.1329 C.ar    1  UNL1        0.0130
     40 C          47.3065   11.7112  -27.1019 C.ar    1  UNL1        0.0919
     41 CL         47.4560   10.7429  -28.5613 Cl      1  UNL1       -0.0791
     42 C          45.5531   14.9305  -26.0921 C.3     1  UNL1        0.1382
     43 C          46.2382   15.8762  -27.0342 C.2     1  UNL1        0.3234
     44 O          45.7942   16.0153  -28.2060 O.2     1  UNL1       -0.2497
     45 O          47.3922   16.5563  -26.6238 O.3     1  UNL1       -0.4215
     46 C          48.2537   17.2648  -27.5141 C.3     1  UNL1        0.3207
     47 O          49.4359   16.5245  -27.7962 O.3     1  UNL1       -0.3070
     48 C          50.3019   16.3760  -26.6751 C.3     1  UNL1        0.2456
     49 C          50.6985   17.7308  -26.0333 C.3     1  UNL1        0.1781
     50 O          51.5554   18.4127  -26.9148 O.3     1  UNL1       -0.3790
     51 C          49.4612   18.5995  -25.7323 C.3     1  UNL1        0.1733
     52 O          48.7438   18.0766  -24.6440 O.3     1  UNL1       -0.3793
     53 C          48.5489   18.6727  -26.9621 C.3     1  UNL1        0.2106
     54 O          49.1597   19.4587  -27.9541 O.3     1  UNL1       -0.3766
     55 H          52.0133   19.1183  -26.3870 H       1  UNL1        0.2106
     56 H          49.2530   18.3090  -23.8239 H       1  UNL1        0.2105
     57 H          48.4434   19.7409  -28.5810 H       1  UNL1        0.2107
     58 C          49.7993   15.3314  -25.7055 C.2     1  UNL1        0.3439
     59 O          50.1010   14.1151  -25.8428 O.2     1  UNL1       -0.2475
     60 O          48.9189   15.7076  -24.6960 O.3     1  UNL1       -0.4785
     61 H          48.5493   15.0230  -24.0473 H       1  UNL1        0.2951
@<TRIPOS>BOND
     1    27    28    1
     2    28    29    1
     3    28    20    1
     4    20    21   ar
     5    21    22   ar
     6    22    30    1
     7    30    31    1
     8    31    32    1
     9    22    23   ar
    10    23    24   ar
    11    24    25    1
    12    24    26   ar
    13    26    17    1
    14    17    18    2
    15    17    19    2
    16    17    15    1
    17    15     1    1
    18     1     2   ar
    19     2     3   ar
    20     3     7    1
    21     7     8    2
    22     7     9   am
    23     9    11    1
    24    11    12    1
    25    11    13    1
    26    11    14    1
    27     3     4   ar
    28     4     5   ar
    29     5     6   ar
    30     6    33    1
    31    33    34    1
    32    34    35   ar
    33    35    36   ar
    34    36    37    1
    35    36    38   ar
    36    38    42    1
    37    42    43    1
    38    43    44    2
    39    43    45    1
    40    45    46    1
    41    46    47    1
    42    47    48    1
    43    48    58    1
    44    58    59    2
    45    58    60    1
    46    48    49    1
    47    49    50    1
    48    49    51    1
    49    51    52    1
    50    51    53    1
    51    53    54    1
    52    38    39   ar
    53    39    40   ar
    54    40    41    1
    55    26    20   ar
    56     6     1   ar
    57    40    34   ar
    58    32    30    1
    59    53    46    1
    60    15    16    1
    61     9    10    1
    62    60    61    1
    63    50    55    1
    64    52    56    1
    65    54    57    1
@<TRIPOS>MOLECULE
*****
 61 65 0 0 0
SMALL
GASTEIGER

@<TRIPOS>ATOM
      1 C          52.3272   10.5577  -25.2113 C.ar    1  UNL1        0.0993
      2 C          52.4061    9.7347  -26.3453 C.ar    1  UNL1        0.0235
      3 C          52.8306   10.2504  -27.5817 C.ar    1  UNL1        0.0548
      4 C          53.2277   11.5949  -27.6577 C.ar    1  UNL1        0.0077
      5 C          53.1685   12.4132  -26.5296 C.ar    1  UNL1        0.0390
      6 C          52.6935   11.9099  -25.3062 C.ar    1  UNL1        0.1598
      7 C          52.8815    9.3731  -28.7749 C.2     1  UNL1        0.2458
      8 O          53.9729    9.2417  -29.3918 O.2     1  UNL1       -0.2701
      9 N          51.7097    8.6560  -29.2122 N.am    1  UNL1       -0.3040
     10 H          50.8984    8.6213  -28.5538 H       1  UNL1        0.1496
     11 C          51.5829    7.9534  -30.5046 C.3     1  UNL1        0.0572
     12 C          52.6146    6.8120  -30.5940 C.3     1  UNL1        0.0196
     13 C          50.1544    7.4000  -30.6738 C.3     1  UNL1        0.0196
     14 C          51.8589    8.9520  -31.6478 C.3     1  UNL1        0.0196
     15 N          51.8642   10.0270  -23.9633 N.pl3   1  UNL1       -0.2120
     16 H          52.1986   10.4647  -23.0761 H       1  UNL1        0.1738
     17 S          50.4149    9.0798  -23.8813 S.O2    1  UNL1        0.0742
     18 O          50.4442    8.2309  -22.6415 O.2     1  UNL1       -0.1499
     19 O          50.3603    8.1325  -25.0455 O.2     1  UNL1       -0.1499
     20 C          48.4395   10.6096  -22.5944 C.ar    1  UNL1       -0.0031
     21 C          47.2627   11.3855  -22.6145 C.ar    1  UNL1       -0.0072
     22 C          46.7199   11.8515  -23.8125 C.ar    1  UNL1       -0.0219
     23 C          47.3108   11.4861  -25.0200 C.ar    1  UNL1        0.0085
     24 C          48.4458   10.6738  -25.0452 C.ar    1  UNL1        0.0759
     25 CL         49.1330   10.3597  -26.6365 Cl      1  UNL1       -0.0809
     26 C          49.0081   10.1836  -23.8362 C.ar    1  UNL1        0.1316
     27 C          49.4183   11.4784  -20.4058 C.3     1  UNL1        0.0047
     28 C          49.0341   10.2410  -21.2344 C.3     1  UNL1        0.0237
     29 C          48.0682    9.3460  -20.4500 C.3     1  UNL1        0.0047
     30 C          45.4769   12.7005  -23.8029 C.3     1  UNL1        0.0224
     31 C          45.3133   13.6193  -25.0079 C.3     1  UNL1        0.0047
     32 C          44.4611   12.3697  -24.8895 C.3     1  UNL1        0.0047
     33 O          52.5775   12.7345  -24.1766 O.3     1  UNL1       -0.4513
     34 C          51.4170   13.4439  -23.8432 C.ar    1  UNL1        0.1580
     35 C          50.3866   13.5291  -24.7848 C.ar    1  UNL1        0.0677
     36 C          49.1896   14.1787  -24.4695 C.ar    1  UNL1        0.1398
     37 F          48.1808   14.1859  -25.3773 F       1  UNL1       -0.2044
     38 C          49.0288   14.7913  -23.2146 C.ar    1  UNL1        0.0175
     39 C          50.0825   14.7483  -22.2889 C.ar    1  UNL1        0.0130
     40 C          51.2702   14.0783  -22.5932 C.ar    1  UNL1        0.0919
     41 CL         52.5602   14.0778  -21.3992 Cl      1  UNL1       -0.0791
     42 C          47.7025   15.3764  -22.8029 C.3     1  UNL1        0.1382
     43 C          47.5321   16.7554  -23.3690 C.2     1  UNL1        0.3234
     44 O          47.2231   17.7074  -22.6022 O.2     1  UNL1       -0.2497
     45 O          47.6662   16.9654  -24.7477 O.3     1  UNL1       -0.4215
     46 C          47.2056   18.1372  -25.4196 C.3     1  UNL1        0.3207
     47 O          47.0356   17.9068  -26.8136 O.3     1  UNL1       -0.3070
     48 C          48.2566   17.6815  -27.5118 C.3     1  UNL1        0.2456
     49 C          49.2867   18.8234  -27.3131 C.3     1  UNL1        0.1781
     50 O          48.8268   19.9671  -27.9889 O.3     1  UNL1       -0.3790
     51 C          49.4932   19.1476  -25.8203 C.3     1  UNL1        0.1733
     52 O          50.2195   18.1247  -25.1888 O.3     1  UNL1       -0.3793
     53 C          48.1406   19.3249  -25.1209 C.3     1  UNL1        0.2106
     54 O          47.5447   20.5239  -25.5477 O.3     1  UNL1       -0.3766
     55 H          49.6044   20.5762  -28.0913 H       1  UNL1        0.2106
     56 H          51.1674   18.2309  -25.4645 H       1  UNL1        0.2105
     57 H          46.8564   20.7609  -24.8725 H       1  UNL1        0.2107
     58 C          48.7933   16.2879  -27.2792 C.2     1  UNL1        0.3439
     59 O          49.9681   16.1027  -26.8612 O.2     1  UNL1       -0.2475
     60 O          48.0062   15.1909  -27.6149 O.3     1  UNL1       -0.4785
     61 H          48.3511   14.2466  -27.4906 H       1  UNL1        0.2951
@<TRIPOS>BOND
     1    27    28    1
     2    28    29    1
     3    28    20    1
     4    20    21   ar
     5    21    22   ar
     6    22    30    1
     7    30    31    1
     8    31    32    1
     9    22    23   ar
    10    23    24   ar
    11    24    25    1
    12    24    26   ar
    13    26    17    1
    14    17    18    2
    15    17    19    2
    16    17    15    1
    17    15     1    1
    18     1     2   ar
    19     2     3   ar
    20     3     7    1
    21     7     8    2
    22     7     9   am
    23     9    11    1
    24    11    12    1
    25    11    13    1
    26    11    14    1
    27     3     4   ar
    28     4     5   ar
    29     5     6   ar
    30     6    33    1
    31    33    34    1
    32    34    35   ar
    33    35    36   ar
    34    36    37    1
    35    36    38   ar
    36    38    42    1
    37    42    43    1
    38    43    44    2
    39    43    45    1
    40    45    46    1
    41    46    47    1
    42    47    48    1
    43    48    58    1
    44    58    59    2
    45    58    60    1
    46    48    49    1
    47    49    50    1
    48    49    51    1
    49    51    52    1
    50    51    53    1
    51    53    54    1
    52    38    39   ar
    53    39    40   ar
    54    40    41    1
    55    26    20   ar
    56     6     1   ar
    57    40    34   ar
    58    32    30    1
    59    53    46    1
    60    15    16    1
    61     9    10    1
    62    60    61    1
    63    50    55    1
    64    52    56    1
    65    54    57    1
@<TRIPOS>MOLECULE
*****
 61 65 0 0 0
SMALL
GASTEIGER

@<TRIPOS>ATOM
      1 C          49.6589    9.4845  -28.0889 C.ar    1  UNL1        0.0993
      2 C          50.8103    8.9177  -28.6571 C.ar    1  UNL1        0.0235
      3 C          50.7398    8.1995  -29.8629 C.ar    1  UNL1        0.0548
      4 C          49.5054    8.0997  -30.5241 C.ar    1  UNL1        0.0077
      5 C          48.3610    8.6765  -29.9734 C.ar    1  UNL1        0.0390
      6 C          48.4226    9.3491  -28.7408 C.ar    1  UNL1        0.1598
      7 C          51.9611    7.5844  -30.4340 C.2     1  UNL1        0.2458
      8 O          51.8456    6.5823  -31.1899 O.2     1  UNL1       -0.2701
      9 N          53.2633    8.1367  -30.1548 N.am    1  UNL1       -0.3040
     10 H          53.2950    9.0828  -29.7113 H       1  UNL1        0.1496
     11 C          54.5458    7.4760  -30.4687 C.3     1  UNL1        0.0572
     12 C          54.4939    6.8539  -31.8778 C.3     1  UNL1        0.0196
     13 C          55.7054    8.4865  -30.3707 C.3     1  UNL1        0.0196
     14 C          54.7928    6.3478  -29.4456 C.3     1  UNL1        0.0196
     15 N          49.7386   10.1889  -26.8436 N.pl3   1  UNL1       -0.2120
     16 H          48.9624   10.8367  -26.5820 H       1  UNL1        0.1738
     17 S          50.7619    9.6228  -25.5643 S.O2    1  UNL1        0.0742
     18 O          52.0999    9.2376  -26.1300 O.2     1  UNL1       -0.1499
     19 O          50.1794    8.3767  -24.9611 O.2     1  UNL1       -0.1499
     20 C          50.1434   10.9884  -23.1871 C.ar    1  UNL1       -0.0031
     21 C          50.2584   12.1023  -22.3308 C.ar    1  UNL1       -0.0072
     22 C          51.2340   13.0786  -22.5353 C.ar    1  UNL1       -0.0219
     23 C          52.0682   12.9906  -23.6476 C.ar    1  UNL1        0.0085
     24 C          51.9502   11.9317  -24.5495 C.ar    1  UNL1        0.0759
     25 CL         53.1232   11.9047  -25.8634 Cl      1  UNL1       -0.0809
     26 C          50.9579   10.9326  -24.3620 C.ar    1  UNL1        0.1316
     27 C          49.6354    8.9718  -21.7111 C.3     1  UNL1        0.0047
     28 C          49.1276    9.9044  -22.8237 C.3     1  UNL1        0.0237
     29 C          47.7872   10.5343  -22.4288 C.3     1  UNL1        0.0047
     30 C          51.3513   14.2441  -21.5899 C.3     1  UNL1        0.0224
     31 C          51.2715   13.8859  -20.1106 C.3     1  UNL1        0.0047
     32 C          52.6081   14.2520  -20.7281 C.3     1  UNL1        0.0047
     33 O          47.2703    9.8879  -28.1480 O.3     1  UNL1       -0.4513
     34 C          46.9186   11.2419  -28.2132 C.ar    1  UNL1        0.1580
     35 C          46.6050   11.7965  -29.4579 C.ar    1  UNL1        0.0677
     36 C          46.1934   13.1287  -29.5575 C.ar    1  UNL1        0.1398
     37 F          45.8285   13.6206  -30.7686 F       1  UNL1       -0.2044
     38 C          46.1335   13.9363  -28.4085 C.ar    1  UNL1        0.0175
     39 C          46.4967   13.3926  -27.1669 C.ar    1  UNL1        0.0130
     40 C          46.8846   12.0544  -27.0620 C.ar    1  UNL1        0.0919
     41 CL         47.3470   11.4387  -25.4819 Cl      1  UNL1       -0.0791
     42 C          45.5640   15.3300  -28.4705 C.3     1  UNL1        0.1382
     43 C          46.0111   16.1392  -27.2888 C.2     1  UNL1        0.3234
     44 O          45.1746   16.8550  -26.6743 O.2     1  UNL1       -0.2497
     45 O          47.3598   16.1342  -26.9095 O.3     1  UNL1       -0.4215
     46 C          48.3730   16.8884  -27.5740 C.3     1  UNL1        0.3207
     47 O          49.6344   16.2320  -27.5168 O.3     1  UNL1       -0.3070
     48 C          50.1894   16.1671  -26.2066 C.3     1  UNL1        0.2456
     49 C          50.3158   17.5584  -25.5335 C.3     1  UNL1        0.1781
     50 O          51.3240   18.2858  -26.1896 O.3     1  UNL1       -0.3790
     51 C          48.9878   18.3390  -25.5911 C.3     1  UNL1        0.1733
     52 O          48.0500   17.7840  -24.7051 O.3     1  UNL1       -0.3793
     53 C          48.4214   18.3236  -27.0155 C.3     1  UNL1        0.2106
     54 O          49.2141   19.1348  -27.8451 O.3     1  UNL1       -0.3766
     55 H          51.5822   19.0322  -25.5876 H       1  UNL1        0.2106
     56 H          48.3135   18.0674  -23.7907 H       1  UNL1        0.2105
     57 H          48.6669   19.3526  -28.6445 H       1  UNL1        0.2107
     58 C          49.5239   15.1055  -25.3615 C.2     1  UNL1        0.3439
     59 O          49.0459   15.3792  -24.2275 O.2     1  UNL1       -0.2475
     60 O          49.5166   13.7872  -25.8063 O.3     1  UNL1       -0.4785
     61 H          49.0976   13.0530  -25.2483 H       1  UNL1        0.2951
@<TRIPOS>BOND
     1    27    28    1
     2    28    29    1
     3    28    20    1
     4    20    21   ar
     5    21    22   ar
     6    22    30    1
     7    30    31    1
     8    31    32    1
     9    22    23   ar
    10    23    24   ar
    11    24    25    1
    12    24    26   ar
    13    26    17    1
    14    17    18    2
    15    17    19    2
    16    17    15    1
    17    15     1    1
    18     1     2   ar
    19     2     3   ar
    20     3     7    1
    21     7     8    2
    22     7     9   am
    23     9    11    1
    24    11    12    1
    25    11    13    1
    26    11    14    1
    27     3     4   ar
    28     4     5   ar
    29     5     6   ar
    30     6    33    1
    31    33    34    1
    32    34    35   ar
    33    35    36   ar
    34    36    37    1
    35    36    38   ar
    36    38    42    1
    37    42    43    1
    38    43    44    2
    39    43    45    1
    40    45    46    1
    41    46    47    1
    42    47    48    1
    43    48    58    1
    44    58    59    2
    45    58    60    1
    46    48    49    1
    47    49    50    1
    48    49    51    1
    49    51    52    1
    50    51    53    1
    51    53    54    1
    52    38    39   ar
    53    39    40   ar
    54    40    41    1
    55    26    20   ar
    56     6     1   ar
    57    40    34   ar
    58    32    30    1
    59    53    46    1
    60    15    16    1
    61     9    10    1
    62    60    61    1
    63    50    55    1
    64    52    56    1
    65    54    57    1
@<TRIPOS>MOLECULE
*****
 61 65 0 0 0
SMALL
GASTEIGER

@<TRIPOS>ATOM
      1 C          49.1915   10.7730  -24.9703 C.ar    1  UNL1        0.0993
      2 C          50.0578   10.7943  -26.0743 C.ar    1  UNL1        0.0235
      3 C          51.0560    9.8167  -26.2258 C.ar    1  UNL1        0.0548
      4 C          51.1431    8.7815  -25.2815 C.ar    1  UNL1        0.0077
      5 C          50.2731    8.7450  -24.1918 C.ar    1  UNL1        0.0390
      6 C          49.3098    9.7527  -24.0129 C.ar    1  UNL1        0.1598
      7 C          51.9795    9.8707  -27.3834 C.2     1  UNL1        0.2458
      8 O          52.6862   10.9004  -27.5551 O.2     1  UNL1       -0.2701
      9 N          52.0926    8.7537  -28.2879 N.am    1  UNL1       -0.3040
     10 H          51.6599    7.8508  -27.9873 H       1  UNL1        0.1496
     11 C          52.7902    8.7877  -29.5888 C.3     1  UNL1        0.0572
     12 C          54.1797    8.1323  -29.4656 C.3     1  UNL1        0.0196
     13 C          51.9514    8.0690  -30.6637 C.3     1  UNL1        0.0196
     14 C          52.9797   10.2574  -30.0184 C.3     1  UNL1        0.0196
     15 N          48.1973   11.7926  -24.8115 N.pl3   1  UNL1       -0.2120
     16 H          48.2487   12.4190  -23.9775 H       1  UNL1        0.1738
     17 S          47.2714   12.3522  -26.1657 S.O2    1  UNL1        0.0742
     18 O          45.8080   12.1617  -25.8814 O.2     1  UNL1       -0.1499
     19 O          47.5830   11.5170  -27.3745 O.2     1  UNL1       -0.1499
     20 C          48.5492   14.7885  -25.5911 C.ar    1  UNL1       -0.0031
     21 C          48.7055   16.1785  -25.7662 C.ar    1  UNL1       -0.0072
     22 C          48.0803   16.8538  -26.8150 C.ar    1  UNL1       -0.0219
     23 C          47.2275   16.1556  -27.6672 C.ar    1  UNL1        0.0085
     24 C          47.0035   14.7887  -27.4941 C.ar    1  UNL1        0.0759
     25 CL         45.9671   14.0201  -28.6934 Cl      1  UNL1       -0.0809
     26 C          47.6252   14.0859  -26.4275 C.ar    1  UNL1        0.1316
     27 C          50.8699   14.0872  -24.8000 C.3     1  UNL1        0.0047
     28 C          49.3635   14.1067  -24.4906 C.3     1  UNL1        0.0237
     29 C          49.1003   14.7733  -23.1357 C.3     1  UNL1        0.0047
     30 C          48.2859   18.3342  -26.9940 C.3     1  UNL1        0.0224
     31 C          48.8122   19.0662  -25.7651 C.3     1  UNL1        0.0047
     32 C          49.7371   18.7957  -26.9370 C.3     1  UNL1        0.0047
     33 O          48.4634    9.7591  -22.8935 O.3     1  UNL1       -0.4513
     34 C          48.5773   10.6668  -21.8332 C.ar    1  UNL1        0.1580
     35 C          49.6869   10.5772  -20.9869 C.ar    1  UNL1        0.0677
     36 C          49.8665   11.5003  -19.9527 C.ar    1  UNL1        0.1398
     37 F          50.9876   11.4317  -19.1908 F       1  UNL1       -0.2044
     38 C          48.9073   12.5028  -19.7273 C.ar    1  UNL1        0.0175
     39 C          47.7691   12.5610  -20.5459 C.ar    1  UNL1        0.0130
     40 C          47.6001   11.6543  -21.5955 C.ar    1  UNL1        0.0919
     41 CL         46.1429   11.7669  -22.5720 Cl      1  UNL1       -0.0791
     42 C          49.1461   13.5883  -18.7098 C.3     1  UNL1        0.1382
     43 C          48.3371   13.3415  -17.4705 C.2     1  UNL1        0.3234
     44 O          47.0901   13.5258  -17.4963 O.2     1  UNL1       -0.2497
     45 O          48.9768   12.9594  -16.2841 O.3     1  UNL1       -0.4215
     46 C          50.1361   12.1282  -16.2406 C.3     1  UNL1        0.3207
     47 O          49.9019   10.9448  -15.4857 O.3     1  UNL1       -0.3070
     48 C          49.7101   11.1797  -14.0939 C.3     1  UNL1        0.2456
     49 C          50.8794   11.9660  -13.4463 C.3     1  UNL1        0.1781
     50 O          52.0106   11.1326  -13.3994 O.3     1  UNL1       -0.3790
     51 C          51.2082   13.2474  -14.2376 C.3     1  UNL1        0.1733
     52 O          50.2049   14.2127  -14.0528 O.3     1  UNL1       -0.3793
     53 C          51.3484   12.9309  -15.7309 C.3     1  UNL1        0.2106
     54 O          52.5311   12.2035  -15.9480 O.3     1  UNL1       -0.3766
     55 H          52.6406   11.5348  -12.7455 H       1  UNL1        0.2106
     56 H          50.3369   14.5968  -13.1467 H       1  UNL1        0.2105
     57 H          52.7491   12.2875  -16.9130 H       1  UNL1        0.2107
     58 C          48.3315   11.7224  -13.7958 C.2     1  UNL1        0.3439
     59 O          48.1694   12.9060  -13.3933 O.2     1  UNL1       -0.2475
     60 O          47.2324   10.8740  -13.8845 O.3     1  UNL1       -0.4785
     61 H          46.3005   11.2066  -13.6677 H       1  UNL1        0.2951
@<TRIPOS>BOND
     1    27    28    1
     2    28    29    1
     3    28    20    1
     4    20    21   ar
     5    21    22   ar
     6    22    30    1
     7    30    31    1
     8    31    32    1
     9    22    23   ar
    10    23    24   ar
    11    24    25    1
    12    24    26   ar
    13    26    17    1
    14    17    18    2
    15    17    19    2
    16    17    15    1
    17    15     1    1
    18     1     2   ar
    19     2     3   ar
    20     3     7    1
    21     7     8    2
    22     7     9   am
    23     9    11    1
    24    11    12    1
    25    11    13    1
    26    11    14    1
    27     3     4   ar
    28     4     5   ar
    29     5     6   ar
    30     6    33    1
    31    33    34    1
    32    34    35   ar
    33    35    36   ar
    34    36    37    1
    35    36    38   ar
    36    38    42    1
    37    42    43    1
    38    43    44    2
    39    43    45    1
    40    45    46    1
    41    46    47    1
    42    47    48    1
    43    48    58    1
    44    58    59    2
    45    58    60    1
    46    48    49    1
    47    49    50    1
    48    49    51    1
    49    51    52    1
    50    51    53    1
    51    53    54    1
    52    38    39   ar
    53    39    40   ar
    54    40    41    1
    55    26    20   ar
    56     6     1   ar
    57    40    34   ar
    58    32    30    1
    59    53    46    1
    60    15    16    1
    61     9    10    1
    62    60    61    1
    63    50    55    1
    64    52    56    1
    65    54    57    1
@<TRIPOS>MOLECULE
*****
 61 65 0 0 0
SMALL
GASTEIGER

@<TRIPOS>ATOM
      1 C          50.2341   12.4306  -25.9379 C.ar    1  UNL1        0.0993
      2 C          50.1498   11.3047  -26.7716 C.ar    1  UNL1        0.0235
      3 C          51.2960   10.5564  -27.0897 C.ar    1  UNL1        0.0548
      4 C          52.5257   10.9193  -26.5177 C.ar    1  UNL1        0.0077
      5 C          52.6123   12.0266  -25.6739 C.ar    1  UNL1        0.0390
      6 C          51.4752   12.8057  -25.3989 C.ar    1  UNL1        0.1598
      7 C          51.1926    9.3868  -27.9938 C.2     1  UNL1        0.2458
      8 O          50.4889    8.4018  -27.6423 O.2     1  UNL1       -0.2701
      9 N          51.8627    9.3814  -29.2703 N.am    1  UNL1       -0.3040
     10 H          52.2468   10.2919  -29.6112 H       1  UNL1        0.1496
     11 C          52.0241    8.1950  -30.1344 C.3     1  UNL1        0.0572
     12 C          53.2157    7.3439  -29.6537 C.3     1  UNL1        0.0196
     13 C          50.7314    7.3557  -30.1364 C.3     1  UNL1        0.0196
     14 C          52.3071    8.6603  -31.5779 C.3     1  UNL1        0.0196
     15 N          49.0632   13.2030  -25.6452 N.pl3   1  UNL1       -0.2120
     16 H          49.1191   14.2439  -25.7083 H       1  UNL1        0.1738
     17 S          47.4851   12.4895  -25.7159 S.O2    1  UNL1        0.0742
     18 O          46.5679   13.2147  -24.7717 O.2     1  UNL1       -0.1499
     19 O          47.5488   11.0665  -25.2395 O.2     1  UNL1       -0.1499
     20 C          46.3771   13.8598  -27.9052 C.ar    1  UNL1       -0.0031
     21 C          45.7974   13.8820  -29.1900 C.ar    1  UNL1       -0.0072
     22 C          45.8123   12.7559  -30.0136 C.ar    1  UNL1       -0.0219
     23 C          46.3480   11.5630  -29.5330 C.ar    1  UNL1        0.0085
     24 C          46.8828   11.4852  -28.2459 C.ar    1  UNL1        0.0759
     25 CL         47.5986    9.9382  -27.8016 Cl      1  UNL1       -0.0809
     26 C          46.8696   12.6191  -27.3903 C.ar    1  UNL1        0.1316
     27 C          47.7677   15.9016  -27.2727 C.3     1  UNL1        0.0047
     28 C          46.4248   15.1686  -27.1155 C.3     1  UNL1        0.0237
     29 C          45.2619   16.0822  -27.5182 C.3     1  UNL1        0.0047
     30 C          45.2092   12.8154  -31.3915 C.3     1  UNL1        0.0224
     31 C          45.8781   13.7963  -32.3473 C.3     1  UNL1        0.0047
     32 C          46.1077   12.3056  -32.5118 C.3     1  UNL1        0.0047
     33 O          51.5570   13.9533  -24.5954 O.3     1  UNL1       -0.4513
     34 C          51.6803   13.9232  -23.2007 C.ar    1  UNL1        0.1580
     35 C          52.8594   13.4224  -22.6400 C.ar    1  UNL1        0.0677
     36 C          53.0445   13.4288  -21.2544 C.ar    1  UNL1        0.1398
     37 F          54.2262   13.0012  -20.7420 F       1  UNL1       -0.2044
     38 C          52.0254   13.8999  -20.4088 C.ar    1  UNL1        0.0175
     39 C          50.8227   14.3557  -20.9700 C.ar    1  UNL1        0.0130
     40 C          50.6456   14.3730  -22.3559 C.ar    1  UNL1        0.0919
     41 CL         49.1087   14.9366  -22.9960 Cl      1  UNL1       -0.0791
     42 C          52.2540   14.0436  -18.9262 C.3     1  UNL1        0.1382
     43 C          51.8424   12.7956  -18.2023 C.2     1  UNL1        0.3234
     44 O          52.5050   12.4120  -17.2004 O.2     1  UNL1       -0.2497
     45 O          50.7607   12.0401  -18.6732 O.3     1  UNL1       -0.4215
     46 C          49.8194   11.3871  -17.8221 C.3     1  UNL1        0.3207
     47 O          49.0900   10.3854  -18.5219 O.3     1  UNL1       -0.3070
     48 C          48.2112   10.9036  -19.5160 C.3     1  UNL1        0.2456
     49 C          47.2150   11.9517  -18.9558 C.3     1  UNL1        0.1781
     50 O          46.2874   11.2940  -18.1291 O.3     1  UNL1       -0.3790
     51 C          47.9396   13.0514  -18.1548 C.3     1  UNL1        0.1733
     52 O          48.6479   13.9045  -19.0167 O.3     1  UNL1       -0.3793
     53 C          48.9058   12.4253  -17.1427 C.3     1  UNL1        0.2106
     54 O          48.1738   11.8167  -16.1088 O.3     1  UNL1       -0.3766
     55 H          45.5144   11.9069  -18.0152 H       1  UNL1        0.2106
     56 H          47.9794   14.4964  -19.4510 H       1  UNL1        0.2105
     57 H          48.7944   11.7063  -15.3417 H       1  UNL1        0.2107
     58 C          48.9532   11.3282  -20.7623 C.2     1  UNL1        0.3439
     59 O          48.3810   11.9939  -21.6671 O.2     1  UNL1       -0.2475
     60 O          50.2641   10.9025  -20.9520 O.3     1  UNL1       -0.4785
     61 H          50.7759   11.1539  -21.7892 H       1  UNL1        0.2951
@<TRIPOS>BOND
     1    27    28    1
     2    28    29    1
     3    28    20    1
     4    20    21   ar
     5    21    22   ar
     6    22    30    1
     7    30    31    1
     8    31    32    1
     9    22    23   ar
    10    23    24   ar
    11    24    25    1
    12    24    26   ar
    13    26    17    1
    14    17    18    2
    15    17    19    2
    16    17    15    1
    17    15     1    1
    18     1     2   ar
    19     2     3   ar
    20     3     7    1
    21     7     8    2
    22     7     9   am
    23     9    11    1
    24    11    12    1
    25    11    13    1
    26    11    14    1
    27     3     4   ar
    28     4     5   ar
    29     5     6   ar
    30     6    33    1
    31    33    34    1
    32    34    35   ar
    33    35    36   ar
    34    36    37    1
    35    36    38   ar
    36    38    42    1
    37    42    43    1
    38    43    44    2
    39    43    45    1
    40    45    46    1
    41    46    47    1
    42    47    48    1
    43    48    58    1
    44    58    59    2
    45    58    60    1
    46    48    49    1
    47    49    50    1
    48    49    51    1
    49    51    52    1
    50    51    53    1
    51    53    54    1
    52    38    39   ar
    53    39    40   ar
    54    40    41    1
    55    26    20   ar
    56     6     1   ar
    57    40    34   ar
    58    32    30    1
    59    53    46    1
    60    15    16    1
    61     9    10    1
    62    60    61    1
    63    50    55    1
    64    52    56    1
    65    54    57    1
@<TRIPOS>MOLECULE
*****
 61 65 0 0 0
SMALL
GASTEIGER

@<TRIPOS>ATOM
      1 C          48.1987   12.2208  -21.3140 C.ar    1  UNL1        0.0993
      2 C          48.5352   12.6860  -20.0333 C.ar    1  UNL1        0.0235
      3 C          47.6415   12.5458  -18.9580 C.ar    1  UNL1        0.0548
      4 C          46.4218   11.8835  -19.1691 C.ar    1  UNL1        0.0077
      5 C          46.0896   11.4029  -20.4357 C.ar    1  UNL1        0.0390
      6 C          46.9613   11.5907  -21.5222 C.ar    1  UNL1        0.1598
      7 C          48.0024   13.0676  -17.6188 C.2     1  UNL1        0.2458
      8 O          47.8894   14.3025  -17.3922 O.2     1  UNL1       -0.2701
      9 N          48.4506   12.1767  -16.5776 N.am    1  UNL1       -0.3040
     10 H          48.3202   11.1520  -16.7379 H       1  UNL1        0.1496
     11 C          49.0555   12.6062  -15.3010 C.3     1  UNL1        0.0572
     12 C          50.5837   12.7367  -15.4528 C.3     1  UNL1        0.0196
     13 C          48.4453   13.9460  -14.8448 C.3     1  UNL1        0.0196
     14 C          48.7607   11.5425  -14.2230 C.3     1  UNL1        0.0196
     15 N          49.1062   12.3966  -22.4089 N.pl3   1  UNL1       -0.2120
     16 H          49.0340   13.2631  -22.9873 H       1  UNL1        0.1738
     17 S          50.6023   11.5238  -22.4744 S.O2    1  UNL1        0.0742
     18 O          50.7233   10.6506  -21.2573 O.2     1  UNL1       -0.1499
     19 O          51.7546   12.4858  -22.4251 O.2     1  UNL1       -0.1499
     20 C          51.3115   10.9443  -25.1314 C.ar    1  UNL1       -0.0031
     21 C          51.1970   10.1726  -26.3055 C.ar    1  UNL1       -0.0072
     22 C          50.5335    8.9452  -26.3066 C.ar    1  UNL1       -0.0219
     23 C          49.9099    8.5028  -25.1420 C.ar    1  UNL1        0.0085
     24 C          49.9538    9.2638  -23.9726 C.ar    1  UNL1        0.0759
     25 CL         49.1927    8.5440  -22.5563 Cl      1  UNL1       -0.0809
     26 C          50.6180   10.5194  -23.9544 C.ar    1  UNL1        0.1316
     27 C          53.4687   12.0186  -25.9654 C.3     1  UNL1        0.0047
     28 C          52.1568   12.2177  -25.1879 C.3     1  UNL1        0.0237
     29 C          51.3471   13.3744  -25.7844 C.3     1  UNL1        0.0047
     30 C          50.4492    8.1292  -27.5688 C.3     1  UNL1        0.0224
     31 C          49.4474    8.6361  -28.5995 C.3     1  UNL1        0.0047
     32 C          50.9337    8.8370  -28.8284 C.3     1  UNL1        0.0047
     33 O          46.6175   11.1607  -22.8131 O.3     1  UNL1       -0.4513
     34 C          46.5690   12.0039  -23.9302 C.ar    1  UNL1        0.1580
     35 C          47.6086   11.9446  -24.8636 C.ar    1  UNL1        0.0677
     36 C          47.5684   12.7280  -26.0207 C.ar    1  UNL1        0.1398
     37 F          48.5560   12.5990  -26.9426 F       1  UNL1       -0.2044
     38 C          46.5005   13.6167  -26.2342 C.ar    1  UNL1        0.0175
     39 C          45.4831   13.7119  -25.2725 C.ar    1  UNL1        0.0130
     40 C          45.5091   12.9118  -24.1274 C.ar    1  UNL1        0.0919
     41 CL         44.2159   13.0927  -22.9507 Cl      1  UNL1       -0.0791
     42 C          46.3663   14.3679  -27.5336 C.3     1  UNL1        0.1382
     43 C          46.1279   15.8275  -27.2807 C.2     1  UNL1        0.3234
     44 O          45.0807   16.3715  -27.7247 O.2     1  UNL1       -0.2497
     45 O          47.0909   16.5844  -26.6005 O.3     1  UNL1       -0.4215
     46 C          48.3264   17.0013  -27.1807 C.3     1  UNL1        0.3207
     47 O          49.4323   16.3195  -26.5998 O.3     1  UNL1       -0.3070
     48 C          49.6672   16.6624  -25.2374 C.3     1  UNL1        0.2456
     49 C          49.8460   18.1872  -25.0194 C.3     1  UNL1        0.1781
     50 O          51.0709   18.5822  -25.5850 O.3     1  UNL1       -0.3790
     51 C          48.6945   18.9900  -25.6563 C.3     1  UNL1        0.1733
     52 O          47.5121   18.8296  -24.9156 O.3     1  UNL1       -0.3793
     53 C          48.4618   18.5341  -27.1013 C.3     1  UNL1        0.2106
     54 O          49.5299   18.9638  -27.9073 O.3     1  UNL1       -0.3766
     55 H          51.2969   19.4685  -25.1984 H       1  UNL1        0.2106
     56 H          47.6054   19.3859  -24.0984 H       1  UNL1        0.2105
     57 H          49.2118   18.9360  -28.8474 H       1  UNL1        0.2107
     58 C          48.6813   15.9942  -24.3070 C.2     1  UNL1        0.3439
     59 O          48.9012   14.8438  -23.8406 O.2     1  UNL1       -0.2475
     60 O          47.4719   16.6241  -24.0309 O.3     1  UNL1       -0.4785
     61 H          46.7842   16.1872  -23.4291 H       1  UNL1        0.2951
@<TRIPOS>BOND
     1    27    28    1
     2    28    29    1
     3    28    20    1
     4    20    21   ar
     5    21    22   ar
     6    22    30    1
     7    30    31    1
     8    31    32    1
     9    22    23   ar
    10    23    24   ar
    11    24    25    1
    12    24    26   ar
    13    26    17    1
    14    17    18    2
    15    17    19    2
    16    17    15    1
    17    15     1    1
    18     1     2   ar
    19     2     3   ar
    20     3     7    1
    21     7     8    2
    22     7     9   am
    23     9    11    1
    24    11    12    1
    25    11    13    1
    26    11    14    1
    27     3     4   ar
    28     4     5   ar
    29     5     6   ar
    30     6    33    1
    31    33    34    1
    32    34    35   ar
    33    35    36   ar
    34    36    37    1
    35    36    38   ar
    36    38    42    1
    37    42    43    1
    38    43    44    2
    39    43    45    1
    40    45    46    1
    41    46    47    1
    42    47    48    1
    43    48    58    1
    44    58    59    2
    45    58    60    1
    46    48    49    1
    47    49    50    1
    48    49    51    1
    49    51    52    1
    50    51    53    1
    51    53    54    1
    52    38    39   ar
    53    39    40   ar
    54    40    41    1
    55    26    20   ar
    56     6     1   ar
    57    40    34   ar
    58    32    30    1
    59    53    46    1
    60    15    16    1
    61     9    10    1
    62    60    61    1
    63    50    55    1
    64    52    56    1
    65    54    57    1
@<TRIPOS>MOLECULE
*****
 61 65 0 0 0
SMALL
GASTEIGER

@<TRIPOS>ATOM
      1 C          49.5582   13.3129  -20.9799 C.ar    1  UNL1        0.0993
      2 C          49.7670   12.9710  -19.6349 C.ar    1  UNL1        0.0235
      3 C          51.0271   13.1391  -19.0360 C.ar    1  UNL1        0.0548
      4 C          52.0678   13.7059  -19.7887 C.ar    1  UNL1        0.0077
      5 C          51.8612   14.0646  -21.1208 C.ar    1  UNL1        0.0390
      6 C          50.6155   13.8468  -21.7341 C.ar    1  UNL1        0.1598
      7 C          51.2364   12.7468  -17.6224 C.2     1  UNL1        0.2458
      8 O          52.2510   12.0621  -17.3210 O.2     1  UNL1       -0.2701
      9 N          50.3111   13.1629  -16.5980 N.am    1  UNL1       -0.3040
     10 H          49.6171   13.9017  -16.8537 H       1  UNL1        0.1496
     11 C          50.2884   12.6399  -15.2175 C.3     1  UNL1        0.0572
     12 C          49.8415   11.1649  -15.2136 C.3     1  UNL1        0.0196
     13 C          51.6800   12.7806  -14.5700 C.3     1  UNL1        0.0196
     14 C          49.2780   13.4586  -14.3872 C.3     1  UNL1        0.0196
     15 N          48.2766   13.1088  -21.5875 N.pl3   1  UNL1       -0.2120
     16 H          47.7794   13.9294  -21.9997 H       1  UNL1        0.1738
     17 S          47.7857   11.5351  -22.1233 S.O2    1  UNL1        0.0742
     18 O          46.3979   11.2489  -21.6225 O.2     1  UNL1       -0.1499
     19 O          48.6805   10.4906  -21.5198 O.2     1  UNL1       -0.1499
     20 C          46.8500   12.2304  -24.6806 C.ar    1  UNL1       -0.0031
     21 C          46.8429   12.0791  -26.0821 C.ar    1  UNL1       -0.0072
     22 C          47.8290   11.3418  -26.7386 C.ar    1  UNL1       -0.0219
     23 C          48.8024   10.6823  -25.9912 C.ar    1  UNL1        0.0085
     24 C          48.8121   10.7627  -24.5977 C.ar    1  UNL1        0.0759
     25 CL         50.1473    9.9469  -23.7885 Cl      1  UNL1       -0.0809
     26 C          47.8119   11.5021  -23.9115 C.ar    1  UNL1        0.1316
     27 C          46.1390   14.6407  -24.2470 C.3     1  UNL1        0.0047
     28 C          45.8042   13.1523  -24.0519 C.3     1  UNL1        0.0237
     29 C          44.4091   12.8371  -24.6027 C.3     1  UNL1        0.0047
     30 C          47.8120   11.2186  -28.2387 C.3     1  UNL1        0.0224
     31 C          46.8345   10.1877  -28.7908 C.3     1  UNL1        0.0047
     32 C          46.5186   11.6669  -28.9084 C.3     1  UNL1        0.0047
     33 O          50.4082   14.1525  -23.0880 O.3     1  UNL1       -0.4513
     34 C          51.0772   13.5196  -24.1430 C.ar    1  UNL1        0.1580
     35 C          52.1848   12.7170  -23.8524 C.ar    1  UNL1        0.0677
     36 C          52.8442   12.0225  -24.8707 C.ar    1  UNL1        0.1398
     37 F          53.8725   11.1966  -24.5508 F       1  UNL1       -0.2044
     38 C          52.4245   12.1605  -26.2051 C.ar    1  UNL1        0.0175
     39 C          51.3442   13.0055  -26.5016 C.ar    1  UNL1        0.0130
     40 C          50.6684   13.6812  -25.4822 C.ar    1  UNL1        0.0919
     41 CL         49.3361   14.7406  -25.9207 Cl      1  UNL1       -0.0791
     42 C          53.0303   11.3189  -27.2984 C.3     1  UNL1        0.1382
     43 C          52.2491   10.0519  -27.4875 C.2     1  UNL1        0.3234
     44 O          51.7439    9.4786  -26.4846 O.2     1  UNL1       -0.2497
     45 O          52.1306    9.4892  -28.7650 O.3     1  UNL1       -0.4215
     46 C          53.0920    9.6715  -29.8039 C.3     1  UNL1        0.3207
     47 O          52.5315    9.4100  -31.0856 O.3     1  UNL1       -0.3070
     48 C          52.1919    8.0428  -31.2960 C.3     1  UNL1        0.2456
     49 C          53.3852    7.0803  -31.0634 C.3     1  UNL1        0.1781
     50 O          54.3184    7.2619  -32.0991 O.3     1  UNL1       -0.3790
     51 C          54.0614    7.3340  -29.7016 C.3     1  UNL1        0.1733
     52 O          53.2447    6.8807  -28.6528 O.3     1  UNL1       -0.3793
     53 C          54.3500    8.8285  -29.5196 C.3     1  UNL1        0.2106
     54 O          55.3910    9.2143  -30.3813 O.3     1  UNL1       -0.3766
     55 H          54.9139    6.4672  -32.0960 H       1  UNL1        0.2106
     56 H          53.3171    5.8906  -28.6374 H       1  UNL1        0.2105
     57 H          55.7560   10.0679  -30.0293 H       1  UNL1        0.2107
     58 C          50.9138    7.6609  -30.5856 C.2     1  UNL1        0.3439
     59 O          49.7905    7.8111  -31.1379 O.2     1  UNL1       -0.2475
     60 O          50.9739    7.2175  -29.2682 O.3     1  UNL1       -0.4785
     61 H          50.1301    6.9772  -28.7619 H       1  UNL1        0.2951
@<TRIPOS>BOND
     1    27    28    1
     2    28    29    1
     3    28    20    1
     4    20    21   ar
     5    21    22   ar
     6    22    30    1
     7    30    31    1
     8    31    32    1
     9    22    23   ar
    10    23    24   ar
    11    24    25    1
    12    24    26   ar
    13    26    17    1
    14    17    18    2
    15    17    19    2
    16    17    15    1
    17    15     1    1
    18     1     2   ar
    19     2     3   ar
    20     3     7    1
    21     7     8    2
    22     7     9   am
    23     9    11    1
    24    11    12    1
    25    11    13    1
    26    11    14    1
    27     3     4   ar
    28     4     5   ar
    29     5     6   ar
    30     6    33    1
    31    33    34    1
    32    34    35   ar
    33    35    36   ar
    34    36    37    1
    35    36    38   ar
    36    38    42    1
    37    42    43    1
    38    43    44    2
    39    43    45    1
    40    45    46    1
    41    46    47    1
    42    47    48    1
    43    48    58    1
    44    58    59    2
    45    58    60    1
    46    48    49    1
    47    49    50    1
    48    49    51    1
    49    51    52    1
    50    51    53    1
    51    53    54    1
    52    38    39   ar
    53    39    40   ar
    54    40    41    1
    55    26    20   ar
    56     6     1   ar
    57    40    34   ar
    58    32    30    1
    59    53    46    1
    60    15    16    1
    61     9    10    1
    62    60    61    1
    63    50    55    1
    64    52    56    1
    65    54    57    1
@<TRIPOS>MOLECULE
*****
 61 65 0 0 0
SMALL
GASTEIGER

@<TRIPOS>ATOM
      1 C          49.4991   11.2380  -22.7126 C.ar    1  UNL1        0.0993
      2 C          49.8815   11.2778  -21.3628 C.ar    1  UNL1        0.0235
      3 C          48.9382   11.0776  -20.3406 C.ar    1  UNL1        0.0548
      4 C          47.6103   10.7831  -20.6884 C.ar    1  UNL1        0.0077
      5 C          47.2282   10.7244  -22.0286 C.ar    1  UNL1        0.0390
      6 C          48.1610   10.9772  -23.0491 C.ar    1  UNL1        0.1598
      7 C          49.3548   11.1504  -18.9203 C.2     1  UNL1        0.2458
      8 O          49.9240   10.1545  -18.3976 O.2     1  UNL1       -0.2701
      9 N          49.1396   12.3502  -18.1504 N.am    1  UNL1       -0.3040
     10 H          48.8703   13.2125  -18.6764 H       1  UNL1        0.1496
     11 C          49.2933   12.4526  -16.6855 C.3     1  UNL1        0.0572
     12 C          48.6357   13.7476  -16.1700 C.3     1  UNL1        0.0196
     13 C          48.6702   11.2231  -15.9958 C.3     1  UNL1        0.0196
     14 C          50.7964   12.4972  -16.3405 C.3     1  UNL1        0.0196
     15 N          50.4645   11.4735  -23.7450 N.pl3   1  UNL1       -0.2120
     16 H          50.6986   12.4591  -23.9988 H       1  UNL1        0.1738
     17 S          51.6060   10.2485  -24.1930 S.O2    1  UNL1        0.0742
     18 O          51.7341    9.2537  -23.0738 O.2     1  UNL1       -0.1499
     19 O          52.9647   10.8622  -24.3754 O.2     1  UNL1       -0.1499
     20 C          51.4377    9.8706  -26.9728 C.ar    1  UNL1       -0.0031
     21 C          50.8608    9.2697  -28.1101 C.ar    1  UNL1       -0.0072
     22 C          49.9989    8.1783  -27.9971 C.ar    1  UNL1       -0.0219
     23 C          49.6439    7.7141  -26.7324 C.ar    1  UNL1        0.0085
     24 C          50.1509    8.3167  -25.5799 C.ar    1  UNL1        0.0759
     25 CL         49.6817    7.5746  -24.0527 Cl      1  UNL1       -0.0809
     26 C          51.0236    9.4336  -25.6748 C.ar    1  UNL1        0.1316
     27 C          53.0781   10.9495  -28.6001 C.3     1  UNL1        0.0047
     28 C          52.4640   10.9834  -27.1904 C.3     1  UNL1        0.0237
     29 C          51.8390   12.3540  -26.9078 C.3     1  UNL1        0.0047
     30 C          49.4178    7.5394  -29.2300 C.3     1  UNL1        0.0224
     31 C          48.7201    8.4990  -30.1867 C.3     1  UNL1        0.0047
     32 C          50.0855    7.9398  -30.5400 C.3     1  UNL1        0.0047
     33 O          47.7799   10.9748  -24.3997 O.3     1  UNL1       -0.4513
     34 C          47.1343   12.0452  -25.0311 C.ar    1  UNL1        0.1580
     35 C          46.5458   13.0371  -24.2403 C.ar    1  UNL1        0.0677
     36 C          45.9425   14.1507  -24.8319 C.ar    1  UNL1        0.1398
     37 F          45.4409   15.1315  -24.0392 F       1  UNL1       -0.2044
     38 C          45.8840   14.2608  -26.2320 C.ar    1  UNL1        0.0175
     39 C          46.4307   13.2403  -27.0248 C.ar    1  UNL1        0.0130
     40 C          47.0559   12.1385  -26.4353 C.ar    1  UNL1        0.0919
     41 CL         47.7029   10.8840  -27.4827 Cl      1  UNL1       -0.0791
     42 C          45.3627   15.5127  -26.8891 C.3     1  UNL1        0.1382
     43 C          46.4728   16.2545  -27.5738 C.2     1  UNL1        0.3234
     44 O          46.3379   16.5995  -28.7790 O.2     1  UNL1       -0.2497
     45 O          47.6670   16.5121  -26.8879 O.3     1  UNL1       -0.4215
     46 C          48.8149   17.1081  -27.4911 C.3     1  UNL1        0.3207
     47 O          49.9907   16.3465  -27.2410 O.3     1  UNL1       -0.3070
     48 C          50.3964   16.3477  -25.8756 C.3     1  UNL1        0.2456
     49 C          50.5914   17.7759  -25.3037 C.3     1  UNL1        0.1781
     50 O          51.7309   18.3466  -25.8972 O.3     1  UNL1       -0.3790
     51 C          49.3624   18.6668  -25.5715 C.3     1  UNL1        0.1733
     52 O          48.2860   18.2811  -24.7560 O.3     1  UNL1       -0.3793
     53 C          48.9492   18.5768  -27.0450 C.3     1  UNL1        0.2106
     54 O          49.9020   19.2349  -27.8411 O.3     1  UNL1       -0.3766
     55 H          51.9987   19.1167  -25.3303 H       1  UNL1        0.2106
     56 H          48.4797   18.6193  -23.8427 H       1  UNL1        0.2105
     57 H          49.4661   19.4301  -28.7116 H       1  UNL1        0.2107
     58 C          49.5426   15.4310  -25.0302 C.2     1  UNL1        0.3439
     59 O          49.6999   14.1806  -25.0612 O.2     1  UNL1       -0.2475
     60 O          48.5090   15.9714  -24.2717 O.3     1  UNL1       -0.4785
     61 H          47.9076   15.3764  -23.7145 H       1  UNL1        0.2951
@<TRIPOS>BOND
     1    27    28    1
     2    28    29    1
     3    28    20    1
     4    20    21   ar
     5    21    22   ar
     6    22    30    1
     7    30    31    1
     8    31    32    1
     9    22    23   ar
    10    23    24   ar
    11    24    25    1
    12    24    26   ar
    13    26    17    1
    14    17    18    2
    15    17    19    2
    16    17    15    1
    17    15     1    1
    18     1     2   ar
    19     2     3   ar
    20     3     7    1
    21     7     8    2
    22     7     9   am
    23     9    11    1
    24    11    12    1
    25    11    13    1
    26    11    14    1
    27     3     4   ar
    28     4     5   ar
    29     5     6   ar
    30     6    33    1
    31    33    34    1
    32    34    35   ar
    33    35    36   ar
    34    36    37    1
    35    36    38   ar
    36    38    42    1
    37    42    43    1
    38    43    44    2
    39    43    45    1
    40    45    46    1
    41    46    47    1
    42    47    48    1
    43    48    58    1
    44    58    59    2
    45    58    60    1
    46    48    49    1
    47    49    50    1
    48    49    51    1
    49    51    52    1
    50    51    53    1
    51    53    54    1
    52    38    39   ar
    53    39    40   ar
    54    40    41    1
    55    26    20   ar
    56     6     1   ar
    57    40    34   ar
    58    32    30    1
    59    53    46    1
    60    15    16    1
    61     9    10    1
    62    60    61    1
    63    50    55    1
    64    52    56    1
    65    54    57    1
